CHEMBL2348178
     RDKit          3D

  0  0  0  0  0  0  0  0  0  0999 V3000
M  V30 BEGIN CTAB
M  V30 COUNTS 27 29 0 0 0
M  V30 BEGIN ATOM
M  V30 1 N -0.016304 -5.681227 0.485646 0
M  V30 2 C 0.138129 -4.654800 1.005127 0
M  V30 3 C 0.351886 -3.391309 1.651393 0
M  V30 4 C 0.522250 -3.349749 3.015130 0
M  V30 5 C 0.732264 -2.187798 3.719799 0
M  V30 6 C 0.773587 -0.993528 3.009537 0
M  V30 7 C 0.957435 0.340347 3.348077 0
M  V30 8 C 0.893388 1.076868 2.174242 0
M  V30 9 N 0.678068 0.211757 1.164952 0
M  V30 10 C 0.575199 0.746570 -0.150708 0
M  V30 11 C -0.686840 0.701619 -0.716669 0
M  V30 12 C -0.788975 1.226882 -2.009416 0
M  V30 13 N -2.081480 1.195193 -2.622845 0
M  V30 14 N 0.239860 1.754072 -2.704546 0
M  V30 15 C 1.444046 1.767165 -2.094273 0
M  V30 16 N 1.628132 1.277275 -0.841294 0
M  V30 17 C 0.600798 -1.046987 1.636343 0
M  V30 18 C 0.390369 -2.199356 0.919831 0
M  V30 19 H 0.504946 -4.238833 3.654567 0
M  V30 20 H 0.869953 -2.118146 4.790204 0
M  V30 21 H 1.117012 0.657211 4.381116 0
M  V30 22 H 1.017090 2.150021 2.247669 0
M  V30 23 H -1.551931 0.293520 -0.215128 0
M  V30 24 H -2.321822 0.403728 -3.285225 0
M  V30 25 H -2.749314 1.962434 -2.392851 0
M  V30 26 H 2.348562 2.162420 -2.544526 0
M  V30 27 H 0.259353 -2.209716 -0.147919 0
M  V30 END ATOM
M  V30 BEGIN BOND
M  V30 1 3 1 2
M  V30 2 1 2 3
M  V30 3 2 3 4
M  V30 4 1 4 5
M  V30 5 2 5 6
M  V30 6 1 6 7
M  V30 7 2 7 8
M  V30 8 1 8 9
M  V30 9 1 9 10
M  V30 10 2 10 11
M  V30 11 1 11 12
M  V30 12 1 12 13
M  V30 13 2 12 14
M  V30 14 1 14 15
M  V30 15 2 15 16
M  V30 16 1 9 17
M  V30 17 2 17 18
M  V30 18 1 18 3
M  V30 19 1 17 6
M  V30 20 1 16 10
M  V30 21 1 4 19
M  V30 22 1 5 20
M  V30 23 1 7 21
M  V30 24 1 8 22
M  V30 25 1 11 23
M  V30 26 1 13 24
M  V30 27 1 13 25
M  V30 28 1 15 26
M  V30 29 1 18 27
M  V30 END BOND
M  V30 END CTAB
M  END
>  <Dataset>  (1) 
ChEMBL_Kinases

>  <Ligand_Instance>  (1) 
nan

>  <PDB_ID>  (1) 
nan

>  <Standardized_SMILES>  (1) 
N#Cc1ccc2ccn(-c3cc(N)ncn3)c2c1

>  <Name>  (1) 
nan

>  <Pocket>  (1) 
nan

>  <ATP_Site>  (1) 
nan

>  <Peripheral>  (1) 
nan

>  <Num_H_Atoms_ProtBoundConf>  (1) 
nan

>  <Num_Resolved_Atoms>  (1) 
nan

>  <Num_Not_Resolved_Atoms>  (1) 
nan

$$$$
CHEMBL2348179
     RDKit          3D

  0  0  0  0  0  0  0  0  0  0999 V3000
M  V30 BEGIN CTAB
M  V30 COUNTS 27 29 0 0 0
M  V30 BEGIN ATOM
M  V30 1 N -0.134822 -5.455845 1.830667 0
M  V30 2 C 0.132862 -4.351609 2.067229 0
M  V30 3 C 0.491948 -2.975230 2.367322 0
M  V30 4 C 0.896599 -2.672018 3.665546 0
M  V30 5 C 1.246227 -1.362545 3.981328 0
M  V30 6 C 1.191724 -0.375597 3.015707 0
M  V30 7 C 1.468258 0.981865 3.017908 0
M  V30 8 C 1.230928 1.468376 1.745347 0
M  V30 9 N 0.824702 0.413403 1.019555 0
M  V30 10 C 0.489499 0.551521 -0.355376 0
M  V30 11 N 1.290632 0.930333 -1.388080 0
M  V30 12 C 0.786538 1.001609 -2.624592 0
M  V30 13 C -0.541021 0.706616 -2.940361 0
M  V30 14 C -1.329935 0.323625 -1.862749 0
M  V30 15 N -2.710650 0.001889 -2.100181 0
M  V30 16 N -0.792976 0.261034 -0.626834 0
M  V30 17 C 0.785123 -0.723282 1.744312 0
M  V30 18 C 0.427384 -1.999798 1.372483 0
M  V30 19 H 0.950913 -3.422333 4.448410 0
M  V30 20 H 1.566143 -1.117696 5.003756 0
M  V30 21 H 1.811582 1.489606 3.926667 0
M  V30 22 H 1.367739 2.491988 1.475580 0
M  V30 23 H 1.462616 1.306205 -3.404211 0
M  V30 24 H -0.927882 0.769129 -3.936882 0
M  V30 25 H -2.978811 -1.006130 -2.303334 0
M  V30 26 H -3.267863 0.883593 -2.027997 0
M  V30 27 H 0.108202 -2.263072 0.367014 0
M  V30 END ATOM
M  V30 BEGIN BOND
M  V30 1 3 1 2
M  V30 2 1 2 3
M  V30 3 2 3 4
M  V30 4 1 4 5
M  V30 5 2 5 6
M  V30 6 1 6 7
M  V30 7 2 7 8
M  V30 8 1 8 9
M  V30 9 1 9 10
M  V30 10 2 10 11
M  V30 11 1 11 12
M  V30 12 2 12 13
M  V30 13 1 13 14
M  V30 14 1 14 15
M  V30 15 2 14 16
M  V30 16 1 9 17
M  V30 17 2 17 18
M  V30 18 1 18 3
M  V30 19 1 17 6
M  V30 20 1 16 10
M  V30 21 1 4 19
M  V30 22 1 5 20
M  V30 23 1 7 21
M  V30 24 1 8 22
M  V30 25 1 12 23
M  V30 26 1 13 24
M  V30 27 1 15 25
M  V30 28 1 15 26
M  V30 29 1 18 27
M  V30 END BOND
M  V30 END CTAB
M  END
>  <Dataset>  (2) 
ChEMBL_Kinases

>  <Ligand_Instance>  (2) 
nan

>  <PDB_ID>  (2) 
nan

>  <Standardized_SMILES>  (2) 
N#Cc1ccc2ccn(-c3nccc(N)n3)c2c1

>  <Name>  (2) 
nan

>  <Pocket>  (2) 
nan

>  <ATP_Site>  (2) 
nan

>  <Peripheral>  (2) 
nan

>  <Num_H_Atoms_ProtBoundConf>  (2) 
nan

>  <Num_Resolved_Atoms>  (2) 
nan

>  <Num_Not_Resolved_Atoms>  (2) 
nan

$$$$
CHEMBL2348334
     RDKit          3D

  0  0  0  0  0  0  0  0  0  0999 V3000
M  V30 BEGIN CTAB
M  V30 COUNTS 35 37 0 0 0
M  V30 BEGIN ATOM
M  V30 1 N 1.258671 -1.750569 5.643363 0
M  V30 2 C 0.549337 -1.683824 4.423172 0
M  V30 3 O -0.592633 -2.189257 4.323790 0
M  V30 4 C 1.114215 -1.044686 3.288204 0
M  V30 5 S 2.744194 -0.280179 3.298615 0
M  V30 6 C 2.732498 0.275112 1.591813 0
M  V30 7 N 3.642441 0.931474 0.914491 0
M  V30 8 C 3.416531 1.259722 -0.391382 0
M  V30 9 C 2.181404 0.838305 -0.882514 0
M  V30 10 C 1.229203 0.148459 -0.166004 0
M  V30 11 N 0.117831 -0.134944 -0.977257 0
M  V30 12 C -0.187849 -1.494650 -1.365278 0
M  V30 13 C -1.647306 -1.678098 -1.379128 0
M  V30 14 C -2.537314 -0.594673 -0.949233 0
M  V30 15 C -2.129266 0.817186 -1.133933 0
M  V30 16 C -0.658881 1.016360 -1.387906 0
M  V30 17 C 1.508074 -0.155174 1.144368 0
M  V30 18 C 0.656316 -0.829194 1.975804 0
M  V30 19 N -0.638880 -1.346633 1.728592 0
M  V30 20 H 1.276201 -1.389907 6.631130 0
M  V30 21 H 1.233120 -1.363193 6.616919 0
M  V30 22 H 4.168795 1.790874 -0.915730 0
M  V30 23 H 2.099363 1.149292 -1.931967 0
M  V30 24 H 0.210979 -1.663251 -2.414906 0
M  V30 25 H 0.311747 -2.235028 -0.704392 0
M  V30 26 H -1.943374 -2.042371 -2.417771 0
M  V30 27 H -1.863078 -2.613686 -0.763534 0
M  V30 28 H -2.830484 -0.754443 0.110478 0
M  V30 29 H -3.519404 -0.742124 -1.497832 0
M  V30 30 H -2.387934 1.446498 -0.255489 0
M  V30 31 H -2.673251 1.285763 -1.981454 0
M  V30 32 H -0.274761 1.955623 -0.989651 0
M  V30 33 H -0.490672 1.075378 -2.503025 0
M  V30 34 H -1.326606 -0.569384 1.958735 0
M  V30 35 H -0.855063 -2.306231 1.388203 0
M  V30 END ATOM
M  V30 BEGIN BOND
M  V30 1 1 1 2
M  V30 2 2 2 3
M  V30 3 1 2 4
M  V30 4 1 4 5
M  V30 5 1 5 6
M  V30 6 2 6 7
M  V30 7 1 7 8
M  V30 8 2 8 9
M  V30 9 1 9 10
M  V30 10 1 10 11
M  V30 11 1 11 12
M  V30 12 1 12 13
M  V30 13 1 13 14
M  V30 14 1 14 15
M  V30 15 1 15 16
M  V30 16 2 10 17
M  V30 17 1 17 18
M  V30 18 1 18 19
M  V30 19 2 18 4
M  V30 20 1 17 6
M  V30 21 1 16 11
M  V30 22 1 1 20
M  V30 23 1 1 21
M  V30 24 1 8 22
M  V30 25 1 9 23
M  V30 26 1 12 24
M  V30 27 1 12 25
M  V30 28 1 13 26
M  V30 29 1 13 27
M  V30 30 1 14 28
M  V30 31 1 14 29
M  V30 32 1 15 30
M  V30 33 1 15 31
M  V30 34 1 16 32
M  V30 35 1 16 33
M  V30 36 1 19 34
M  V30 37 1 19 35
M  V30 END BOND
M  V30 END CTAB
M  END
>  <Dataset>  (3) 
ChEMBL_Kinases

>  <Ligand_Instance>  (3) 
nan

>  <PDB_ID>  (3) 
nan

>  <Standardized_SMILES>  (3) 
NC(=O)c1sc2nccc(N3CCCCC3)c2c1N

>  <Name>  (3) 
nan

>  <Pocket>  (3) 
nan

>  <ATP_Site>  (3) 
nan

>  <Peripheral>  (3) 
nan

>  <Num_H_Atoms_ProtBoundConf>  (3) 
nan

>  <Num_Resolved_Atoms>  (3) 
nan

>  <Num_Not_Resolved_Atoms>  (3) 
nan

$$$$
CHEMBL2348339
     RDKit          3D

  0  0  0  0  0  0  0  0  0  0999 V3000
M  V30 BEGIN CTAB
M  V30 COUNTS 47 50 0 0 0
M  V30 BEGIN ATOM
M  V30 1 N -0.721290 -6.928104 1.131852 0
M  V30 2 C -1.220272 -5.617703 0.949064 0
M  V30 3 O -2.417327 -5.363824 1.221328 0
M  V30 4 C -0.433990 -4.556946 0.468303 0
M  V30 5 S 1.375150 -4.892516 0.045930 0
M  V30 6 C 1.748395 -3.238271 -0.465283 0
M  V30 7 N 2.860888 -2.725784 -0.917894 0
M  V30 8 C 2.936983 -1.422566 -1.277252 0
M  V30 9 C 1.770277 -0.738544 -1.117461 0
M  V30 10 C 0.544323 -1.203038 -0.642878 0
M  V30 11 N -0.499379 -0.210449 -0.525148 0
M  V30 12 C -0.455117 0.703045 -1.648503 0
M  V30 13 C 0.037500 2.060410 -1.403638 0
M  V30 14 C 0.577906 2.409813 -0.060439 0
M  V30 15 N -0.216084 1.931499 1.031289 0
M  V30 16 C 0.310233 1.900800 2.325258 0
M  V30 17 C -0.342273 1.419211 3.441511 0
M  V30 18 C 0.170326 1.388160 4.722475 0
M  V30 19 C 1.443773 1.875391 4.929971 0
M  V30 20 C 2.141285 2.369134 3.848004 0
M  V30 21 C 1.578462 2.376240 2.583941 0
M  V30 22 C -1.569475 1.481240 0.808832 0
M  V30 23 C -1.466780 -0.031632 0.522131 0
M  V30 24 C 0.537849 -2.531782 -0.300001 0
M  V30 25 C -0.532998 -3.233052 0.170203 0
M  V30 26 N -1.863480 -2.824870 0.407205 0
M  V30 27 H -0.623260 -7.065624 2.176370 0
M  V30 28 H -0.554540 -7.256875 2.110929 0
M  V30 29 H 3.871350 -1.036960 -1.646856 0
M  V30 30 H 1.915639 0.305931 -1.439014 0
M  V30 31 H 0.057648 0.178176 -2.501722 0
M  V30 32 H -1.520916 0.769380 -2.028182 0
M  V30 33 H 0.842596 2.303185 -2.159629 0
M  V30 34 H -0.748427 2.841951 -1.648973 0
M  V30 35 H 0.564551 3.526619 0.030994 0
M  V30 36 H 1.670473 2.171079 0.023685 0
M  V30 37 H -1.336026 1.025535 3.351556 0
M  V30 38 H -0.393063 0.996567 5.558580 0
M  V30 39 H 1.849125 1.852984 5.931456 0
M  V30 40 H 3.128806 2.731568 4.090087 0
M  V30 41 H 2.236030 2.787408 1.859058 0
M  V30 42 H -2.068529 1.939727 -0.066717 0
M  V30 43 H -2.242631 1.682022 1.666487 0
M  V30 44 H -2.527657 -0.247797 0.198211 0
M  V30 45 H -1.193405 -0.472370 1.492831 0
M  V30 46 H -2.260093 -2.696629 1.383429 0
M  V30 47 H -2.372476 -2.676013 -0.509781 0
M  V30 END ATOM
M  V30 BEGIN BOND
M  V30 1 1 1 2
M  V30 2 2 2 3
M  V30 3 1 2 4
M  V30 4 1 4 5
M  V30 5 1 5 6
M  V30 6 2 6 7
M  V30 7 1 7 8
M  V30 8 2 8 9
M  V30 9 1 9 10
M  V30 10 1 10 11
M  V30 11 1 11 12
M  V30 12 1 12 13
M  V30 13 1 13 14
M  V30 14 1 14 15
M  V30 15 1 15 16
M  V30 16 2 16 17
M  V30 17 1 17 18
M  V30 18 2 18 19
M  V30 19 1 19 20
M  V30 20 2 20 21
M  V30 21 1 15 22
M  V30 22 1 22 23
M  V30 23 2 10 24
M  V30 24 1 24 25
M  V30 25 1 25 26
M  V30 26 2 25 4
M  V30 27 1 24 6
M  V30 28 1 23 11
M  V30 29 1 21 16
M  V30 30 1 1 27
M  V30 31 1 1 28
M  V30 32 1 8 29
M  V30 33 1 9 30
M  V30 34 1 12 31
M  V30 35 1 12 32
M  V30 36 1 13 33
M  V30 37 1 13 34
M  V30 38 1 14 35
M  V30 39 1 14 36
M  V30 40 1 17 37
M  V30 41 1 18 38
M  V30 42 1 19 39
M  V30 43 1 20 40
M  V30 44 1 21 41
M  V30 45 1 22 42
M  V30 46 1 22 43
M  V30 47 1 23 44
M  V30 48 1 23 45
M  V30 49 1 26 46
M  V30 50 1 26 47
M  V30 END BOND
M  V30 END CTAB
M  END
>  <Dataset>  (4) 
ChEMBL_Kinases

>  <Ligand_Instance>  (4) 
nan

>  <PDB_ID>  (4) 
nan

>  <Standardized_SMILES>  (4) 
NC(=O)c1sc2nccc(N3CCCN(c4ccccc4)CC3)c2c1N

>  <Name>  (4) 
nan

>  <Pocket>  (4) 
nan

>  <ATP_Site>  (4) 
nan

>  <Peripheral>  (4) 
nan

>  <Num_H_Atoms_ProtBoundConf>  (4) 
nan

>  <Num_Resolved_Atoms>  (4) 
nan

>  <Num_Not_Resolved_Atoms>  (4) 
nan

$$$$
CHEMBL234838
     RDKit          3D

  0  0  0  0  0  0  0  0  0  0999 V3000
M  V30 BEGIN CTAB
M  V30 COUNTS 34 36 0 0 0
M  V30 BEGIN ATOM
M  V30 1 N 1.697368 -2.388658 2.628464 0
M  V30 2 C 0.756430 -1.754413 2.311103 0
M  V30 3 C -0.381590 -0.957009 1.923911 0
M  V30 4 C -0.247025 0.165214 1.187828 0
M  V30 5 N 0.939300 0.751188 0.680530 0
M  V30 6 C 1.418494 0.389224 -0.589946 0
M  V30 7 O 0.628111 -0.475860 -1.096860 0
M  V30 8 C 2.605452 0.874893 -1.276601 0
M  V30 9 C 2.820703 0.320162 -2.545153 0
M  V30 10 C 3.881140 0.665123 -3.316891 0
M  V30 11 C 4.820214 1.583158 -2.910120 0
M  V30 12 C 4.625921 2.140409 -1.664474 0
M  V30 13 C 3.551870 1.790914 -0.883017 0
M  V30 14 F 3.346069 2.320126 0.327772 0
M  V30 15 S -1.895795 0.818002 0.949868 0
M  V30 16 C -2.712825 -0.524184 1.902432 0
M  V30 17 C -1.647012 -1.333543 2.305257 0
M  V30 18 C -2.209850 -2.459886 3.090953 0
M  V30 19 C -3.263274 -3.193391 2.328794 0
M  V30 20 C -4.301888 -2.293158 1.710259 0
M  V30 21 C -4.076681 -0.920633 2.306727 0
M  V30 22 H 1.483186 1.456110 1.224513 0
M  V30 23 H 2.125564 -0.424926 -2.962879 0
M  V30 24 H 4.018091 0.220924 -4.286400 0
M  V30 25 H 5.689420 1.915369 -3.454694 0
M  V30 26 H 5.297463 2.883933 -1.218712 0
M  V30 27 H -1.414968 -3.231398 3.317639 0
M  V30 28 H -2.579194 -2.161948 4.092424 0
M  V30 29 H -3.828773 -3.860681 3.038965 0
M  V30 30 H -2.810232 -3.803455 1.519466 0
M  V30 31 H -5.334472 -2.653786 1.875186 0
M  V30 32 H -4.079861 -2.191789 0.609662 0
M  V30 33 H -4.117107 -1.017361 3.409529 0
M  V30 34 H -4.805856 -0.192155 1.922707 0
M  V30 END ATOM
M  V30 BEGIN BOND
M  V30 1 3 1 2
M  V30 2 1 2 3
M  V30 3 2 3 4
M  V30 4 1 4 5
M  V30 5 1 5 6
M  V30 6 2 6 7
M  V30 7 1 6 8
M  V30 8 2 8 9
M  V30 9 1 9 10
M  V30 10 2 10 11
M  V30 11 1 11 12
M  V30 12 2 12 13
M  V30 13 1 13 14
M  V30 14 1 4 15
M  V30 15 1 15 16
M  V30 16 2 16 17
M  V30 17 1 17 18
M  V30 18 1 18 19
M  V30 19 1 19 20
M  V30 20 1 20 21
M  V30 21 1 17 3
M  V30 22 1 13 8
M  V30 23 1 21 16
M  V30 24 1 5 22
M  V30 25 1 9 23
M  V30 26 1 10 24
M  V30 27 1 11 25
M  V30 28 1 12 26
M  V30 29 1 18 27
M  V30 30 1 18 28
M  V30 31 1 19 29
M  V30 32 1 19 30
M  V30 33 1 20 31
M  V30 34 1 20 32
M  V30 35 1 21 33
M  V30 36 1 21 34
M  V30 END BOND
M  V30 END CTAB
M  END
>  <Dataset>  (5) 
ChEMBL_Kinases

>  <Ligand_Instance>  (5) 
nan

>  <PDB_ID>  (5) 
nan

>  <Standardized_SMILES>  (5) 
N#Cc1c(NC(=O)c2ccccc2F)sc2c1CCCC2

>  <Name>  (5) 
GW572738X

>  <Pocket>  (5) 
nan

>  <ATP_Site>  (5) 
nan

>  <Peripheral>  (5) 
nan

>  <Num_H_Atoms_ProtBoundConf>  (5) 
nan

>  <Num_Resolved_Atoms>  (5) 
nan

>  <Num_Not_Resolved_Atoms>  (5) 
nan

$$$$
CHEMBL234839
     RDKit          3D

  0  0  0  0  0  0  0  0  0  0999 V3000
M  V30 BEGIN CTAB
M  V30 COUNTS 34 36 0 0 0
M  V30 BEGIN ATOM
M  V30 1 N 1.565516 -2.972732 1.920753 0
M  V30 2 C 0.643231 -2.246338 1.743550 0
M  V30 3 C -0.490052 -1.373510 1.506402 0
M  V30 4 C -0.361700 -0.328904 0.684038 0
M  V30 5 N 0.626612 0.327392 -0.094423 0
M  V30 6 C 2.017459 0.204911 -0.270630 0
M  V30 7 O 2.578170 -0.681125 0.400637 0
M  V30 8 C 2.903483 0.958245 -1.122290 0
M  V30 9 C 2.892641 0.584681 -2.475050 0
M  V30 10 C 3.701484 1.214102 -3.437520 0
M  V30 11 C 4.536148 2.236485 -3.032719 0
M  V30 12 C 4.557697 2.616888 -1.702312 0
M  V30 13 C 3.759674 1.992972 -0.764735 0
M  V30 14 Br 3.731201 2.454693 1.067442 0
M  V30 15 S -1.963304 0.499647 0.620787 0
M  V30 16 C -2.735154 -0.697910 1.783409 0
M  V30 17 C -1.731753 -1.584187 2.096756 0
M  V30 18 C -2.103594 -2.651941 3.058400 0
M  V30 19 C -3.456788 -3.165224 2.936822 0
M  V30 20 C -4.362030 -2.380828 2.039361 0
M  V30 21 C -4.070303 -0.922068 2.397277 0
M  V30 22 H 0.390722 1.128417 -0.765309 0
M  V30 23 H 2.254370 -0.218992 -2.868658 0
M  V30 24 H 3.655590 0.891803 -4.465557 0
M  V30 25 H 5.185780 2.761063 -3.727637 0
M  V30 26 H 5.199944 3.414453 -1.334792 0
M  V30 27 H -1.406892 -3.556176 2.929859 0
M  V30 28 H -1.834242 -2.331787 4.110489 0
M  V30 29 H -3.891061 -3.232059 3.980677 0
M  V30 30 H -3.500976 -4.235684 2.597232 0
M  V30 31 H -5.435198 -2.628570 2.183422 0
M  V30 32 H -4.061586 -2.502352 0.974363 0
M  V30 33 H -4.811182 -0.239338 1.992687 0
M  V30 34 H -3.985513 -0.879512 3.495511 0
M  V30 END ATOM
M  V30 BEGIN BOND
M  V30 1 3 1 2
M  V30 2 1 2 3
M  V30 3 2 3 4
M  V30 4 1 4 5
M  V30 5 1 5 6
M  V30 6 2 6 7
M  V30 7 1 6 8
M  V30 8 2 8 9
M  V30 9 1 9 10
M  V30 10 2 10 11
M  V30 11 1 11 12
M  V30 12 2 12 13
M  V30 13 1 13 14
M  V30 14 1 4 15
M  V30 15 1 15 16
M  V30 16 2 16 17
M  V30 17 1 17 18
M  V30 18 1 18 19
M  V30 19 1 19 20
M  V30 20 1 20 21
M  V30 21 1 17 3
M  V30 22 1 13 8
M  V30 23 1 21 16
M  V30 24 1 5 22
M  V30 25 1 9 23
M  V30 26 1 10 24
M  V30 27 1 11 25
M  V30 28 1 12 26
M  V30 29 1 18 27
M  V30 30 1 18 28
M  V30 31 1 19 29
M  V30 32 1 19 30
M  V30 33 1 20 31
M  V30 34 1 20 32
M  V30 35 1 21 33
M  V30 36 1 21 34
M  V30 END BOND
M  V30 END CTAB
M  END
>  <Dataset>  (6) 
ChEMBL_Kinases

>  <Ligand_Instance>  (6) 
nan

>  <PDB_ID>  (6) 
nan

>  <Standardized_SMILES>  (6) 
N#Cc1c(NC(=O)c2ccccc2Br)sc2c1CCCC2

>  <Name>  (6) 
nan

>  <Pocket>  (6) 
nan

>  <ATP_Site>  (6) 
nan

>  <Peripheral>  (6) 
nan

>  <Num_H_Atoms_ProtBoundConf>  (6) 
nan

>  <Num_Resolved_Atoms>  (6) 
nan

>  <Num_Not_Resolved_Atoms>  (6) 
nan

$$$$
CHEMBL234865
     RDKit          3D

  0  0  0  0  0  0  0  0  0  0999 V3000
M  V30 BEGIN CTAB
M  V30 COUNTS 58 62 0 0 0
M  V30 BEGIN ATOM
M  V30 1 C 3.962987 0.268775 4.319546 0
M  V30 2 C 4.969827 1.392088 4.257009 0
M  V30 3 C 6.317858 0.726125 4.040428 0
M  V30 4 C 5.033145 2.016430 5.656659 0
M  V30 5 N 4.676987 2.406096 3.342145 0
M  V30 6 C 4.701624 2.220782 1.958462 0
M  V30 7 C 3.759600 1.212396 1.429459 0
M  V30 8 C 3.947707 -0.123865 1.148539 0
M  V30 9 C 2.934478 -0.910787 0.651601 0
M  V30 10 C 1.677973 -0.396708 0.410379 0
M  V30 11 C 1.446393 0.935131 0.677346 0
M  V30 12 C 2.481181 1.700840 1.175347 0
M  V30 13 C 0.051236 1.189074 0.329711 0
M  V30 14 N -0.881012 2.180867 0.304311 0
M  V30 15 N -2.009833 1.662749 -0.159209 0
M  V30 16 C -1.841781 0.341580 -0.442203 0
M  V30 17 C -2.831459 -0.599393 -0.971293 0
M  V30 18 C -2.380264 -1.416930 -1.993213 0
M  V30 19 C -3.265460 -2.326754 -2.535461 0
M  V30 20 C -4.572666 -2.479898 -2.129977 0
M  V30 21 C -5.462683 -3.468348 -2.749037 0
M  V30 22 C -6.835812 -3.258272 -2.856076 0
M  V30 23 C -7.646904 -4.212575 -3.445876 0
M  V30 24 C -7.060477 -5.374462 -3.923703 0
M  V30 25 O -7.817584 -6.389107 -4.534674 0
M  V30 26 C -5.700419 -5.631211 -3.841457 0
M  V30 27 C -4.934259 -4.648479 -3.244632 0
M  V30 28 C -4.991448 -1.642277 -1.101611 0
M  V30 29 C -4.134701 -0.720025 -0.534562 0
M  V30 30 C -0.523881 0.014865 -0.135584 0
M  V30 31 C 0.465987 -1.083218 -0.120166 0
M  V30 32 H 4.336959 -0.692210 3.907862 0
M  V30 33 H 3.709612 0.062179 5.409424 0
M  V30 34 H 3.063587 0.577820 3.773441 0
M  V30 35 H 6.629217 0.309152 5.023042 0
M  V30 36 H 6.271185 -0.148123 3.362237 0
M  V30 37 H 7.051155 1.493669 3.760218 0
M  V30 38 H 4.475748 2.997678 5.647501 0
M  V30 39 H 6.068756 2.268811 5.879824 0
M  V30 40 H 4.509521 1.396401 6.404721 0
M  V30 41 H 4.771569 3.384519 3.684135 0
M  V30 42 H 4.483174 3.234366 1.485892 0
M  V30 43 H 5.727286 1.998063 1.546889 0
M  V30 44 H 4.974015 -0.453164 1.368122 0
M  V30 45 H 3.244795 -1.919193 0.489323 0
M  V30 46 H 2.198376 2.739091 1.353380 0
M  V30 47 H -0.732839 3.183134 0.600371 0
M  V30 48 H -1.394680 -1.421969 -2.421075 0
M  V30 49 H -2.965159 -3.004114 -3.350623 0
M  V30 50 H -7.269400 -2.340170 -2.473974 0
M  V30 51 H -8.725893 -4.075614 -3.543722 0
M  V30 52 H -7.502136 -6.738016 -5.436167 0
M  V30 53 H -5.259164 -6.544965 -4.220256 0
M  V30 54 H -3.855515 -4.835183 -3.171032 0
M  V30 55 H -6.025274 -1.716564 -0.733565 0
M  V30 56 H -4.427477 -0.057404 0.262455 0
M  V30 57 H 0.667486 -1.375767 -1.192542 0
M  V30 58 H 0.183361 -1.945770 0.489173 0
M  V30 END ATOM
M  V30 BEGIN BOND
M  V30 1 1 1 2
M  V30 2 1 2 3
M  V30 3 1 2 4
M  V30 4 1 2 5
M  V30 5 1 5 6
M  V30 6 1 6 7
M  V30 7 2 7 8
M  V30 8 1 8 9
M  V30 9 2 9 10
M  V30 10 1 10 11
M  V30 11 2 11 12
M  V30 12 1 11 13
M  V30 13 1 13 14
M  V30 14 1 14 15
M  V30 15 2 15 16
M  V30 16 1 16 17
M  V30 17 2 17 18
M  V30 18 1 18 19
M  V30 19 2 19 20
M  V30 20 1 20 21
M  V30 21 2 21 22
M  V30 22 1 22 23
M  V30 23 2 23 24
M  V30 24 1 24 25
M  V30 25 1 24 26
M  V30 26 2 26 27
M  V30 27 1 20 28
M  V30 28 2 28 29
M  V30 29 1 16 30
M  V30 30 1 30 31
M  V30 31 1 12 7
M  V30 32 2 30 13
M  V30 33 1 31 10
M  V30 34 1 29 17
M  V30 35 1 27 21
M  V30 36 1 1 32
M  V30 37 1 1 33
M  V30 38 1 1 34
M  V30 39 1 3 35
M  V30 40 1 3 36
M  V30 41 1 3 37
M  V30 42 1 4 38
M  V30 43 1 4 39
M  V30 44 1 4 40
M  V30 45 1 5 41
M  V30 46 1 6 42
M  V30 47 1 6 43
M  V30 48 1 8 44
M  V30 49 1 9 45
M  V30 50 1 12 46
M  V30 51 1 14 47
M  V30 52 1 18 48
M  V30 53 1 19 49
M  V30 54 1 22 50
M  V30 55 1 23 51
M  V30 56 1 25 52
M  V30 57 1 26 53
M  V30 58 1 27 54
M  V30 59 1 28 55
M  V30 60 1 29 56
M  V30 61 1 31 57
M  V30 62 1 31 58
M  V30 END BOND
M  V30 END CTAB
M  END
>  <Dataset>  (7) 
ChEMBL_Kinases

>  <Ligand_Instance>  (7) 
nan

>  <PDB_ID>  (7) 
nan

>  <Standardized_SMILES>  (7) 
CC(C)(C)NCc1ccc2c(c1)-c1[nH]nc(-c3ccc(-c4ccc(O)cc4)cc3)c1C2

>  <Name>  (7) 
nan

>  <Pocket>  (7) 
nan

>  <ATP_Site>  (7) 
nan

>  <Peripheral>  (7) 
nan

>  <Num_H_Atoms_ProtBoundConf>  (7) 
nan

>  <Num_Resolved_Atoms>  (7) 
nan

>  <Num_Not_Resolved_Atoms>  (7) 
nan

$$$$
CHEMBL234866
     RDKit          3D

  0  0  0  0  0  0  0  0  0  0999 V3000
M  V30 BEGIN CTAB
M  V30 COUNTS 53 57 0 0 0
M  V30 BEGIN ATOM
M  V30 1 O 4.041182 1.857047 6.430526 0
M  V30 2 C 4.992084 0.916046 6.031153 0
M  V30 3 C 5.087880 0.967007 4.518981 0
M  V30 4 N 6.036856 0.040880 3.988387 0
M  V30 5 C 6.074052 0.081578 2.539379 0
M  V30 6 C 4.750190 -0.285135 1.954531 0
M  V30 7 C 4.565993 -1.651334 1.709831 0
M  V30 8 C 3.329364 -2.003366 1.166471 0
M  V30 9 C 2.352020 -1.072238 0.887910 0
M  V30 10 C 2.558242 0.270978 1.138315 0
M  V30 11 C 3.772462 0.645211 1.675232 0
M  V30 12 C 1.328682 0.944530 0.727795 0
M  V30 13 N 0.750539 2.156572 0.646237 0
M  V30 14 N -0.466276 2.042048 0.142540 0
M  V30 15 C -0.723287 0.726747 -0.124644 0
M  V30 16 C -1.903069 0.048147 -0.684713 0
M  V30 17 C -3.139294 0.426805 -0.199507 0
M  V30 18 C -4.269707 -0.188664 -0.698836 0
M  V30 19 C -4.173437 -1.176081 -1.676015 0
M  V30 20 C -5.346957 -1.827470 -2.210849 0
M  V30 21 C -6.559738 -1.224189 -2.349505 0
M  V30 22 C -7.656919 -1.892501 -2.866320 0
M  V30 23 C -7.533728 -3.226660 -3.262670 0
M  V30 24 O -8.528077 -4.032870 -3.795803 0
M  V30 25 C -6.290181 -3.848258 -3.121417 0
M  V30 26 C -5.219633 -3.150914 -2.602500 0
M  V30 27 C -2.930291 -1.542110 -2.149391 0
M  V30 28 C -1.776232 -0.929170 -1.654709 0
M  V30 29 C 0.418188 0.001024 0.243870 0
M  V30 30 C 1.011365 -1.361322 0.312155 0
M  V30 31 H 3.126774 1.545279 6.300532 0
M  V30 32 H 4.613025 -0.064555 6.386130 0
M  V30 33 H 5.959915 1.131887 6.498710 0
M  V30 34 H 5.466790 1.993001 4.262673 0
M  V30 35 H 4.097714 0.781673 4.103659 0
M  V30 36 H 6.020112 -0.913328 4.390503 0
M  V30 37 H 6.332358 1.118790 2.244521 0
M  V30 38 H 6.835518 -0.574514 2.119336 0
M  V30 39 H 5.318501 -2.387925 1.921442 0
M  V30 40 H 3.195621 -3.080613 0.977674 0
M  V30 41 H 3.945601 1.692497 1.875611 0
M  V30 42 H 1.164714 3.067795 0.925638 0
M  V30 43 H -3.248127 1.190655 0.559623 0
M  V30 44 H -5.253361 0.083415 -0.341321 0
M  V30 45 H -6.681478 -0.204007 -2.054461 0
M  V30 46 H -8.644100 -1.469564 -3.001708 0
M  V30 47 H -8.877977 -4.791123 -3.223916 0
M  V30 48 H -6.100693 -4.881119 -3.402188 0
M  V30 49 H -4.249337 -3.651858 -2.496460 0
M  V30 50 H -2.775732 -2.295428 -2.903007 0
M  V30 51 H -0.788202 -1.222013 -2.032658 0
M  V30 52 H 1.158428 -1.754684 -0.713853 0
M  V30 53 H 0.417729 -2.040582 0.954689 0
M  V30 END ATOM
M  V30 BEGIN BOND
M  V30 1 1 1 2
M  V30 2 1 2 3
M  V30 3 1 3 4
M  V30 4 1 4 5
M  V30 5 1 5 6
M  V30 6 2 6 7
M  V30 7 1 7 8
M  V30 8 2 8 9
M  V30 9 1 9 10
M  V30 10 2 10 11
M  V30 11 1 10 12
M  V30 12 1 12 13
M  V30 13 1 13 14
M  V30 14 2 14 15
M  V30 15 1 15 16
M  V30 16 2 16 17
M  V30 17 1 17 18
M  V30 18 2 18 19
M  V30 19 1 19 20
M  V30 20 2 20 21
M  V30 21 1 21 22
M  V30 22 2 22 23
M  V30 23 1 23 24
M  V30 24 1 23 25
M  V30 25 2 25 26
M  V30 26 1 19 27
M  V30 27 2 27 28
M  V30 28 1 15 29
M  V30 29 1 29 30
M  V30 30 1 11 6
M  V30 31 2 29 12
M  V30 32 1 30 9
M  V30 33 1 28 16
M  V30 34 1 26 20
M  V30 35 1 1 31
M  V30 36 1 2 32
M  V30 37 1 2 33
M  V30 38 1 3 34
M  V30 39 1 3 35
M  V30 40 1 4 36
M  V30 41 1 5 37
M  V30 42 1 5 38
M  V30 43 1 7 39
M  V30 44 1 8 40
M  V30 45 1 11 41
M  V30 46 1 13 42
M  V30 47 1 17 43
M  V30 48 1 18 44
M  V30 49 1 21 45
M  V30 50 1 22 46
M  V30 51 1 24 47
M  V30 52 1 25 48
M  V30 53 1 26 49
M  V30 54 1 27 50
M  V30 55 1 28 51
M  V30 56 1 30 52
M  V30 57 1 30 53
M  V30 END BOND
M  V30 END CTAB
M  END
>  <Dataset>  (8) 
ChEMBL_Kinases

>  <Ligand_Instance>  (8) 
nan

>  <PDB_ID>  (8) 
nan

>  <Standardized_SMILES>  (8) 
OCCNCc1ccc2c(c1)-c1[nH]nc(-c3ccc(-c4ccc(O)cc4)cc3)c1C2

>  <Name>  (8) 
nan

>  <Pocket>  (8) 
nan

>  <ATP_Site>  (8) 
nan

>  <Peripheral>  (8) 
nan

>  <Num_H_Atoms_ProtBoundConf>  (8) 
nan

>  <Num_Resolved_Atoms>  (8) 
nan

>  <Num_Not_Resolved_Atoms>  (8) 
nan

$$$$
CHEMBL2348177
     RDKit          3D

  0  0  0  0  0  0  0  0  0  0999 V3000
M  V30 BEGIN CTAB
M  V30 COUNTS 25 27 0 0 0
M  V30 BEGIN ATOM
M  V30 1 N 0.045469 -3.109399 5.073390 0
M  V30 2 C 0.109952 -2.876649 3.939519 0
M  V30 3 C 0.171755 -2.582776 2.532767 0
M  V30 4 C 0.148509 -3.655934 1.660422 0
M  V30 5 C 0.203336 -3.474775 0.296705 0
M  V30 6 C 0.283061 -2.166931 -0.165681 0
M  V30 7 C 0.352037 -1.618310 -1.414477 0
M  V30 8 C 0.416305 -0.250481 -1.330613 0
M  V30 9 N 0.386358 0.053241 0.000511 0
M  V30 10 C 0.438609 1.410596 0.425788 0
M  V30 11 C -0.526762 2.382987 0.252801 0
M  V30 12 C -0.304286 3.664547 0.736802 0
M  V30 13 N 0.851258 3.927466 1.364759 0
M  V30 14 C 1.814863 2.977699 1.543579 0
M  V30 15 N 1.570495 1.754093 1.066251 0
M  V30 16 C 0.306586 -1.098204 0.692032 0
M  V30 17 C 0.251283 -1.289179 2.055513 0
M  V30 18 H 0.086802 -4.712755 1.953305 0
M  V30 19 H 0.189421 -4.272170 -0.450912 0
M  V30 20 H 0.354347 -2.200084 -2.330276 0
M  V30 21 H 0.477514 0.409863 -2.186238 0
M  V30 22 H -1.416720 2.055022 -0.267829 0
M  V30 23 H -1.080869 4.402404 0.584577 0
M  V30 24 H 2.686828 3.318243 2.059375 0
M  V30 25 H 0.269296 -0.453150 2.737893 0
M  V30 END ATOM
M  V30 BEGIN BOND
M  V30 1 3 1 2
M  V30 2 1 2 3
M  V30 3 2 3 4
M  V30 4 1 4 5
M  V30 5 2 5 6
M  V30 6 1 6 7
M  V30 7 2 7 8
M  V30 8 1 8 9
M  V30 9 1 9 10
M  V30 10 2 10 11
M  V30 11 1 11 12
M  V30 12 2 12 13
M  V30 13 1 13 14
M  V30 14 2 14 15
M  V30 15 1 9 16
M  V30 16 2 16 17
M  V30 17 1 17 3
M  V30 18 1 16 6
M  V30 19 1 15 10
M  V30 20 1 4 18
M  V30 21 1 5 19
M  V30 22 1 7 20
M  V30 23 1 8 21
M  V30 24 1 11 22
M  V30 25 1 12 23
M  V30 26 1 14 24
M  V30 27 1 17 25
M  V30 END BOND
M  V30 END CTAB
M  END
>  <Dataset>  (9) 
ChEMBL_Kinases

>  <Ligand_Instance>  (9) 
nan

>  <PDB_ID>  (9) 
nan

>  <Standardized_SMILES>  (9) 
N#Cc1ccc2ccn(-c3ccncn3)c2c1

>  <Name>  (9) 
nan

>  <Pocket>  (9) 
nan

>  <ATP_Site>  (9) 
nan

>  <Peripheral>  (9) 
nan

>  <Num_H_Atoms_ProtBoundConf>  (9) 
nan

>  <Num_Resolved_Atoms>  (9) 
nan

>  <Num_Not_Resolved_Atoms>  (9) 
nan

$$$$
CHEMBL2335067
     RDKit          3D

  0  0  0  0  0  0  0  0  0  0999 V3000
M  V30 BEGIN CTAB
M  V30 COUNTS 69 75 0 0 0
M  V30 BEGIN ATOM
M  V30 1 C 1.895382 -4.227257 5.103132 0
M  V30 2 O 3.062769 -3.431874 5.015330 0
M  V30 3 C 3.028198 -2.299507 4.215055 0
M  V30 4 C 4.142332 -1.499955 4.098221 0
M  V30 5 C 4.124996 -0.367906 3.305919 0
M  V30 6 C 2.953407 -0.074978 2.642008 0
M  V30 7 N 2.679759 0.948188 1.823554 0
M  V30 8 C 1.412208 0.825262 1.410590 0
M  V30 9 C 0.752480 1.748770 0.510680 0
M  V30 10 C 1.275655 1.590223 -0.779278 0
M  V30 11 C 0.814728 2.384671 -1.831665 0
M  V30 12 C -0.159983 3.337005 -1.622406 0
M  V30 13 C -0.631361 4.135265 -2.642200 0
M  V30 14 C -1.620156 5.090811 -2.389053 0
M  V30 15 C -2.090687 5.193660 -1.097187 0
M  V30 16 C -1.627323 4.399280 -0.062987 0
M  V30 17 C -0.658350 3.470757 -0.338308 0
M  V30 18 C -0.222309 2.702226 0.711782 0
M  V30 19 N 0.818061 -0.252220 1.926142 0
M  V30 20 C -0.431979 -0.916859 1.903411 0
M  V30 21 C -1.351602 -0.343491 2.759781 0
M  V30 22 C -2.609500 -0.923183 2.869082 0
M  V30 23 N -2.906147 -2.017464 2.149473 0
M  V30 24 C -1.987326 -2.557806 1.318400 0
M  V30 25 N -2.181417 -3.766150 0.546577 0
M  V30 26 C -1.292376 -4.366807 -0.406955 0 CFG=2
M  V30 27 C 0.134289 -4.441778 -0.032033 0
M  V30 28 C 1.045989 -3.493088 -0.735822 0
M  V30 29 C 0.524799 -2.589452 -1.756277 0
M  V30 30 N -0.869212 -2.575571 -1.979302 0
M  V30 31 C -1.787804 -1.565412 -2.304911 0
M  V30 32 O -3.045062 -1.765448 -2.471783 0
M  V30 33 C -2.594328 -0.420397 -2.636314 0
M  V30 34 C -2.149900 0.860652 -3.174780 0
M  V30 35 C -2.380715 0.801193 -1.717821 0
M  V30 36 C -1.423125 -3.887721 -1.816736 0
M  V30 37 N -0.765329 -2.010330 1.198698 0
M  V30 38 C 1.783498 -0.825482 2.703255 0
M  V30 39 C 1.899622 -1.941878 3.523320 0
M  V30 40 H 1.601552 -4.608847 4.085015 0
M  V30 41 H 1.030632 -3.580250 5.408195 0
M  V30 42 H 2.028657 -5.079844 5.788245 0
M  V30 43 H 5.028038 -1.789483 4.648665 0
M  V30 44 H 4.998174 0.266791 3.210044 0
M  V30 45 H 2.035243 0.899251 -1.117051 0
M  V30 46 H 1.169644 2.317642 -2.847125 0
M  V30 47 H -0.228871 4.012038 -3.633873 0
M  V30 48 H -1.962465 5.694365 -3.208231 0
M  V30 49 H -2.863422 5.955624 -0.944257 0
M  V30 50 H -2.023455 4.515732 0.924215 0
M  V30 51 H -0.537908 2.723517 1.736164 0
M  V30 52 H -1.266270 0.525725 3.396913 0
M  V30 53 H -3.463243 -0.617980 3.487855 0
M  V30 54 H -3.128551 -4.201712 0.773002 0
M  V30 55 H -1.652110 -5.451439 -0.466454 0
M  V30 56 H 0.165308 -4.307469 1.094397 0
M  V30 57 H 0.508770 -5.477478 -0.164958 0
M  V30 58 H 1.897061 -4.073941 -1.210514 0
M  V30 59 H 1.599631 -2.925803 0.067381 0
M  V30 60 H 1.000166 -2.746399 -2.770599 0
M  V30 61 H 0.840025 -1.529357 -1.524153 0
M  V30 62 H -3.685939 -0.660330 -2.760270 0
M  V30 63 H -2.893843 1.460617 -3.740668 0
M  V30 64 H -1.128308 1.059525 -3.534187 0
M  V30 65 H -1.492125 0.781469 -1.060099 0
M  V30 66 H -3.263594 1.269882 -1.243448 0
M  V30 67 H -0.843137 -4.593586 -2.462674 0
M  V30 68 H -2.473047 -3.986451 -2.202839 0
M  V30 69 H 1.050046 -2.583534 3.637041 0
M  V30 END ATOM
M  V30 BEGIN BOND
M  V30 1 1 1 2
M  V30 2 1 2 3
M  V30 3 2 3 4
M  V30 4 1 4 5
M  V30 5 2 5 6
M  V30 6 1 6 7
M  V30 7 2 7 8
M  V30 8 1 8 9
M  V30 9 2 9 10
M  V30 10 1 10 11
M  V30 11 2 11 12
M  V30 12 1 12 13
M  V30 13 2 13 14
M  V30 14 1 14 15
M  V30 15 2 15 16
M  V30 16 1 16 17
M  V30 17 2 17 18
M  V30 18 1 8 19
M  V30 19 1 19 20
M  V30 20 2 20 21
M  V30 21 1 21 22
M  V30 22 2 22 23
M  V30 23 1 23 24
M  V30 24 1 24 25
M  V30 25 1 25 26
M  V30 26 1 26 27
M  V30 27 1 27 28
M  V30 28 1 28 29
M  V30 29 1 29 30
M  V30 30 1 30 31
M  V30 31 2 31 32
M  V30 32 1 31 33
M  V30 33 1 33 34
M  V30 34 1 34 35
M  V30 35 1 30 36
M  V30 36 2 24 37
M  V30 37 1 19 38
M  V30 38 2 38 39
M  V30 39 1 39 3
M  V30 40 1 38 6
M  V30 41 1 18 9
M  V30 42 1 37 20
M  V30 43 1 17 12
M  V30 44 1 36 26
M  V30 45 1 35 33
M  V30 46 1 1 40
M  V30 47 1 1 41
M  V30 48 1 1 42
M  V30 49 1 4 43
M  V30 50 1 5 44
M  V30 51 1 10 45
M  V30 52 1 11 46
M  V30 53 1 13 47
M  V30 54 1 14 48
M  V30 55 1 15 49
M  V30 56 1 16 50
M  V30 57 1 18 51
M  V30 58 1 21 52
M  V30 59 1 22 53
M  V30 60 1 25 54
M  V30 61 1 26 55 CFG=3
M  V30 62 1 27 56
M  V30 63 1 27 57
M  V30 64 1 28 58
M  V30 65 1 28 59
M  V30 66 1 29 60
M  V30 67 1 29 61
M  V30 68 1 33 62
M  V30 69 1 34 63
M  V30 70 1 34 64
M  V30 71 1 35 65
M  V30 72 1 35 66
M  V30 73 1 36 67
M  V30 74 1 36 68
M  V30 75 1 39 69
M  V30 END BOND
M  V30 END CTAB
M  END
>  <Dataset>  (10) 
ChEMBL_Kinases

>  <Ligand_Instance>  (10) 
nan

>  <PDB_ID>  (10) 
nan

>  <Standardized_SMILES>  (10) 
COc1ccc2nc(-c3ccc4ccccc4c3)n(-c3ccnc(N[C@@H]4CCCN(C(=O)C5CC5)C4)n3)c2c1

>  <Name>  (10) 
nan

>  <Pocket>  (10) 
nan

>  <ATP_Site>  (10) 
nan

>  <Peripheral>  (10) 
nan

>  <Num_H_Atoms_ProtBoundConf>  (10) 
nan

>  <Num_Resolved_Atoms>  (10) 
nan

>  <Num_Not_Resolved_Atoms>  (10) 
nan

$$$$
CHEMBL2335066
     RDKit          3D

  0  0  0  0  0  0  0  0  0  0999 V3000
M  V30 BEGIN CTAB
M  V30 COUNTS 69 75 0 0 0
M  V30 BEGIN ATOM
M  V30 1 C 3.371053 -0.664902 7.124857 0
M  V30 2 O 2.979026 0.363862 6.215104 0
M  V30 3 C 1.978973 0.088966 5.293335 0
M  V30 4 C 1.350610 -1.147893 5.227441 0
M  V30 5 C 0.352985 -1.396655 4.295588 0
M  V30 6 C 0.028516 -0.351611 3.449410 0
M  V30 7 C 0.613640 0.899505 3.462873 0
M  V30 8 C 1.599100 1.085556 4.412103 0
M  V30 9 N 0.010120 1.607475 2.485229 0
M  V30 10 C -0.922534 0.855603 1.864744 0
M  V30 11 C -1.723083 1.384505 0.766453 0
M  V30 12 C -3.057428 1.717333 0.934077 0
M  V30 13 C -3.850717 2.226332 -0.097282 0
M  V30 14 C -3.296236 2.411369 -1.342207 0
M  V30 15 C -4.062845 2.914307 -2.378923 0
M  V30 16 C -3.491091 3.093333 -3.620014 0
M  V30 17 C -2.157428 2.782744 -3.867951 0
M  V30 18 C -1.417382 2.281355 -2.809224 0
M  V30 19 C -1.962081 2.092780 -1.561375 0
M  V30 20 C -1.246037 1.599082 -0.505870 0
M  V30 21 N -0.900177 -0.364540 2.476725 0
M  V30 22 C -1.807143 -1.355336 1.998933 0
M  V30 23 C -3.032463 -1.425243 2.627364 0
M  V30 24 C -3.887202 -2.393930 2.141807 0
M  V30 25 N -3.571018 -3.221071 1.130884 0
M  V30 26 C -2.350126 -3.121742 0.534551 0
M  V30 27 N -1.816720 -3.886720 -0.538589 0
M  V30 28 C -0.504674 -3.741125 -1.138460 0 CFG=2
M  V30 29 C 0.546879 -3.965390 -0.130345 0
M  V30 30 C 1.409831 -2.813415 0.242199 0
M  V30 31 C 1.357187 -1.622498 -0.641594 0
M  V30 32 N 0.945792 -1.942259 -1.999955 0
M  V30 33 C 1.534752 -1.840682 -3.284595 0
M  V30 34 O 1.005753 -2.178626 -4.375465 0
M  V30 35 C 2.813130 -1.373694 -3.829727 0
M  V30 36 C 3.242355 -0.002941 -3.314310 0
M  V30 37 C 4.045871 -1.220762 -3.069605 0
M  V30 38 C -0.392611 -2.492832 -1.966900 0
M  V30 39 N -1.498388 -2.182970 0.991728 0
M  V30 40 H 4.243076 -0.322435 7.716269 0
M  V30 41 H 3.652884 -1.576582 6.585863 0
M  V30 42 H 2.531069 -0.841027 7.827458 0
M  V30 43 H 1.656590 -1.910810 5.918015 0
M  V30 44 H -0.142877 -2.352180 4.233402 0
M  V30 45 H 2.059600 2.080839 4.417412 0
M  V30 46 H -3.533208 1.588503 1.892642 0
M  V30 47 H -4.887820 2.483780 0.038162 0
M  V30 48 H -5.107790 3.177929 -2.259744 0
M  V30 49 H -4.015508 3.477325 -4.474069 0
M  V30 50 H -1.707773 2.928188 -4.860310 0
M  V30 51 H -0.368850 2.034895 -2.994873 0
M  V30 52 H -0.210583 1.363902 -0.719261 0
M  V30 53 H -3.342397 -0.790941 3.441043 0
M  V30 54 H -4.873952 -2.540475 2.557188 0
M  V30 55 H -2.543863 -4.601007 -0.843832 0
M  V30 56 H -0.457182 -4.584450 -1.891891 0
M  V30 57 H 0.055450 -4.302810 0.832869 0
M  V30 58 H 1.167694 -4.860470 -0.408495 0
M  V30 59 H 1.267599 -2.453558 1.293833 0
M  V30 60 H 2.480368 -3.173412 0.244989 0
M  V30 61 H 0.610459 -0.852326 -0.295277 0
M  V30 62 H 2.328438 -1.088778 -0.592646 0
M  V30 63 H 2.891039 -1.460748 -4.933661 0
M  V30 64 H 3.596610 0.757330 -4.033267 0
M  V30 65 H 2.695763 0.437798 -2.452586 0
M  V30 66 H 5.007253 -1.274447 -3.654468 0
M  V30 67 H 4.196118 -1.518441 -2.029431 0
M  V30 68 H -1.041271 -1.712808 -1.474145 0
M  V30 69 H -0.836289 -2.615831 -2.979875 0
M  V30 END ATOM
M  V30 BEGIN BOND
M  V30 1 1 1 2
M  V30 2 1 2 3
M  V30 3 2 3 4
M  V30 4 1 4 5
M  V30 5 2 5 6
M  V30 6 1 6 7
M  V30 7 2 7 8
M  V30 8 1 7 9
M  V30 9 2 9 10
M  V30 10 1 10 11
M  V30 11 2 11 12
M  V30 12 1 12 13
M  V30 13 2 13 14
M  V30 14 1 14 15
M  V30 15 2 15 16
M  V30 16 1 16 17
M  V30 17 2 17 18
M  V30 18 1 18 19
M  V30 19 2 19 20
M  V30 20 1 10 21
M  V30 21 1 21 22
M  V30 22 2 22 23
M  V30 23 1 23 24
M  V30 24 2 24 25
M  V30 25 1 25 26
M  V30 26 1 26 27
M  V30 27 1 27 28
M  V30 28 1 28 29
M  V30 29 1 29 30
M  V30 30 1 30 31
M  V30 31 1 31 32
M  V30 32 1 32 33
M  V30 33 2 33 34
M  V30 34 1 33 35
M  V30 35 1 35 36
M  V30 36 1 36 37
M  V30 37 1 32 38
M  V30 38 2 26 39
M  V30 39 1 8 3
M  V30 40 1 20 11
M  V30 41 1 39 22
M  V30 42 1 21 6
M  V30 43 1 38 28
M  V30 44 1 19 14
M  V30 45 1 37 35
M  V30 46 1 1 40
M  V30 47 1 1 41
M  V30 48 1 1 42
M  V30 49 1 4 43
M  V30 50 1 5 44
M  V30 51 1 8 45
M  V30 52 1 12 46
M  V30 53 1 13 47
M  V30 54 1 15 48
M  V30 55 1 16 49
M  V30 56 1 17 50
M  V30 57 1 18 51
M  V30 58 1 20 52
M  V30 59 1 23 53
M  V30 60 1 24 54
M  V30 61 1 27 55
M  V30 62 1 28 56 CFG=3
M  V30 63 1 29 57
M  V30 64 1 29 58
M  V30 65 1 30 59
M  V30 66 1 30 60
M  V30 67 1 31 61
M  V30 68 1 31 62
M  V30 69 1 35 63
M  V30 70 1 36 64
M  V30 71 1 36 65
M  V30 72 1 37 66
M  V30 73 1 37 67
M  V30 74 1 38 68
M  V30 75 1 38 69
M  V30 END BOND
M  V30 END CTAB
M  END
>  <Dataset>  (11) 
ChEMBL_Kinases

>  <Ligand_Instance>  (11) 
nan

>  <PDB_ID>  (11) 
nan

>  <Standardized_SMILES>  (11) 
COc1ccc2c(c1)nc(-c1ccc3ccccc3c1)n2-c1ccnc(N[C@@H]2CCCN(C(=O)C3CC3)C2)n1

>  <Name>  (11) 
nan

>  <Pocket>  (11) 
nan

>  <ATP_Site>  (11) 
nan

>  <Peripheral>  (11) 
nan

>  <Num_H_Atoms_ProtBoundConf>  (11) 
nan

>  <Num_Resolved_Atoms>  (11) 
nan

>  <Num_Not_Resolved_Atoms>  (11) 
nan

$$$$
CHEMBL2335065
     RDKit          3D

  0  0  0  0  0  0  0  0  0  0999 V3000
M  V30 BEGIN CTAB
M  V30 COUNTS 65 71 0 0 0
M  V30 BEGIN ATOM
M  V30 1 O 4.984113 -1.071750 4.718686 0
M  V30 2 C 4.626777 -0.374812 3.727306 0
M  V30 3 C 5.695764 0.341938 2.992195 0
M  V30 4 C 7.061493 -0.315189 2.987096 0
M  V30 5 C 6.803851 0.949542 3.795886 0
M  V30 6 N 3.241272 -0.421523 3.514875 0
M  V30 7 C 2.480370 -1.235591 4.441216 0
M  V30 8 C 1.432741 -2.006044 3.718081 0
M  V30 9 C 1.591108 -2.124008 2.243230 0
M  V30 10 C 2.066171 -0.905877 1.531038 0 CFG=1
M  V30 11 N 1.234877 -0.480997 0.440803 0
M  V30 12 C -0.125386 -0.122259 0.653944 0
M  V30 13 N -0.675129 -0.168523 1.883581 0
M  V30 14 C -1.953561 0.163652 2.106780 0
M  V30 15 C -2.779275 0.574090 1.076850 0
M  V30 16 C -2.222753 0.624429 -0.188685 0
M  V30 17 N -3.079435 1.045909 -1.229254 0
M  V30 18 C -3.300541 0.413160 -2.392591 0
M  V30 19 C -2.692590 -0.840651 -2.804825 0
M  V30 20 C -1.991844 -1.157196 -3.950575 0
M  V30 21 C -1.511540 -2.421039 -4.114562 0
M  V30 22 C -1.705012 -3.394230 -3.169059 0
M  V30 23 C -1.193900 -4.661532 -3.390050 0
M  V30 24 C -1.365456 -5.687405 -2.455148 0
M  V30 25 C -2.060816 -5.386289 -1.310321 0
M  V30 26 C -2.572790 -4.120127 -1.086974 0
M  V30 27 C -2.399011 -3.120089 -2.010940 0
M  V30 28 C -2.890655 -1.831378 -1.839932 0
M  V30 29 N -4.180869 1.137949 -3.109089 0
M  V30 30 C -4.536770 2.228136 -2.436730 0
M  V30 31 C -5.391334 3.310620 -2.673803 0
M  V30 32 C -5.492805 4.278948 -1.686900 0
M  V30 33 C -4.805766 4.231882 -0.501499 0
M  V30 34 C -3.954727 3.168406 -0.248216 0
M  V30 35 C -3.837527 2.179897 -1.230784 0
M  V30 36 N -0.940721 0.276737 -0.325586 0
M  V30 37 C 2.414551 0.221906 2.499406 0
M  V30 38 H 5.402418 0.965344 2.112439 0
M  V30 39 H 7.160885 -1.275172 3.541860 0
M  V30 40 H 7.636924 -0.212846 2.051986 0
M  V30 41 H 6.708180 0.833715 4.905621 0
M  V30 42 H 7.334050 1.833590 3.432658 0
M  V30 43 H 2.034704 -0.486463 5.162004 0
M  V30 44 H 3.119812 -1.870912 5.099523 0
M  V30 45 H 0.445342 -1.590756 4.012085 0
M  V30 46 H 1.441111 -3.064932 4.113638 0
M  V30 47 H 2.162153 -3.040017 1.979923 0
M  V30 48 H 0.556409 -2.326866 1.836046 0
M  V30 49 H 3.063702 -1.183309 1.078309 0
M  V30 50 H 1.580915 -0.412370 -0.562776 0
M  V30 51 H -2.336236 0.105603 3.119747 0
M  V30 52 H -3.807189 0.833619 1.300009 0
M  V30 53 H -1.904433 -0.297083 -4.627635 0
M  V30 54 H -0.975868 -2.591536 -5.032601 0
M  V30 55 H -0.647084 -4.915829 -4.280633 0
M  V30 56 H -0.978723 -6.688627 -2.597265 0
M  V30 57 H -2.218454 -6.148069 -0.559610 0
M  V30 58 H -3.119183 -3.900318 -0.177794 0
M  V30 59 H -3.426591 -1.713842 -0.889293 0
M  V30 60 H -5.936994 3.370033 -3.588092 0
M  V30 61 H -6.142207 5.108880 -1.858093 0
M  V30 62 H -4.934765 5.023896 0.222845 0
M  V30 63 H -3.409806 3.111560 0.666972 0
M  V30 64 H 3.019833 0.995549 1.981016 0
M  V30 65 H 1.517154 0.628657 2.986457 0
M  V30 END ATOM
M  V30 BEGIN BOND
M  V30 1 2 1 2
M  V30 2 1 2 3
M  V30 3 1 3 4
M  V30 4 1 4 5
M  V30 5 1 2 6
M  V30 6 1 6 7
M  V30 7 1 7 8
M  V30 8 1 8 9
M  V30 9 1 9 10
M  V30 10 1 10 11
M  V30 11 1 11 12
M  V30 12 2 12 13
M  V30 13 1 13 14
M  V30 14 2 14 15
M  V30 15 1 15 16
M  V30 16 1 16 17
M  V30 17 1 17 18
M  V30 18 1 18 19
M  V30 19 2 19 20
M  V30 20 1 20 21
M  V30 21 2 21 22
M  V30 22 1 22 23
M  V30 23 2 23 24
M  V30 24 1 24 25
M  V30 25 2 25 26
M  V30 26 1 26 27
M  V30 27 2 27 28
M  V30 28 2 18 29
M  V30 29 1 29 30
M  V30 30 2 30 31
M  V30 31 1 31 32
M  V30 32 2 32 33
M  V30 33 1 33 34
M  V30 34 2 34 35
M  V30 35 2 16 36
M  V30 36 1 10 37
M  V30 37 1 5 3
M  V30 38 1 37 6
M  V30 39 1 36 12
M  V30 40 1 35 17
M  V30 41 1 28 19
M  V30 42 1 35 30
M  V30 43 1 27 22
M  V30 44 1 3 38
M  V30 45 1 4 39
M  V30 46 1 4 40
M  V30 47 1 5 41
M  V30 48 1 5 42
M  V30 49 1 7 43
M  V30 50 1 7 44
M  V30 51 1 8 45
M  V30 52 1 8 46
M  V30 53 1 9 47
M  V30 54 1 9 48
M  V30 55 1 10 49 CFG=3
M  V30 56 1 11 50
M  V30 57 1 14 51
M  V30 58 1 15 52
M  V30 59 1 20 53
M  V30 60 1 21 54
M  V30 61 1 23 55
M  V30 62 1 24 56
M  V30 63 1 25 57
M  V30 64 1 26 58
M  V30 65 1 28 59
M  V30 66 1 31 60
M  V30 67 1 32 61
M  V30 68 1 33 62
M  V30 69 1 34 63
M  V30 70 1 37 64
M  V30 71 1 37 65
M  V30 END BOND
M  V30 END CTAB
M  END
>  <Dataset>  (12) 
ChEMBL_Kinases

>  <Ligand_Instance>  (12) 
nan

>  <PDB_ID>  (12) 
nan

>  <Standardized_SMILES>  (12) 
O=C(C1CC1)N1CCC[C@@H](Nc2nccc(-n3c(-c4ccc5ccccc5c4)nc4ccccc43)n2)C1

>  <Name>  (12) 
nan

>  <Pocket>  (12) 
nan

>  <ATP_Site>  (12) 
nan

>  <Peripheral>  (12) 
nan

>  <Num_H_Atoms_ProtBoundConf>  (12) 
nan

>  <Num_Resolved_Atoms>  (12) 
nan

>  <Num_Not_Resolved_Atoms>  (12) 
nan

$$$$
CHEMBL2335064
     RDKit          3D

  0  0  0  0  0  0  0  0  0  0999 V3000
M  V30 BEGIN CTAB
M  V30 COUNTS 56 61 0 0 0
M  V30 BEGIN ATOM
M  V30 1 C 2.155657 -2.654091 -4.695826 0
M  V30 2 C 2.314546 -3.416464 -3.550466 0
M  V30 3 C 2.351018 -2.787322 -2.301090 0
M  V30 4 C 2.227374 -1.403166 -2.222186 0
M  V30 5 C 2.264708 -0.785040 -0.974944 0
M  V30 6 C 2.143295 0.591116 -0.876543 0
M  V30 7 C 2.176831 1.293174 0.423909 0
M  V30 8 N 3.006252 2.331272 0.560376 0
M  V30 9 C 2.896131 2.844523 1.819509 0
M  V30 10 C 3.468554 3.884382 2.548145 0
M  V30 11 C 3.096319 4.117529 3.858215 0
M  V30 12 C 2.143791 3.307579 4.451332 0
M  V30 13 C 1.544475 2.257772 3.764783 0
M  V30 14 C 1.947928 2.063339 2.459142 0
M  V30 15 N 1.517647 1.119601 1.593444 0
M  V30 16 C 0.569662 0.069249 1.704551 0
M  V30 17 C 0.842559 -1.105343 2.375144 0
M  V30 18 C -0.151226 -2.060374 2.422139 0
M  V30 19 N -1.328493 -1.827909 1.829052 0
M  V30 20 C -1.620997 -0.692638 1.169127 0
M  V30 21 N -2.880240 -0.468220 0.546260 0
M  V30 22 C -3.889978 -1.504336 0.625292 0 CFG=2
M  V30 23 C -4.291113 -1.848030 2.020638 0
M  V30 24 C -4.232313 -3.306658 2.334022 0
M  V30 25 C -4.645008 -4.220661 1.234380 0
M  V30 26 N -4.307530 -3.815470 -0.086961 0
M  V30 27 C -3.430975 -2.696289 -0.182082 0
M  V30 28 N -0.633291 0.209153 1.144966 0
M  V30 29 C 1.983870 1.333904 -2.052978 0
M  V30 30 C 1.946567 0.721981 -3.292182 0
M  V30 31 C 2.069242 -0.650362 -3.369358 0
M  V30 32 C 2.033348 -1.281366 -4.613433 0
M  V30 33 H 2.131355 -3.180101 -5.659282 0
M  V30 34 H 2.415113 -4.504528 -3.568364 0
M  V30 35 H 2.475865 -3.383755 -1.397924 0
M  V30 36 H 2.387784 -1.364178 -0.073774 0
M  V30 37 H 4.194680 4.462089 2.018070 0
M  V30 38 H 3.560361 4.937116 4.403010 0
M  V30 39 H 1.824609 3.456673 5.474990 0
M  V30 40 H 0.788926 1.610586 4.225952 0
M  V30 41 H 1.806570 -1.256410 2.842112 0
M  V30 42 H 0.013356 -2.995063 2.934213 0
M  V30 43 H -3.016673 0.439404 0.058589 0
M  V30 44 H -4.802602 -1.081673 0.127071 0
M  V30 45 H -5.296844 -1.430770 2.299296 0
M  V30 46 H -3.597069 -1.340671 2.752115 0
M  V30 47 H -4.954815 -3.475611 3.185982 0
M  V30 48 H -3.248590 -3.628763 2.782872 0
M  V30 49 H -4.232837 -5.238927 1.495859 0
M  V30 50 H -5.761170 -4.391734 1.262722 0
M  V30 51 H -5.124836 -3.755649 -0.730165 0
M  V30 52 H -2.392999 -2.953953 0.022641 0
M  V30 53 H -3.452252 -2.375427 -1.259827 0
M  V30 54 H 1.886619 2.416269 -1.998631 0
M  V30 55 H 1.821595 1.312102 -4.204769 0
M  V30 56 H 1.908752 -0.703725 -5.536289 0
M  V30 END ATOM
M  V30 BEGIN BOND
M  V30 1 2 1 2
M  V30 2 1 2 3
M  V30 3 2 3 4
M  V30 4 1 4 5
M  V30 5 2 5 6
M  V30 6 1 6 7
M  V30 7 2 7 8
M  V30 8 1 8 9
M  V30 9 2 9 10
M  V30 10 1 10 11
M  V30 11 2 11 12
M  V30 12 1 12 13
M  V30 13 2 13 14
M  V30 14 1 14 15
M  V30 15 1 15 16
M  V30 16 2 16 17
M  V30 17 1 17 18
M  V30 18 2 18 19
M  V30 19 1 19 20
M  V30 20 1 20 21
M  V30 21 1 21 22
M  V30 22 1 22 23
M  V30 23 1 23 24
M  V30 24 1 24 25
M  V30 25 1 25 26
M  V30 26 1 26 27
M  V30 27 2 20 28
M  V30 28 1 6 29
M  V30 29 2 29 30
M  V30 30 1 30 31
M  V30 31 2 31 32
M  V30 32 1 32 1
M  V30 33 1 31 4
M  V30 34 1 15 7
M  V30 35 1 28 16
M  V30 36 1 14 9
M  V30 37 1 27 22
M  V30 38 1 1 33
M  V30 39 1 2 34
M  V30 40 1 3 35
M  V30 41 1 5 36
M  V30 42 1 10 37
M  V30 43 1 11 38
M  V30 44 1 12 39
M  V30 45 1 13 40
M  V30 46 1 17 41
M  V30 47 1 18 42
M  V30 48 1 21 43
M  V30 49 1 22 44 CFG=3
M  V30 50 1 23 45
M  V30 51 1 23 46
M  V30 52 1 24 47
M  V30 53 1 24 48
M  V30 54 1 25 49
M  V30 55 1 25 50
M  V30 56 1 26 51
M  V30 57 1 27 52
M  V30 58 1 27 53
M  V30 59 1 29 54
M  V30 60 1 30 55
M  V30 61 1 32 56
M  V30 END BOND
M  V30 END CTAB
M  END
>  <Dataset>  (13) 
ChEMBL_Kinases

>  <Ligand_Instance>  (13) 
nan

>  <PDB_ID>  (13) 
nan

>  <Standardized_SMILES>  (13) 
c1ccc2cc(-c3nc4ccccc4n3-c3ccnc(N[C@@H]4CCCNC4)n3)ccc2c1

>  <Name>  (13) 
nan

>  <Pocket>  (13) 
nan

>  <ATP_Site>  (13) 
nan

>  <Peripheral>  (13) 
nan

>  <Num_H_Atoms_ProtBoundConf>  (13) 
nan

>  <Num_Resolved_Atoms>  (13) 
nan

>  <Num_Not_Resolved_Atoms>  (13) 
nan

$$$$
CHEMBL2334971
     RDKit          3D

  0  0  0  0  0  0  0  0  0  0999 V3000
M  V30 BEGIN CTAB
M  V30 COUNTS 31 33 0 0 0
M  V30 BEGIN ATOM
M  V30 1 C -1.987848 -0.614042 4.058947 0
M  V30 2 C -1.338971 -1.458994 3.014283 0
M  V30 3 C -1.497005 -2.823541 3.096961 0
M  V30 4 C -0.890801 -3.595778 2.122896 0
M  V30 5 C -0.165841 -2.977138 1.126671 0
M  V30 6 N 0.496793 -3.535129 0.093216 0
M  V30 7 C 1.062556 -2.544400 -0.628698 0
M  V30 8 C 1.890655 -2.635241 -1.853879 0
M  V30 9 C 0.755923 -1.332723 -0.046186 0
M  V30 10 C 1.082903 0.049456 -0.374876 0
M  V30 11 C 2.320015 0.535856 -0.743270 0
M  V30 12 C 2.522419 1.861221 -1.033412 0
M  V30 13 N 1.471710 2.707625 -0.952929 0
M  V30 14 C 0.237668 2.254934 -0.591446 0
M  V30 15 N -0.819944 3.208335 -0.529144 0
M  V30 16 N 0.069760 0.950113 -0.312864 0
M  V30 17 N -0.005439 -1.642250 1.037275 0
M  V30 18 C -0.601388 -0.879483 1.995254 0
M  V30 19 H -1.816247 -1.080343 5.043162 0
M  V30 20 H -3.072884 -0.599129 3.841587 0
M  V30 21 H -1.592133 0.417984 3.998059 0
M  V30 22 H -2.062132 -3.300450 3.874124 0
M  V30 23 H -1.003225 -4.670073 2.170380 0
M  V30 24 H 1.868585 -3.704205 -2.175417 0
M  V30 25 H 1.414277 -2.056671 -2.697192 0
M  V30 26 H 2.940788 -2.383072 -1.721931 0
M  V30 27 H 3.113935 -0.178035 -0.790364 0
M  V30 28 H 3.527086 2.170617 -1.316785 0
M  V30 29 H -0.655599 3.641132 0.421546 0
M  V30 30 H -1.606935 3.495888 -1.180220 0
M  V30 31 H -0.504046 0.193225 1.969716 0
M  V30 END ATOM
M  V30 BEGIN BOND
M  V30 1 1 1 2
M  V30 2 1 2 3
M  V30 3 2 3 4
M  V30 4 1 4 5
M  V30 5 2 5 6
M  V30 6 1 6 7
M  V30 7 1 7 8
M  V30 8 2 7 9
M  V30 9 1 9 10
M  V30 10 2 10 11
M  V30 11 1 11 12
M  V30 12 2 12 13
M  V30 13 1 13 14
M  V30 14 1 14 15
M  V30 15 2 14 16
M  V30 16 1 9 17
M  V30 17 1 17 18
M  V30 18 2 18 2
M  V30 19 1 17 5
M  V30 20 1 16 10
M  V30 21 1 1 19
M  V30 22 1 1 20
M  V30 23 1 1 21
M  V30 24 1 3 22
M  V30 25 1 4 23
M  V30 26 1 8 24
M  V30 27 1 8 25
M  V30 28 1 8 26
M  V30 29 1 11 27
M  V30 30 1 12 28
M  V30 31 1 15 29
M  V30 32 1 15 30
M  V30 33 1 18 31
M  V30 END BOND
M  V30 END CTAB
M  END
>  <Dataset>  (14) 
ChEMBL_Kinases

>  <Ligand_Instance>  (14) 
nan

>  <PDB_ID>  (14) 
nan

>  <Standardized_SMILES>  (14) 
Cc1ccc2nc(C)c(-c3ccnc(N)n3)n2c1

>  <Name>  (14) 
nan

>  <Pocket>  (14) 
nan

>  <ATP_Site>  (14) 
nan

>  <Peripheral>  (14) 
nan

>  <Num_H_Atoms_ProtBoundConf>  (14) 
nan

>  <Num_Resolved_Atoms>  (14) 
nan

>  <Num_Not_Resolved_Atoms>  (14) 
nan

$$$$
CHEMBL2334970
     RDKit          3D

  0  0  0  0  0  0  0  0  0  0999 V3000
M  V30 BEGIN CTAB
M  V30 COUNTS 27 29 0 0 0
M  V30 BEGIN ATOM
M  V30 1 N -2.480511 -4.479045 2.024220 0
M  V30 2 C -1.675187 -3.683993 2.240449 0
M  V30 3 C -0.648656 -2.705019 2.516269 0
M  V30 4 C 0.061364 -2.678316 3.714374 0
M  V30 5 C 1.034371 -1.700999 3.899339 0
M  V30 6 C 1.260974 -0.782722 2.872764 0
M  V30 7 N 2.145966 0.251685 2.815679 0
M  V30 8 C 2.015497 0.876207 1.620733 0
M  V30 9 C 1.030066 0.224288 0.910119 0
M  V30 10 C 0.546631 0.543571 -0.428380 0
M  V30 11 C 1.070537 1.597557 -1.146263 0
M  V30 12 C 0.653389 1.944229 -2.411488 0
M  V30 13 N -0.333937 1.176249 -2.945644 0
M  V30 14 C -0.876730 0.138107 -2.285270 0
M  V30 15 N -1.908234 -0.642632 -2.876829 0
M  V30 16 N -0.422541 -0.143387 -1.056335 0
M  V30 17 C 0.555272 -0.811746 1.685788 0
M  V30 18 C -0.403000 -1.778034 1.509465 0
M  V30 19 H -0.164236 -3.422240 4.472647 0
M  V30 20 H 1.593262 -1.676623 4.837218 0
M  V30 21 H 2.844477 0.566159 3.548017 0
M  V30 22 H 2.538011 1.734519 1.203617 0
M  V30 23 H 1.869011 2.212203 -0.704313 0
M  V30 24 H 1.065349 2.770976 -2.972797 0
M  V30 25 H -2.370837 -1.387309 -2.311242 0
M  V30 26 H -2.216568 -0.501287 -3.842800 0
M  V30 27 H -0.938080 -1.786762 0.588897 0
M  V30 END ATOM
M  V30 BEGIN BOND
M  V30 1 3 1 2
M  V30 2 1 2 3
M  V30 3 2 3 4
M  V30 4 1 4 5
M  V30 5 2 5 6
M  V30 6 1 6 7
M  V30 7 1 7 8
M  V30 8 2 8 9
M  V30 9 1 9 10
M  V30 10 2 10 11
M  V30 11 1 11 12
M  V30 12 2 12 13
M  V30 13 1 13 14
M  V30 14 1 14 15
M  V30 15 2 14 16
M  V30 16 1 9 17
M  V30 17 2 17 18
M  V30 18 1 18 3
M  V30 19 1 17 6
M  V30 20 1 16 10
M  V30 21 1 4 19
M  V30 22 1 5 20
M  V30 23 1 7 21
M  V30 24 1 8 22
M  V30 25 1 11 23
M  V30 26 1 12 24
M  V30 27 1 15 25
M  V30 28 1 15 26
M  V30 29 1 18 27
M  V30 END BOND
M  V30 END CTAB
M  END
>  <Dataset>  (15) 
ChEMBL_Kinases

>  <Ligand_Instance>  (15) 
nan

>  <PDB_ID>  (15) 
nan

>  <Standardized_SMILES>  (15) 
N#Cc1ccc2[nH]cc(-c3ccnc(N)n3)c2c1

>  <Name>  (15) 
nan

>  <Pocket>  (15) 
nan

>  <ATP_Site>  (15) 
nan

>  <Peripheral>  (15) 
nan

>  <Num_H_Atoms_ProtBoundConf>  (15) 
nan

>  <Num_Resolved_Atoms>  (15) 
nan

>  <Num_Not_Resolved_Atoms>  (15) 
nan

$$$$
CHEMBL2334969
     RDKit          3D

  0  0  0  0  0  0  0  0  0  0999 V3000
M  V30 BEGIN CTAB
M  V30 COUNTS 30 32 0 0 0
M  V30 BEGIN ATOM
M  V30 1 C -2.911484 -3.450869 0.456980 0
M  V30 2 O -1.852812 -4.127085 1.148145 0
M  V30 3 C -0.661193 -3.454405 1.387657 0
M  V30 4 C 0.300247 -4.204289 2.066384 0
M  V30 5 C 1.500122 -3.575282 2.325840 0
M  V30 6 C 1.744812 -2.275808 1.938841 0
M  V30 7 N 2.758252 -1.412665 2.038294 0
M  V30 8 C 2.451535 -0.236250 1.472194 0
M  V30 9 C 1.153187 -0.281102 0.948850 0
M  V30 10 C 0.599491 0.874646 0.294413 0
M  V30 11 C -0.581524 1.035971 -0.362381 0
M  V30 12 C -1.071141 2.158622 -0.985220 0
M  V30 13 N -0.254478 3.235396 -0.926026 0
M  V30 14 C 0.939980 3.145133 -0.286384 0
M  V30 15 N 1.848106 4.261318 -0.193579 0
M  V30 16 N 1.325153 2.000549 0.290556 0
M  V30 17 C 0.781565 -1.558416 1.271191 0
M  V30 18 C -0.413343 -2.172935 1.008732 0
M  V30 19 H -2.693715 -3.282051 -0.605099 0
M  V30 20 H -3.868405 -3.976606 0.576529 0
M  V30 21 H -3.047319 -2.447713 0.951634 0
M  V30 22 H 0.193090 -5.215890 2.401966 0
M  V30 23 H 2.290799 -4.109258 2.853069 0
M  V30 24 H 3.650844 -1.701134 2.516638 0
M  V30 25 H 3.225316 0.549267 1.501066 0
M  V30 26 H -1.248231 0.204360 -0.436286 0
M  V30 27 H -2.018534 2.183049 -1.477043 0
M  V30 28 H 2.723433 4.596962 -0.660480 0
M  V30 29 H 1.540169 4.919910 0.554394 0
M  V30 30 H -1.201047 -1.700567 0.512028 0
M  V30 END ATOM
M  V30 BEGIN BOND
M  V30 1 1 1 2
M  V30 2 1 2 3
M  V30 3 2 3 4
M  V30 4 1 4 5
M  V30 5 2 5 6
M  V30 6 1 6 7
M  V30 7 1 7 8
M  V30 8 2 8 9
M  V30 9 1 9 10
M  V30 10 2 10 11
M  V30 11 1 11 12
M  V30 12 2 12 13
M  V30 13 1 13 14
M  V30 14 1 14 15
M  V30 15 2 14 16
M  V30 16 1 9 17
M  V30 17 2 17 18
M  V30 18 1 18 3
M  V30 19 1 17 6
M  V30 20 1 16 10
M  V30 21 1 1 19
M  V30 22 1 1 20
M  V30 23 1 1 21
M  V30 24 1 4 22
M  V30 25 1 5 23
M  V30 26 1 7 24
M  V30 27 1 8 25
M  V30 28 1 11 26
M  V30 29 1 12 27
M  V30 30 1 15 28
M  V30 31 1 15 29
M  V30 32 1 18 30
M  V30 END BOND
M  V30 END CTAB
M  END
>  <Dataset>  (16) 
ChEMBL_Kinases

>  <Ligand_Instance>  (16) 
nan

>  <PDB_ID>  (16) 
nan

>  <Standardized_SMILES>  (16) 
COc1ccc2[nH]cc(-c3ccnc(N)n3)c2c1

>  <Name>  (16) 
nan

>  <Pocket>  (16) 
nan

>  <ATP_Site>  (16) 
nan

>  <Peripheral>  (16) 
nan

>  <Num_H_Atoms_ProtBoundConf>  (16) 
nan

>  <Num_Resolved_Atoms>  (16) 
nan

>  <Num_Not_Resolved_Atoms>  (16) 
nan

$$$$
CHEMBL2334968
     RDKit          3D

  0  0  0  0  0  0  0  0  0  0999 V3000
M  V30 BEGIN CTAB
M  V30 COUNTS 26 28 0 0 0
M  V30 BEGIN ATOM
M  V30 1 N 0.330230 -4.625294 2.884255 0
M  V30 2 C -0.272004 -3.339090 2.731558 0
M  V30 3 N -1.292727 -2.918050 3.500241 0
M  V30 4 C -1.824877 -1.673478 3.302122 0
M  V30 5 C -1.251136 -0.949014 2.308614 0
M  V30 6 C -0.220544 -1.296149 1.487447 0
M  V30 7 C 0.422476 -0.580685 0.416394 0
M  V30 8 C 1.412636 -1.213254 -0.347715 0
M  V30 9 N 1.871042 -0.360109 -1.277530 0
M  V30 10 C 1.254187 0.828060 -1.200129 0
M  V30 11 C 1.313481 2.034371 -1.865835 0
M  V30 12 C 0.512993 3.102344 -1.521175 0
M  V30 13 C -0.356517 2.903452 -0.469811 0
M  V30 14 F -1.141549 3.960274 -0.136129 0
M  V30 15 C -0.419105 1.703437 0.196163 0
M  V30 16 C 0.381144 0.648732 -0.155574 0
M  V30 17 N 0.213048 -2.533519 1.778973 0
M  V30 18 H 0.718518 -4.646408 3.842920 0
M  V30 19 H 0.444080 -5.467650 2.275312 0
M  V30 20 H -2.639493 -1.314806 3.902203 0
M  V30 21 H -1.693701 0.001721 2.181651 0
M  V30 22 H 1.850867 -2.222038 -0.319767 0
M  V30 23 H 2.613693 -0.530876 -2.003936 0
M  V30 24 H 2.036810 2.069624 -2.675450 0
M  V30 25 H 0.637191 4.006372 -2.107554 0
M  V30 26 H -1.124784 1.675102 0.990896 0
M  V30 END ATOM
M  V30 BEGIN BOND
M  V30 1 1 1 2
M  V30 2 2 2 3
M  V30 3 1 3 4
M  V30 4 2 4 5
M  V30 5 1 5 6
M  V30 6 1 6 7
M  V30 7 2 7 8
M  V30 8 1 8 9
M  V30 9 1 9 10
M  V30 10 2 10 11
M  V30 11 1 11 12
M  V30 12 2 12 13
M  V30 13 1 13 14
M  V30 14 1 13 15
M  V30 15 2 15 16
M  V30 16 2 6 17
M  V30 17 1 17 2
M  V30 18 1 16 7
M  V30 19 1 16 10
M  V30 20 1 1 18
M  V30 21 1 1 19
M  V30 22 1 4 20
M  V30 23 1 5 21
M  V30 24 1 8 22
M  V30 25 1 9 23
M  V30 26 1 11 24
M  V30 27 1 12 25
M  V30 28 1 15 26
M  V30 END BOND
M  V30 END CTAB
M  END
>  <Dataset>  (17) 
ChEMBL_Kinases

>  <Ligand_Instance>  (17) 
nan

>  <PDB_ID>  (17) 
nan

>  <Standardized_SMILES>  (17) 
Nc1nccc(-c2c[nH]c3ccc(F)cc23)n1

>  <Name>  (17) 
nan

>  <Pocket>  (17) 
nan

>  <ATP_Site>  (17) 
nan

>  <Peripheral>  (17) 
nan

>  <Num_H_Atoms_ProtBoundConf>  (17) 
nan

>  <Num_Resolved_Atoms>  (17) 
nan

>  <Num_Not_Resolved_Atoms>  (17) 
nan

$$$$
CHEMBL2334967
     RDKit          3D

  0  0  0  0  0  0  0  0  0  0999 V3000
M  V30 BEGIN CTAB
M  V30 COUNTS 28 30 0 0 0
M  V30 BEGIN ATOM
M  V30 1 N -1.711063 -3.369687 4.158741 0
M  V30 2 C -0.815928 -2.351072 3.723787 0
M  V30 3 N -0.045359 -1.707038 4.620443 0
M  V30 4 C 0.811817 -0.732513 4.207638 0
M  V30 5 C 0.871219 -0.424672 2.866045 0
M  V30 6 C 0.096743 -1.066859 1.939636 0
M  V30 7 N 0.006531 -0.888016 0.530424 0
M  V30 8 C -0.649437 -1.737013 -0.483179 0
M  V30 9 C 0.492884 -1.781757 -1.501455 0
M  V30 10 C 0.857901 -0.327450 -1.515191 0
M  V30 11 C 1.396605 0.521243 -2.460848 0
M  V30 12 C 1.598760 1.853611 -2.118736 0
M  V30 13 C 1.288468 2.385447 -0.872657 0
M  V30 14 Br 1.588624 4.222278 -0.462513 0
M  V30 15 C 0.742088 1.527547 0.088624 0
M  V30 16 C 0.540843 0.195672 -0.254675 0
M  V30 17 N -0.740536 -2.034283 2.426258 0
M  V30 18 H -1.505457 -4.282400 4.574791 0
M  V30 19 H -2.749656 -3.458491 4.171580 0
M  V30 20 H 1.473719 -0.156885 4.855259 0
M  V30 21 H 1.513176 0.312450 2.460272 0
M  V30 22 H -0.906826 -2.725089 -0.109160 0
M  V30 23 H -1.545822 -1.232817 -0.891045 0
M  V30 24 H 0.166141 -2.111004 -2.497729 0
M  V30 25 H 1.270508 -2.426649 -1.090992 0
M  V30 26 H 1.652053 0.147656 -3.442745 0
M  V30 27 H 2.024844 2.492116 -2.889002 0
M  V30 28 H 0.482763 1.902689 1.069038 0
M  V30 END ATOM
M  V30 BEGIN BOND
M  V30 1 1 1 2
M  V30 2 2 2 3
M  V30 3 1 3 4
M  V30 4 2 4 5
M  V30 5 1 5 6
M  V30 6 1 6 7
M  V30 7 1 7 8
M  V30 8 1 8 9
M  V30 9 1 9 10
M  V30 10 2 10 11
M  V30 11 1 11 12
M  V30 12 2 12 13
M  V30 13 1 13 14
M  V30 14 1 13 15
M  V30 15 2 15 16
M  V30 16 2 6 17
M  V30 17 1 17 2
M  V30 18 1 16 7
M  V30 19 1 16 10
M  V30 20 1 1 18
M  V30 21 1 1 19
M  V30 22 1 4 20
M  V30 23 1 5 21
M  V30 24 1 8 22
M  V30 25 1 8 23
M  V30 26 1 9 24
M  V30 27 1 9 25
M  V30 28 1 11 26
M  V30 29 1 12 27
M  V30 30 1 15 28
M  V30 END BOND
M  V30 END CTAB
M  END
>  <Dataset>  (18) 
ChEMBL_Kinases

>  <Ligand_Instance>  (18) 
nan

>  <PDB_ID>  (18) 
nan

>  <Standardized_SMILES>  (18) 
Nc1nccc(N2CCc3ccc(Br)cc32)n1

>  <Name>  (18) 
nan

>  <Pocket>  (18) 
nan

>  <ATP_Site>  (18) 
nan

>  <Peripheral>  (18) 
nan

>  <Num_H_Atoms_ProtBoundConf>  (18) 
nan

>  <Num_Resolved_Atoms>  (18) 
nan

>  <Num_Not_Resolved_Atoms>  (18) 
nan

$$$$
CHEMBL2334963
     RDKit          3D

  0  0  0  0  0  0  0  0  0  0999 V3000
M  V30 BEGIN CTAB
M  V30 COUNTS 26 28 0 0 0
M  V30 BEGIN ATOM
M  V30 1 N -1.428079 -2.212378 4.069807 0
M  V30 2 C -0.264603 -2.219982 3.243439 0
M  V30 3 N 0.755173 -3.043180 3.545837 0
M  V30 4 C 1.870579 -3.082813 2.794290 0
M  V30 5 C 1.884943 -2.230651 1.712478 0
M  V30 6 C 0.853902 -1.359996 1.358501 0
M  V30 7 C 0.980802 -0.497957 0.183408 0
M  V30 8 C 2.064500 -0.437950 -0.670606 0
M  V30 9 N 1.739850 0.493009 -1.607963 0
M  V30 10 C 0.511863 0.979943 -1.338016 0
M  V30 11 C -0.215552 1.949809 -2.034959 0
M  V30 12 C -1.457835 2.250298 -1.520325 0
M  V30 13 C -2.045398 1.696267 -0.401561 0
M  V30 14 Cl -3.616541 2.139141 0.170313 0
M  V30 15 C -1.263093 0.745923 0.231403 0
M  V30 16 C -0.014288 0.378839 -0.204183 0
M  V30 17 N -0.215351 -1.402519 2.180191 0
M  V30 18 H -1.254147 -2.350390 5.107396 0
M  V30 19 H -2.414469 -2.085803 3.751344 0
M  V30 20 H 2.735463 -3.692465 2.939456 0
M  V30 21 H 2.756741 -2.205693 1.054734 0
M  V30 22 H 2.987550 -1.024294 -0.596463 0
M  V30 23 H 2.393715 0.743664 -2.392896 0
M  V30 24 H 0.124790 2.462582 -2.924220 0
M  V30 25 H -2.051731 3.011285 -2.050527 0
M  V30 26 H -1.642827 0.258382 1.117270 0
M  V30 END ATOM
M  V30 BEGIN BOND
M  V30 1 1 1 2
M  V30 2 2 2 3
M  V30 3 1 3 4
M  V30 4 2 4 5
M  V30 5 1 5 6
M  V30 6 1 6 7
M  V30 7 2 7 8
M  V30 8 1 8 9
M  V30 9 1 9 10
M  V30 10 2 10 11
M  V30 11 1 11 12
M  V30 12 2 12 13
M  V30 13 1 13 14
M  V30 14 1 13 15
M  V30 15 2 15 16
M  V30 16 2 6 17
M  V30 17 1 17 2
M  V30 18 1 16 7
M  V30 19 1 16 10
M  V30 20 1 1 18
M  V30 21 1 1 19
M  V30 22 1 4 20
M  V30 23 1 5 21
M  V30 24 1 8 22
M  V30 25 1 9 23
M  V30 26 1 11 24
M  V30 27 1 12 25
M  V30 28 1 15 26
M  V30 END BOND
M  V30 END CTAB
M  END
>  <Dataset>  (19) 
ChEMBL_Kinases

>  <Ligand_Instance>  (19) 
nan

>  <PDB_ID>  (19) 
nan

>  <Standardized_SMILES>  (19) 
Nc1nccc(-c2c[nH]c3ccc(Cl)cc23)n1

>  <Name>  (19) 
nan

>  <Pocket>  (19) 
nan

>  <ATP_Site>  (19) 
nan

>  <Peripheral>  (19) 
nan

>  <Num_H_Atoms_ProtBoundConf>  (19) 
nan

>  <Num_Resolved_Atoms>  (19) 
nan

>  <Num_Not_Resolved_Atoms>  (19) 
nan

$$$$
CHEMBL2334962
     RDKit          3D

  0  0  0  0  0  0  0  0  0  0999 V3000
M  V30 BEGIN CTAB
M  V30 COUNTS 29 31 0 0 0
M  V30 BEGIN ATOM
M  V30 1 C -2.370660 -1.640011 1.447317 0
M  V30 2 C -0.967793 -1.897472 1.026396 0
M  V30 3 N -0.435725 -3.131331 0.960913 0
M  V30 4 C 0.836720 -2.969404 0.546351 0
M  V30 5 C 1.874544 -3.844218 0.291668 0
M  V30 6 C 3.134978 -3.481468 -0.135753 0
M  V30 7 C 3.325705 -2.109666 -0.309562 0
M  V30 8 Cl 4.925833 -1.609887 -0.855405 0
M  V30 9 C 2.332669 -1.177499 -0.073752 0
M  V30 10 C 1.100304 -1.628632 0.352141 0
M  V30 11 C -0.047570 -0.925781 0.655767 0
M  V30 12 C -0.320737 0.509687 0.622919 0
M  V30 13 C -0.807822 1.272599 -0.429414 0
M  V30 14 C -0.985807 2.622329 -0.221587 0
M  V30 15 N -0.689223 3.168356 0.978132 0
M  V30 16 C -0.215407 2.438210 2.008426 0
M  V30 17 N 0.091097 3.033822 3.265587 0
M  V30 18 N -0.042803 1.124209 1.804066 0
M  V30 19 H -2.750938 -2.480730 2.090932 0
M  V30 20 H -2.476421 -0.718169 2.056992 0
M  V30 21 H -2.996442 -1.630524 0.528296 0
M  V30 22 H -0.897913 -4.042919 1.182165 0
M  V30 23 H 1.651536 -4.907039 0.450047 0
M  V30 24 H 3.911569 -4.211594 -0.320088 0
M  V30 25 H 2.526685 -0.123795 -0.222243 0
M  V30 26 H -0.995825 0.687651 -1.322006 0
M  V30 27 H -1.367106 3.166936 -1.074467 0
M  V30 28 H 0.978314 2.718574 3.734142 0
M  V30 29 H -0.598867 3.735364 3.610712 0
M  V30 END ATOM
M  V30 BEGIN BOND
M  V30 1 1 1 2
M  V30 2 1 2 3
M  V30 3 1 3 4
M  V30 4 2 4 5
M  V30 5 1 5 6
M  V30 6 2 6 7
M  V30 7 1 7 8
M  V30 8 1 7 9
M  V30 9 2 9 10
M  V30 10 1 10 11
M  V30 11 1 11 12
M  V30 12 2 12 13
M  V30 13 1 13 14
M  V30 14 2 14 15
M  V30 15 1 15 16
M  V30 16 1 16 17
M  V30 17 2 16 18
M  V30 18 2 11 2
M  V30 19 1 18 12
M  V30 20 1 10 4
M  V30 21 1 1 19
M  V30 22 1 1 20
M  V30 23 1 1 21
M  V30 24 1 3 22
M  V30 25 1 5 23
M  V30 26 1 6 24
M  V30 27 1 9 25
M  V30 28 1 13 26
M  V30 29 1 14 27
M  V30 30 1 17 28
M  V30 31 1 17 29
M  V30 END BOND
M  V30 END CTAB
M  END
>  <Dataset>  (20) 
ChEMBL_Kinases

>  <Ligand_Instance>  (20) 
nan

>  <PDB_ID>  (20) 
nan

>  <Standardized_SMILES>  (20) 
Cc1[nH]c2ccc(Cl)cc2c1-c1ccnc(N)n1

>  <Name>  (20) 
nan

>  <Pocket>  (20) 
nan

>  <ATP_Site>  (20) 
nan

>  <Peripheral>  (20) 
nan

>  <Num_H_Atoms_ProtBoundConf>  (20) 
nan

>  <Num_Resolved_Atoms>  (20) 
nan

>  <Num_Not_Resolved_Atoms>  (20) 
nan

$$$$
CHEMBL2334722
     RDKit          3D

  0  0  0  0  0  0  0  0  0  0999 V3000
M  V30 BEGIN CTAB
M  V30 COUNTS 61 66 0 0 0
M  V30 BEGIN ATOM
M  V30 1 C 1.638766 -5.180958 6.315605 0
M  V30 2 O 1.079719 -4.409344 5.269171 0
M  V30 3 C 1.536014 -3.127374 4.994730 0
M  V30 4 C 2.522526 -2.375618 5.593771 0
M  V30 5 C 2.786275 -1.110720 5.125873 0
M  V30 6 C 2.090089 -0.575589 4.074065 0
M  V30 7 N 2.199940 0.643620 3.470424 0
M  V30 8 C 1.271692 0.674893 2.470699 0
M  V30 9 C 0.949201 1.740087 1.500799 0
M  V30 10 C 1.317189 1.610493 0.158738 0
M  V30 11 C 1.037311 2.580246 -0.785026 0
M  V30 12 C 0.362924 3.723864 -0.368762 0
M  V30 13 C 0.102452 4.670736 -1.347115 0
M  V30 14 C -0.566674 5.809308 -0.942866 0
M  V30 15 C -0.963887 6.011439 0.365422 0
M  V30 16 C -0.672036 5.027734 1.287472 0
M  V30 17 C -0.006408 3.864007 0.955474 0
M  V30 18 C 0.280203 2.882732 1.895308 0
M  V30 19 N 0.611070 -0.511512 2.472765 0
M  V30 20 C -0.437274 -0.893869 1.590355 0
M  V30 21 C -1.724948 -0.420625 1.735621 0
M  V30 22 C -2.627553 -0.882764 0.802468 0
M  V30 23 N -2.328349 -1.732700 -0.196012 0
M  V30 24 C -1.064222 -2.178550 -0.314172 0
M  V30 25 N -0.709115 -3.076303 -1.354633 0
M  V30 26 C -1.655984 -3.542661 -2.311996 0
M  V30 27 C -2.309769 -2.500984 -3.150766 0
M  V30 28 C -1.520237 -2.089746 -4.370504 0
M  V30 29 C -0.967506 -3.262748 -5.109698 0
M  V30 30 C -0.159695 -4.180008 -4.218587 0
M  V30 31 C -1.052238 -4.666385 -3.114238 0
M  V30 32 N -0.162466 -1.742866 0.584182 0
M  V30 33 C 1.081406 -1.306611 3.439352 0
M  V30 34 C 0.821373 -2.586374 3.919944 0
M  V30 35 H 0.866835 -5.823150 6.798850 0
M  V30 36 H 2.486614 -5.785691 5.887365 0
M  V30 37 H 2.071606 -4.571213 7.135098 0
M  V30 38 H 2.994834 -2.904921 6.405469 0
M  V30 39 H 3.571854 -0.574008 5.639462 0
M  V30 40 H 1.847798 0.697746 -0.139541 0
M  V30 41 H 1.353135 2.416666 -1.818806 0
M  V30 42 H 0.388571 4.562379 -2.373437 0
M  V30 43 H -0.791523 6.583202 -1.689265 0
M  V30 44 H -1.492610 6.930906 0.640220 0
M  V30 45 H -0.962286 5.137317 2.329442 0
M  V30 46 H -0.015375 3.010329 2.920157 0
M  V30 47 H -1.982829 0.262335 2.531569 0
M  V30 48 H -3.659502 -0.515010 0.903882 0
M  V30 49 H 0.303984 -3.396646 -1.399415 0
M  V30 50 H -2.490998 -4.030198 -1.725920 0
M  V30 51 H -2.555126 -1.622279 -2.558547 0
M  V30 52 H -3.275687 -2.925061 -3.548070 0
M  V30 53 H -2.257470 -1.600704 -5.071821 0
M  V30 54 H -0.771764 -1.299326 -4.170685 0
M  V30 55 H -1.795600 -3.823843 -5.592927 0
M  V30 56 H -0.300734 -2.932910 -5.909037 0
M  V30 57 H 0.708347 -3.636907 -3.823780 0
M  V30 58 H 0.169338 -5.030346 -4.815569 0
M  V30 59 H -1.811477 -5.360263 -3.509900 0
M  V30 60 H -0.411402 -5.253430 -2.403997 0
M  V30 61 H 0.023861 -3.060439 3.356764 0
M  V30 END ATOM
M  V30 BEGIN BOND
M  V30 1 1 1 2
M  V30 2 1 2 3
M  V30 3 2 3 4
M  V30 4 1 4 5
M  V30 5 2 5 6
M  V30 6 1 6 7
M  V30 7 2 7 8
M  V30 8 1 8 9
M  V30 9 2 9 10
M  V30 10 1 10 11
M  V30 11 2 11 12
M  V30 12 1 12 13
M  V30 13 2 13 14
M  V30 14 1 14 15
M  V30 15 2 15 16
M  V30 16 1 16 17
M  V30 17 2 17 18
M  V30 18 1 8 19
M  V30 19 1 19 20
M  V30 20 2 20 21
M  V30 21 1 21 22
M  V30 22 2 22 23
M  V30 23 1 23 24
M  V30 24 1 24 25
M  V30 25 1 25 26
M  V30 26 1 26 27
M  V30 27 1 27 28
M  V30 28 1 28 29
M  V30 29 1 29 30
M  V30 30 1 30 31
M  V30 31 2 24 32
M  V30 32 1 19 33
M  V30 33 2 33 34
M  V30 34 1 34 3
M  V30 35 1 33 6
M  V30 36 1 18 9
M  V30 37 1 32 20
M  V30 38 1 17 12
M  V30 39 1 31 26
M  V30 40 1 1 35
M  V30 41 1 1 36
M  V30 42 1 1 37
M  V30 43 1 4 38
M  V30 44 1 5 39
M  V30 45 1 10 40
M  V30 46 1 11 41
M  V30 47 1 13 42
M  V30 48 1 14 43
M  V30 49 1 15 44
M  V30 50 1 16 45
M  V30 51 1 18 46
M  V30 52 1 21 47
M  V30 53 1 22 48
M  V30 54 1 25 49
M  V30 55 1 26 50
M  V30 56 1 27 51
M  V30 57 1 27 52
M  V30 58 1 28 53
M  V30 59 1 28 54
M  V30 60 1 29 55
M  V30 61 1 29 56
M  V30 62 1 30 57
M  V30 63 1 30 58
M  V30 64 1 31 59
M  V30 65 1 31 60
M  V30 66 1 34 61
M  V30 END BOND
M  V30 END CTAB
M  END
>  <Dataset>  (21) 
ChEMBL_Kinases

>  <Ligand_Instance>  (21) 
nan

>  <PDB_ID>  (21) 
nan

>  <Standardized_SMILES>  (21) 
COc1ccc2nc(-c3ccc4ccccc4c3)n(-c3ccnc(NC4CCCCC4)n3)c2c1

>  <Name>  (21) 
nan

>  <Pocket>  (21) 
nan

>  <ATP_Site>  (21) 
nan

>  <Peripheral>  (21) 
nan

>  <Num_H_Atoms_ProtBoundConf>  (21) 
nan

>  <Num_Resolved_Atoms>  (21) 
nan

>  <Num_Not_Resolved_Atoms>  (21) 
nan

$$$$
CHEMBL2334721
     RDKit          3D

  0  0  0  0  0  0  0  0  0  0999 V3000
M  V30 BEGIN CTAB
M  V30 COUNTS 61 66 0 0 0
M  V30 BEGIN ATOM
M  V30 1 C 7.269376 -4.735737 1.088029 0
M  V30 2 O 6.118579 -4.914531 0.300891 0
M  V30 3 C 4.936041 -4.239182 0.417206 0
M  V30 4 C 3.926952 -4.581759 -0.473098 0
M  V30 5 C 2.687026 -3.955512 -0.439310 0
M  V30 6 C 2.514204 -2.979422 0.522579 0
M  V30 7 C 3.494644 -2.602256 1.435327 0
M  V30 8 C 4.702383 -3.264135 1.346538 0
M  V30 9 N 2.937423 -1.636127 2.187873 0
M  V30 10 C 1.667215 -1.410979 1.774054 0
M  V30 11 C 0.933849 -0.382103 2.503152 0
M  V30 12 C 1.146685 0.982585 2.507466 0
M  V30 13 C 0.318345 1.778672 3.283478 0
M  V30 14 C -0.705170 1.226502 4.042965 0
M  V30 15 C -1.510511 2.057276 4.804802 0
M  V30 16 C -2.538413 1.528091 5.570837 0
M  V30 17 C -2.762268 0.172673 5.576677 0
M  V30 18 C -1.951937 -0.656419 4.811005 0
M  V30 19 C -0.920631 -0.147341 4.039596 0
M  V30 20 C -0.085792 -0.933271 3.259624 0
M  V30 21 N 1.405358 -2.246656 0.738797 0
M  V30 22 C 0.121187 -2.197339 0.128414 0
M  V30 23 C -0.892875 -3.037879 0.536305 0
M  V30 24 C -2.110188 -2.937955 -0.096096 0
M  V30 25 N -2.298496 -2.046818 -1.079957 0
M  V30 26 C -1.316522 -1.225326 -1.482583 0
M  V30 27 N -1.486515 -0.274239 -2.519074 0
M  V30 28 C -2.696307 -0.033549 -3.275854 0
M  V30 29 C -2.482657 1.013492 -4.352206 0
M  V30 30 C -2.180858 2.330890 -3.722695 0
M  V30 31 C -3.376796 2.763423 -2.895162 0
M  V30 32 C -3.498513 1.765809 -1.756487 0
M  V30 33 C -3.785462 0.403467 -2.315954 0
M  V30 34 N -0.141808 -1.330878 -0.863078 0
M  V30 35 H 7.371884 -3.717808 1.520942 0
M  V30 36 H 7.376067 -5.526007 1.868962 0
M  V30 37 H 8.152648 -4.861163 0.427751 0
M  V30 38 H 4.089137 -5.362497 -1.230106 0
M  V30 39 H 1.899359 -4.219931 -1.131033 0
M  V30 40 H 5.479970 -2.980544 2.053701 0
M  V30 41 H 1.959948 1.299779 1.888218 0
M  V30 42 H 0.521626 2.837221 3.255800 0
M  V30 43 H -1.360234 3.134624 4.822624 0
M  V30 44 H -3.196961 2.139972 6.185055 0
M  V30 45 H -3.545701 -0.318987 6.149048 0
M  V30 46 H -2.113698 -1.724160 4.803764 0
M  V30 47 H -0.343423 -1.993930 3.331156 0
M  V30 48 H -0.686499 -3.737861 1.334637 0
M  V30 49 H -2.923271 -3.590553 0.209348 0
M  V30 50 H -0.652882 0.331307 -2.781048 0
M  V30 51 H -3.071560 -0.950689 -3.793788 0
M  V30 52 H -1.702040 0.646678 -5.026472 0
M  V30 53 H -3.437213 1.090370 -4.913713 0
M  V30 54 H -1.957282 3.068245 -4.525762 0
M  V30 55 H -1.343215 2.229061 -3.019449 0
M  V30 56 H -3.183455 3.758848 -2.488746 0
M  V30 57 H -4.296538 2.679703 -3.510984 0
M  V30 58 H -4.328660 2.031168 -1.070989 0
M  V30 59 H -2.540308 1.765660 -1.212754 0
M  V30 60 H -3.849261 -0.340837 -1.505048 0
M  V30 61 H -4.783799 0.398251 -2.809750 0
M  V30 END ATOM
M  V30 BEGIN BOND
M  V30 1 1 1 2
M  V30 2 1 2 3
M  V30 3 2 3 4
M  V30 4 1 4 5
M  V30 5 2 5 6
M  V30 6 1 6 7
M  V30 7 2 7 8
M  V30 8 1 7 9
M  V30 9 2 9 10
M  V30 10 1 10 11
M  V30 11 2 11 12
M  V30 12 1 12 13
M  V30 13 2 13 14
M  V30 14 1 14 15
M  V30 15 2 15 16
M  V30 16 1 16 17
M  V30 17 2 17 18
M  V30 18 1 18 19
M  V30 19 2 19 20
M  V30 20 1 10 21
M  V30 21 1 21 22
M  V30 22 2 22 23
M  V30 23 1 23 24
M  V30 24 2 24 25
M  V30 25 1 25 26
M  V30 26 1 26 27
M  V30 27 1 27 28
M  V30 28 1 28 29
M  V30 29 1 29 30
M  V30 30 1 30 31
M  V30 31 1 31 32
M  V30 32 1 32 33
M  V30 33 2 26 34
M  V30 34 1 8 3
M  V30 35 1 20 11
M  V30 36 1 34 22
M  V30 37 1 21 6
M  V30 38 1 33 28
M  V30 39 1 19 14
M  V30 40 1 1 35
M  V30 41 1 1 36
M  V30 42 1 1 37
M  V30 43 1 4 38
M  V30 44 1 5 39
M  V30 45 1 8 40
M  V30 46 1 12 41
M  V30 47 1 13 42
M  V30 48 1 15 43
M  V30 49 1 16 44
M  V30 50 1 17 45
M  V30 51 1 18 46
M  V30 52 1 20 47
M  V30 53 1 23 48
M  V30 54 1 24 49
M  V30 55 1 27 50
M  V30 56 1 28 51
M  V30 57 1 29 52
M  V30 58 1 29 53
M  V30 59 1 30 54
M  V30 60 1 30 55
M  V30 61 1 31 56
M  V30 62 1 31 57
M  V30 63 1 32 58
M  V30 64 1 32 59
M  V30 65 1 33 60
M  V30 66 1 33 61
M  V30 END BOND
M  V30 END CTAB
M  END
>  <Dataset>  (22) 
ChEMBL_Kinases

>  <Ligand_Instance>  (22) 
nan

>  <PDB_ID>  (22) 
nan

>  <Standardized_SMILES>  (22) 
COc1ccc2c(c1)nc(-c1ccc3ccccc3c1)n2-c1ccnc(NC2CCCCC2)n1

>  <Name>  (22) 
nan

>  <Pocket>  (22) 
nan

>  <ATP_Site>  (22) 
nan

>  <Peripheral>  (22) 
nan

>  <Num_H_Atoms_ProtBoundConf>  (22) 
nan

>  <Num_Resolved_Atoms>  (22) 
nan

>  <Num_Not_Resolved_Atoms>  (22) 
nan

$$$$
CHEMBL2334720
     RDKit          3D

  0  0  0  0  0  0  0  0  0  0999 V3000
M  V30 BEGIN CTAB
M  V30 COUNTS 55 60 0 0 0
M  V30 BEGIN ATOM
M  V30 1 C -1.377870 -0.580403 -4.646144 0
M  V30 2 C -2.194603 0.291419 -3.948399 0
M  V30 3 C -1.730385 0.810025 -2.733817 0
M  V30 4 C -0.476383 0.405903 -2.320534 0
M  V30 5 C -0.071855 0.948510 -1.118038 0
M  V30 6 C 1.172620 0.614562 -0.601281 0
M  V30 7 C 1.601496 1.188598 0.671610 0
M  V30 8 N 1.963315 2.492766 0.823240 0
M  V30 9 C 2.301766 2.702821 2.101005 0
M  V30 10 C 2.743227 3.792519 2.850166 0
M  V30 11 C 3.027378 3.724148 4.198212 0
M  V30 12 C 2.861955 2.502803 4.831976 0
M  V30 13 C 2.425026 1.423938 4.090910 0
M  V30 14 C 2.139602 1.490637 2.739044 0
M  V30 15 N 1.704412 0.561143 1.837758 0
M  V30 16 C 1.429951 -0.798271 2.139072 0
M  V30 17 C 2.527416 -1.442132 2.707685 0
M  V30 18 C 2.466964 -2.771011 3.074339 0
M  V30 19 N 1.310965 -3.428074 2.864887 0
M  V30 20 C 0.261014 -2.758946 2.305388 0
M  V30 21 N -0.974791 -3.438041 2.074657 0
M  V30 22 C -2.165486 -2.841018 1.487364 0
M  V30 23 C -3.307953 -3.844020 1.383438 0
M  V30 24 C -4.212442 -3.380013 0.270401 0
M  V30 25 O -4.244248 -1.993261 0.168541 0
M  V30 26 C -3.052506 -1.479774 -0.329588 0
M  V30 27 C -1.900871 -2.385504 0.067699 0
M  V30 28 N 0.276411 -1.464959 1.933283 0
M  V30 29 C 1.972274 -0.264160 -1.324370 0
M  V30 30 C 1.593297 -0.823328 -2.531671 0
M  V30 31 C 0.341469 -0.463359 -3.013271 0
M  V30 32 C -0.128884 -0.966279 -4.208095 0
M  V30 33 H -1.748704 -0.973336 -5.582471 0
M  V30 34 H -3.173422 0.601470 -4.279541 0
M  V30 35 H -2.347524 1.490964 -2.171362 0
M  V30 36 H -0.678896 1.630330 -0.545684 0
M  V30 37 H 2.849613 4.721548 2.281135 0
M  V30 38 H 3.371827 4.612546 4.739796 0
M  V30 39 H 3.081335 2.438990 5.885123 0
M  V30 40 H 2.315633 0.497441 4.643629 0
M  V30 41 H 3.493041 -0.977436 2.907189 0
M  V30 42 H 3.296767 -3.307872 3.518869 0
M  V30 43 H -1.050138 -4.462727 2.347374 0
M  V30 44 H -2.562808 -1.997013 2.123717 0
M  V30 45 H -3.846686 -3.974896 2.342781 0
M  V30 46 H -2.838308 -4.802450 1.036704 0
M  V30 47 H -5.260378 -3.715216 0.462361 0
M  V30 48 H -3.951932 -3.784358 -0.724126 0
M  V30 49 H -3.138510 -1.374998 -1.445189 0
M  V30 50 H -2.884593 -0.506029 0.173096 0
M  V30 51 H -1.976239 -3.296216 -0.583121 0
M  V30 52 H -0.925897 -1.907998 -0.072330 0
M  V30 53 H 2.935524 -0.527405 -0.931957 0
M  V30 54 H 2.232500 -1.501531 -3.071222 0
M  V30 55 H 0.470595 -1.651981 -4.792991 0
M  V30 END ATOM
M  V30 BEGIN BOND
M  V30 1 2 1 2
M  V30 2 1 2 3
M  V30 3 2 3 4
M  V30 4 1 4 5
M  V30 5 2 5 6
M  V30 6 1 6 7
M  V30 7 2 7 8
M  V30 8 1 8 9
M  V30 9 2 9 10
M  V30 10 1 10 11
M  V30 11 2 11 12
M  V30 12 1 12 13
M  V30 13 2 13 14
M  V30 14 1 14 15
M  V30 15 1 15 16
M  V30 16 2 16 17
M  V30 17 1 17 18
M  V30 18 2 18 19
M  V30 19 1 19 20
M  V30 20 1 20 21
M  V30 21 1 21 22
M  V30 22 1 22 23
M  V30 23 1 23 24
M  V30 24 1 24 25
M  V30 25 1 25 26
M  V30 26 1 26 27
M  V30 27 2 20 28
M  V30 28 1 6 29
M  V30 29 2 29 30
M  V30 30 1 30 31
M  V30 31 2 31 32
M  V30 32 1 32 1
M  V30 33 1 31 4
M  V30 34 1 15 7
M  V30 35 1 28 16
M  V30 36 1 14 9
M  V30 37 1 27 22
M  V30 38 1 1 33
M  V30 39 1 2 34
M  V30 40 1 3 35
M  V30 41 1 5 36
M  V30 42 1 10 37
M  V30 43 1 11 38
M  V30 44 1 12 39
M  V30 45 1 13 40
M  V30 46 1 17 41
M  V30 47 1 18 42
M  V30 48 1 21 43
M  V30 49 1 22 44
M  V30 50 1 23 45
M  V30 51 1 23 46
M  V30 52 1 24 47
M  V30 53 1 24 48
M  V30 54 1 26 49
M  V30 55 1 26 50
M  V30 56 1 27 51
M  V30 57 1 27 52
M  V30 58 1 29 53
M  V30 59 1 30 54
M  V30 60 1 32 55
M  V30 END BOND
M  V30 END CTAB
M  END
>  <Dataset>  (23) 
ChEMBL_Kinases

>  <Ligand_Instance>  (23) 
nan

>  <PDB_ID>  (23) 
nan

>  <Standardized_SMILES>  (23) 
c1ccc2cc(-c3nc4ccccc4n3-c3ccnc(NC4CCOCC4)n3)ccc2c1

>  <Name>  (23) 
nan

>  <Pocket>  (23) 
nan

>  <ATP_Site>  (23) 
nan

>  <Peripheral>  (23) 
nan

>  <Num_H_Atoms_ProtBoundConf>  (23) 
nan

>  <Num_Resolved_Atoms>  (23) 
nan

>  <Num_Not_Resolved_Atoms>  (23) 
nan

$$$$
CHEMBL2334719
     RDKit          3D

  0  0  0  0  0  0  0  0  0  0999 V3000
M  V30 BEGIN CTAB
M  V30 COUNTS 57 62 0 0 0
M  V30 BEGIN ATOM
M  V30 1 C 4.281597 -4.258081 -2.092461 0
M  V30 2 C 5.129007 -3.735079 -1.137519 0
M  V30 3 C 4.917752 -2.578306 -0.413221 0
M  V30 4 C 3.733615 -1.936607 -0.721423 0
M  V30 5 C 3.408587 -0.753235 -0.052951 0
M  V30 6 C 2.251055 -0.008545 -0.266457 0
M  V30 7 C 2.034928 1.212860 0.502776 0
M  V30 8 N 2.811533 2.322525 0.352092 0
M  V30 9 C 2.377992 3.296521 1.193475 0
M  V30 10 C 2.792089 4.596670 1.449795 0
M  V30 11 C 2.124256 5.364045 2.397520 0
M  V30 12 C 1.067781 4.741624 3.024102 0
M  V30 13 C 0.604788 3.461524 2.820007 0
M  V30 14 C 1.307897 2.727761 1.857460 0
M  V30 15 N 1.100149 1.471429 1.441791 0
M  V30 16 C 0.096795 0.559181 1.884286 0
M  V30 17 C 0.053222 -0.065315 3.095618 0
M  V30 18 C -0.979356 -0.929122 3.397935 0
M  V30 19 N -1.894122 -1.102590 2.459555 0
M  V30 20 C -1.928306 -0.533597 1.251502 0
M  V30 21 N -2.945368 -0.767035 0.290630 0
M  V30 22 C -4.029546 -1.653372 0.564274 0
M  V30 23 C -3.662044 -3.069603 0.861529 0
M  V30 24 C -3.326072 -3.879960 -0.360418 0
M  V30 25 C -4.092389 -3.445467 -1.581911 0
M  V30 26 C -5.399285 -2.834546 -1.123381 0
M  V30 27 C -5.071910 -1.501676 -0.492378 0
M  V30 28 N -0.894244 0.295588 1.021856 0
M  V30 29 C 1.389950 -0.514628 -1.217852 0
M  V30 30 C 1.658003 -1.677927 -1.909224 0
M  V30 31 C 2.819142 -2.375379 -1.658012 0
M  V30 32 C 3.108156 -3.544692 -2.339945 0
M  V30 33 H 4.520768 -5.171725 -2.616425 0
M  V30 34 H 6.034949 -4.308735 -0.963593 0
M  V30 35 H 5.616696 -2.222271 0.318070 0
M  V30 36 H 4.100537 -0.381160 0.685715 0
M  V30 37 H 3.633213 5.019671 0.916452 0
M  V30 38 H 2.397366 6.379422 2.641606 0
M  V30 39 H 0.539884 5.332048 3.765564 0
M  V30 40 H -0.243685 3.093896 3.386045 0
M  V30 41 H 0.870226 0.156542 3.797295 0
M  V30 42 H -1.008127 -1.424701 4.367416 0
M  V30 43 H -2.866900 -0.264543 -0.621615 0
M  V30 44 H -4.490550 -1.266031 1.521739 0
M  V30 45 H -2.803425 -3.100141 1.542264 0
M  V30 46 H -4.509001 -3.556996 1.387964 0
M  V30 47 H -2.220090 -3.867436 -0.499521 0
M  V30 48 H -3.605300 -4.933912 -0.152101 0
M  V30 49 H -4.265230 -4.245141 -2.312141 0
M  V30 50 H -3.511723 -2.644032 -2.098413 0
M  V30 51 H -5.902885 -3.490185 -0.394519 0
M  V30 52 H -6.093771 -2.660579 -1.963946 0
M  V30 53 H -6.058112 -1.123064 -0.092030 0
M  V30 54 H -4.813996 -0.758426 -1.285041 0
M  V30 55 H 0.482707 0.038176 -1.408255 0
M  V30 56 H 0.991701 -2.072369 -2.647513 0
M  V30 57 H 2.421110 -3.927025 -3.082978 0
M  V30 END ATOM
M  V30 BEGIN BOND
M  V30 1 2 1 2
M  V30 2 1 2 3
M  V30 3 2 3 4
M  V30 4 1 4 5
M  V30 5 2 5 6
M  V30 6 1 6 7
M  V30 7 2 7 8
M  V30 8 1 8 9
M  V30 9 2 9 10
M  V30 10 1 10 11
M  V30 11 2 11 12
M  V30 12 1 12 13
M  V30 13 2 13 14
M  V30 14 1 14 15
M  V30 15 1 15 16
M  V30 16 2 16 17
M  V30 17 1 17 18
M  V30 18 2 18 19
M  V30 19 1 19 20
M  V30 20 1 20 21
M  V30 21 1 21 22
M  V30 22 1 22 23
M  V30 23 1 23 24
M  V30 24 1 24 25
M  V30 25 1 25 26
M  V30 26 1 26 27
M  V30 27 2 20 28
M  V30 28 1 6 29
M  V30 29 2 29 30
M  V30 30 1 30 31
M  V30 31 2 31 32
M  V30 32 1 32 1
M  V30 33 1 31 4
M  V30 34 1 15 7
M  V30 35 1 28 16
M  V30 36 1 14 9
M  V30 37 1 27 22
M  V30 38 1 1 33
M  V30 39 1 2 34
M  V30 40 1 3 35
M  V30 41 1 5 36
M  V30 42 1 10 37
M  V30 43 1 11 38
M  V30 44 1 12 39
M  V30 45 1 13 40
M  V30 46 1 17 41
M  V30 47 1 18 42
M  V30 48 1 21 43
M  V30 49 1 22 44
M  V30 50 1 23 45
M  V30 51 1 23 46
M  V30 52 1 24 47
M  V30 53 1 24 48
M  V30 54 1 25 49
M  V30 55 1 25 50
M  V30 56 1 26 51
M  V30 57 1 26 52
M  V30 58 1 27 53
M  V30 59 1 27 54
M  V30 60 1 29 55
M  V30 61 1 30 56
M  V30 62 1 32 57
M  V30 END BOND
M  V30 END CTAB
M  END
>  <Dataset>  (24) 
ChEMBL_Kinases

>  <Ligand_Instance>  (24) 
nan

>  <PDB_ID>  (24) 
nan

>  <Standardized_SMILES>  (24) 
c1ccc2cc(-c3nc4ccccc4n3-c3ccnc(NC4CCCCC4)n3)ccc2c1

>  <Name>  (24) 
nan

>  <Pocket>  (24) 
nan

>  <ATP_Site>  (24) 
nan

>  <Peripheral>  (24) 
nan

>  <Num_H_Atoms_ProtBoundConf>  (24) 
nan

>  <Num_Resolved_Atoms>  (24) 
nan

>  <Num_Not_Resolved_Atoms>  (24) 
nan

$$$$
CHEMBL234697
     RDKit          3D

  0  0  0  0  0  0  0  0  0  0999 V3000
M  V30 BEGIN CTAB
M  V30 COUNTS 50 52 0 0 0
M  V30 BEGIN ATOM
M  V30 1 C 4.781763 -3.700917 3.469325 0
M  V30 2 C 4.188311 -4.634615 2.419769 0
M  V30 3 C 3.637059 -5.810065 3.195860 0
M  V30 4 O 5.247232 -5.057519 1.622669 0
M  V30 5 C 3.141144 -3.950064 1.649552 0
M  V30 6 C 2.805237 -2.625386 1.949628 0
M  V30 7 C 1.816307 -2.095916 1.155580 0
M  V30 8 C 1.119970 -2.680454 0.120566 0
M  V30 9 C 0.091368 -1.964948 -0.619179 0
M  V30 10 N 0.347112 -0.688389 -1.015570 0
M  V30 11 C -0.606806 0.003404 -1.713107 0
M  V30 12 N -0.547841 1.335791 -2.204651 0
M  V30 13 C -1.169435 2.320019 -1.384461 0
M  V30 14 C -1.783890 1.930277 -0.190563 0
M  V30 15 C -2.433543 2.814230 0.680019 0
M  V30 16 C -2.468441 4.174216 0.329782 0
M  V30 17 C -3.185247 5.027043 1.307230 0
M  V30 18 C -4.669320 5.114766 0.973518 0
M  V30 19 O -4.857102 5.664869 -0.274427 0
M  V30 20 C -1.864588 4.557220 -0.842158 0
M  V30 21 C -1.227910 3.683333 -1.692499 0
M  V30 22 N -1.788166 -0.568989 -2.007300 0
M  V30 23 C -2.044030 -1.850571 -1.609201 0
M  V30 24 C -1.093942 -2.567622 -0.902884 0
M  V30 25 C -1.399752 -3.916808 -0.500604 0
M  V30 26 N -1.646711 -5.018048 -0.159545 0
M  V30 27 C 1.491465 -4.008520 -0.142905 0
M  V30 28 C 2.489446 -4.597256 0.630775 0
M  V30 29 H 5.650211 -4.206214 3.960947 0
M  V30 30 H 4.048933 -3.475356 4.265879 0
M  V30 31 H 5.167572 -2.762484 3.028617 0
M  V30 32 H 3.247592 -6.536581 2.468824 0
M  V30 33 H 2.942939 -5.508420 3.989883 0
M  V30 34 H 4.484824 -6.304792 3.724682 0
M  V30 35 H 4.991277 -5.835540 1.052173 0
M  V30 36 H 3.277188 -2.059755 2.735561 0
M  V30 37 H 1.557247 -1.050628 1.397817 0
M  V30 38 H -0.114302 1.719369 -3.084417 0
M  V30 39 H -1.791021 0.880825 0.135110 0
M  V30 40 H -2.885630 2.438992 1.588016 0
M  V30 41 H -3.117814 4.630737 2.333860 0
M  V30 42 H -2.823920 6.069842 1.322367 0
M  V30 43 H -5.052651 4.052372 0.910289 0
M  V30 44 H -5.252502 5.639624 1.727575 0
M  V30 45 H -5.813265 5.653135 -0.522013 0
M  V30 46 H -1.921347 5.614196 -1.061565 0
M  V30 47 H -0.760230 4.011378 -2.609264 0
M  V30 48 H -2.987910 -2.331627 -1.834252 0
M  V30 49 H 0.987916 -4.530133 -0.942713 0
M  V30 50 H 2.696720 -5.639456 0.336668 0
M  V30 END ATOM
M  V30 BEGIN BOND
M  V30 1 1 1 2
M  V30 2 1 2 3
M  V30 3 1 2 4
M  V30 4 1 2 5
M  V30 5 2 5 6
M  V30 6 1 6 7
M  V30 7 2 7 8
M  V30 8 1 8 9
M  V30 9 2 9 10
M  V30 10 1 10 11
M  V30 11 1 11 12
M  V30 12 1 12 13
M  V30 13 2 13 14
M  V30 14 1 14 15
M  V30 15 2 15 16
M  V30 16 1 16 17
M  V30 17 1 17 18
M  V30 18 1 18 19
M  V30 19 1 16 20
M  V30 20 2 20 21
M  V30 21 2 11 22
M  V30 22 1 22 23
M  V30 23 2 23 24
M  V30 24 1 24 25
M  V30 25 3 25 26
M  V30 26 1 8 27
M  V30 27 2 27 28
M  V30 28 1 28 5
M  V30 29 1 24 9
M  V30 30 1 21 13
M  V30 31 1 1 29
M  V30 32 1 1 30
M  V30 33 1 1 31
M  V30 34 1 3 32
M  V30 35 1 3 33
M  V30 36 1 3 34
M  V30 37 1 4 35
M  V30 38 1 6 36
M  V30 39 1 7 37
M  V30 40 1 12 38
M  V30 41 1 14 39
M  V30 42 1 15 40
M  V30 43 1 17 41
M  V30 44 1 17 42
M  V30 45 1 18 43
M  V30 46 1 18 44
M  V30 47 1 19 45
M  V30 48 1 20 46
M  V30 49 1 21 47
M  V30 50 1 23 48
M  V30 51 1 27 49
M  V30 52 1 28 50
M  V30 END BOND
M  V30 END CTAB
M  END
>  <Dataset>  (25) 
ChEMBL_Kinases

>  <Ligand_Instance>  (25) 
nan

>  <PDB_ID>  (25) 
nan

>  <Standardized_SMILES>  (25) 
CC(C)(O)c1ccc(-c2nc(Nc3ccc(CCO)cc3)ncc2C#N)cc1

>  <Name>  (25) 
nan

>  <Pocket>  (25) 
nan

>  <ATP_Site>  (25) 
nan

>  <Peripheral>  (25) 
nan

>  <Num_H_Atoms_ProtBoundConf>  (25) 
nan

>  <Num_Resolved_Atoms>  (25) 
nan

>  <Num_Not_Resolved_Atoms>  (25) 
nan

$$$$
CHEMBL2334581
     RDKit          3D

  0  0  0  0  0  0  0  0  0  0999 V3000
M  V30 BEGIN CTAB
M  V30 COUNTS 30 33 0 0 0
M  V30 BEGIN ATOM
M  V30 1 N -0.740745 -1.365945 4.954271 0
M  V30 2 C -0.099222 -1.907218 3.807375 0
M  V30 3 N 0.539362 -3.082459 3.684912 0
M  V30 4 C 1.099525 -3.454322 2.522060 0
M  V30 5 C 1.060598 -2.659764 1.371817 0
M  V30 6 C 0.397006 -1.467375 1.545571 0
M  V30 7 N -0.157052 -1.113447 2.717871 0
M  V30 8 C 0.313439 -0.581000 0.396157 0
M  V30 9 C 0.934581 -1.101172 -0.713186 0
M  V30 10 N 0.776610 -0.172360 -1.703444 0
M  V30 11 C 0.082321 0.885543 -1.224346 0
M  V30 12 C -0.387501 2.095556 -1.689456 0
M  V30 13 C -1.093173 2.986278 -0.907740 0
M  V30 14 C -1.362519 2.686933 0.411878 0
M  V30 15 Cl -2.256534 3.802810 1.422367 0
M  V30 16 C -0.927904 1.496240 0.956108 0
M  V30 17 C -0.228895 0.651977 0.120985 0
M  V30 18 C 1.666389 -2.341178 -1.012168 0
M  V30 19 C 1.727723 -3.227677 0.179747 0
M  V30 20 H -1.686146 -0.923717 4.897483 0
M  V30 21 H -0.184321 -1.452369 5.842193 0
M  V30 22 H 1.567684 -4.434000 2.621374 0
M  V30 23 H 1.059184 -0.090038 -2.717789 0
M  V30 24 H -0.186197 2.347643 -2.721029 0
M  V30 25 H -1.443980 3.932153 -1.322732 0
M  V30 26 H -1.108693 1.207629 1.981937 0
M  V30 27 H 1.186849 -2.909033 -1.856501 0
M  V30 28 H 2.728238 -2.123101 -1.340435 0
M  V30 29 H 1.147913 -4.172193 -0.054132 0
M  V30 30 H 2.778335 -3.531536 0.411758 0
M  V30 END ATOM
M  V30 BEGIN BOND
M  V30 1 1 1 2
M  V30 2 2 2 3
M  V30 3 1 3 4
M  V30 4 2 4 5
M  V30 5 1 5 6
M  V30 6 2 6 7
M  V30 7 1 6 8
M  V30 8 2 8 9
M  V30 9 1 9 10
M  V30 10 1 10 11
M  V30 11 2 11 12
M  V30 12 1 12 13
M  V30 13 2 13 14
M  V30 14 1 14 15
M  V30 15 1 14 16
M  V30 16 2 16 17
M  V30 17 1 9 18
M  V30 18 1 18 19
M  V30 19 1 7 2
M  V30 20 1 17 8
M  V30 21 1 19 5
M  V30 22 1 17 11
M  V30 23 1 1 20
M  V30 24 1 1 21
M  V30 25 1 4 22
M  V30 26 1 10 23
M  V30 27 1 12 24
M  V30 28 1 13 25
M  V30 29 1 16 26
M  V30 30 1 18 27
M  V30 31 1 18 28
M  V30 32 1 19 29
M  V30 33 1 19 30
M  V30 END BOND
M  V30 END CTAB
M  END
>  <Dataset>  (26) 
ChEMBL_Kinases

>  <Ligand_Instance>  (26) 
nan

>  <PDB_ID>  (26) 
nan

>  <Standardized_SMILES>  (26) 
Nc1ncc2c(n1)-c1c([nH]c3ccc(Cl)cc13)CC2

>  <Name>  (26) 
nan

>  <Pocket>  (26) 
nan

>  <ATP_Site>  (26) 
nan

>  <Peripheral>  (26) 
nan

>  <Num_H_Atoms_ProtBoundConf>  (26) 
nan

>  <Num_Resolved_Atoms>  (26) 
nan

>  <Num_Not_Resolved_Atoms>  (26) 
nan

$$$$
CHEMBL2334582
     RDKit          3D

  0  0  0  0  0  0  0  0  0  0999 V3000
M  V30 BEGIN CTAB
M  V30 COUNTS 36 39 0 0 0
M  V30 BEGIN ATOM
M  V30 1 N 1.666674 -2.443028 4.040414 0
M  V30 2 C 1.682649 -2.242348 2.633974 0
M  V30 3 N 2.558799 -2.896826 1.857279 0
M  V30 4 C 2.645291 -2.769258 0.520958 0
M  V30 5 C 1.774997 -1.906612 -0.101022 0
M  V30 6 C 0.876068 -1.240251 0.731676 0
M  V30 7 N 0.799279 -1.376377 2.067356 0
M  V30 8 C -0.183715 -0.280056 0.468626 0
M  V30 9 C -1.124616 -0.075623 -0.550088 0
M  V30 10 N -1.877445 0.973213 -0.250314 0
M  V30 11 C -1.491508 1.495296 0.928465 0
M  V30 12 C -1.946581 2.577893 1.662146 0
M  V30 13 C -1.305153 2.845825 2.852898 0
M  V30 14 C -0.239583 2.052197 3.293791 0
M  V30 15 Cl 0.407417 2.593678 4.829844 0
M  V30 16 C 0.195681 0.978399 2.544843 0
M  V30 17 C -0.455577 0.726458 1.363584 0
M  V30 18 C -1.412189 -0.771288 -1.835901 0
M  V30 19 C -0.062272 -0.861232 -2.563627 0
M  V30 20 C 0.667818 -2.132017 -2.281048 0
M  V30 21 C 2.020832 -1.907929 -1.590390 0
M  V30 22 H 2.261933 -3.179674 4.457259 0
M  V30 23 H 1.056656 -1.848043 4.641680 0
M  V30 24 H 3.340614 -3.286571 -0.108866 0
M  V30 25 H -2.642504 1.317899 -0.852455 0
M  V30 26 H -2.763994 3.158083 1.287767 0
M  V30 27 H -1.703693 3.700399 3.380881 0
M  V30 28 H 1.021672 0.528561 3.058940 0
M  V30 29 H -2.146530 -0.206959 -2.415884 0
M  V30 30 H -1.706509 -1.819130 -1.622332 0
M  V30 31 H -0.345799 -0.786307 -3.653683 0
M  V30 32 H 0.534329 0.049801 -2.340635 0
M  V30 33 H 0.110726 -2.879478 -1.704925 0
M  V30 34 H 0.932245 -2.605987 -3.265662 0
M  V30 35 H 2.722307 -2.714997 -1.804965 0
M  V30 36 H 2.345344 -0.894583 -1.885600 0
M  V30 END ATOM
M  V30 BEGIN BOND
M  V30 1 1 1 2
M  V30 2 2 2 3
M  V30 3 1 3 4
M  V30 4 2 4 5
M  V30 5 1 5 6
M  V30 6 2 6 7
M  V30 7 1 6 8
M  V30 8 2 8 9
M  V30 9 1 9 10
M  V30 10 1 10 11
M  V30 11 2 11 12
M  V30 12 1 12 13
M  V30 13 2 13 14
M  V30 14 1 14 15
M  V30 15 1 14 16
M  V30 16 2 16 17
M  V30 17 1 9 18
M  V30 18 1 18 19
M  V30 19 1 19 20
M  V30 20 1 20 21
M  V30 21 1 7 2
M  V30 22 1 17 8
M  V30 23 1 21 5
M  V30 24 1 17 11
M  V30 25 1 1 22
M  V30 26 1 1 23
M  V30 27 1 4 24
M  V30 28 1 10 25
M  V30 29 1 12 26
M  V30 30 1 13 27
M  V30 31 1 16 28
M  V30 32 1 18 29
M  V30 33 1 18 30
M  V30 34 1 19 31
M  V30 35 1 19 32
M  V30 36 1 20 33
M  V30 37 1 20 34
M  V30 38 1 21 35
M  V30 39 1 21 36
M  V30 END BOND
M  V30 END CTAB
M  END
>  <Dataset>  (27) 
ChEMBL_Kinases

>  <Ligand_Instance>  (27) 
nan

>  <PDB_ID>  (27) 
nan

>  <Standardized_SMILES>  (27) 
Nc1ncc2c(n1)-c1c([nH]c3ccc(Cl)cc13)CCCC2

>  <Name>  (27) 
nan

>  <Pocket>  (27) 
nan

>  <ATP_Site>  (27) 
nan

>  <Peripheral>  (27) 
nan

>  <Num_H_Atoms_ProtBoundConf>  (27) 
nan

>  <Num_Resolved_Atoms>  (27) 
nan

>  <Num_Not_Resolved_Atoms>  (27) 
nan

$$$$
CHEMBL2334583
     RDKit          3D

  0  0  0  0  0  0  0  0  0  0999 V3000
M  V30 BEGIN CTAB
M  V30 COUNTS 33 36 0 0 0
M  V30 BEGIN ATOM
M  V30 1 N 0.899832 -1.916889 4.522125 0
M  V30 2 C 0.747915 -2.151774 3.112489 0
M  V30 3 N 0.973396 -3.381428 2.651327 0
M  V30 4 C 0.866315 -3.730976 1.360634 0
M  V30 5 C 0.497723 -2.741357 0.464136 0
M  V30 6 C 0.257046 -1.442679 0.932861 0
M  V30 7 N 0.389907 -1.189646 2.242683 0
M  V30 8 C -0.137924 -0.258858 0.182293 0
M  V30 9 C -0.737931 -0.314827 -1.056754 0
M  V30 10 N -0.951805 0.952518 -1.421000 0
M  V30 11 C -0.503868 1.762337 -0.450248 0
M  V30 12 C -0.487051 3.154961 -0.334464 0
M  V30 13 C 0.059903 3.720882 0.822732 0
M  V30 14 C 0.580063 2.924440 1.845282 0
M  V30 15 Br 1.304527 3.812664 3.385860 0
M  V30 16 C 0.561640 1.537400 1.726606 0
M  V30 17 C 0.020180 1.033187 0.584787 0
M  V30 18 C -1.142529 -1.387469 -1.958849 0
M  V30 19 C -1.009121 -2.776270 -1.447719 0
M  V30 20 C 0.378192 -3.156521 -0.982915 0
M  V30 21 H 1.689876 -1.358559 4.939747 0
M  V30 22 H 0.096874 -2.398710 4.990444 0
M  V30 23 H 1.039127 -4.713502 0.942356 0
M  V30 24 H -1.389341 1.333219 -2.298929 0
M  V30 25 H -0.878753 3.812731 -1.101210 0
M  V30 26 H 0.080685 4.804006 0.928714 0
M  V30 27 H 0.981794 1.012911 2.553197 0
M  V30 28 H -0.636877 -1.335799 -2.956306 0
M  V30 29 H -2.221979 -1.238418 -2.197272 0
M  V30 30 H -1.738082 -3.020879 -0.633841 0
M  V30 31 H -1.283572 -3.453947 -2.282951 0
M  V30 32 H 0.469277 -4.245349 -1.070197 0
M  V30 33 H 1.165540 -2.629474 -1.560512 0
M  V30 END ATOM
M  V30 BEGIN BOND
M  V30 1 1 1 2
M  V30 2 2 2 3
M  V30 3 1 3 4
M  V30 4 2 4 5
M  V30 5 1 5 6
M  V30 6 2 6 7
M  V30 7 1 6 8
M  V30 8 2 8 9
M  V30 9 1 9 10
M  V30 10 1 10 11
M  V30 11 2 11 12
M  V30 12 1 12 13
M  V30 13 2 13 14
M  V30 14 1 14 15
M  V30 15 1 14 16
M  V30 16 2 16 17
M  V30 17 1 9 18
M  V30 18 1 18 19
M  V30 19 1 19 20
M  V30 20 1 7 2
M  V30 21 1 17 8
M  V30 22 1 20 5
M  V30 23 1 17 11
M  V30 24 1 1 21
M  V30 25 1 1 22
M  V30 26 1 4 23
M  V30 27 1 10 24
M  V30 28 1 12 25
M  V30 29 1 13 26
M  V30 30 1 16 27
M  V30 31 1 18 28
M  V30 32 1 18 29
M  V30 33 1 19 30
M  V30 34 1 19 31
M  V30 35 1 20 32
M  V30 36 1 20 33
M  V30 END BOND
M  V30 END CTAB
M  END
>  <Dataset>  (28) 
ChEMBL_Kinases

>  <Ligand_Instance>  (28) 
nan

>  <PDB_ID>  (28) 
nan

>  <Standardized_SMILES>  (28) 
Nc1ncc2c(n1)-c1c([nH]c3ccc(Br)cc13)CCC2

>  <Name>  (28) 
nan

>  <Pocket>  (28) 
nan

>  <ATP_Site>  (28) 
nan

>  <Peripheral>  (28) 
nan

>  <Num_H_Atoms_ProtBoundConf>  (28) 
nan

>  <Num_Resolved_Atoms>  (28) 
nan

>  <Num_Not_Resolved_Atoms>  (28) 
nan

$$$$
CHEMBL2334589
     RDKit          3D

  0  0  0  0  0  0  0  0  0  0999 V3000
M  V30 BEGIN CTAB
M  V30 COUNTS 49 51 0 0 0
M  V30 BEGIN ATOM
M  V30 1 C 5.414067 -0.943723 5.388698 0
M  V30 2 O 4.093979 -1.088819 4.893738 0
M  V30 3 C 4.038971 -2.351265 4.263589 0
M  V30 4 C 2.663981 -2.579747 3.688119 0
M  V30 5 O 2.245534 -1.665660 2.740160 0
M  V30 6 C 2.767832 -1.307575 1.545934 0
M  V30 7 C 3.842657 -1.645651 0.755054 0
M  V30 8 N 4.064949 -1.063615 -0.430170 0
M  V30 9 C 3.237553 -0.104060 -0.918852 0
M  V30 10 N 3.739155 0.303790 -2.188320 0
M  V30 11 N 2.149673 0.286322 -0.190894 0
M  V30 12 C 1.933214 -0.305913 1.004759 0
M  V30 13 C 0.739709 0.251486 1.645162 0
M  V30 14 C 0.897945 0.816410 2.913249 0
M  V30 15 N -0.278965 1.290907 3.352197 0
M  V30 16 C -1.219057 1.046714 2.386787 0
M  V30 17 C -2.591298 1.293249 2.261202 0
M  V30 18 C -3.259789 0.889671 1.103428 0
M  V30 19 C -2.554582 0.265237 0.123599 0
M  V30 20 C -3.266348 -0.162468 -1.071655 0
M  V30 21 C -3.866647 -0.529588 -2.048728 0
M  V30 22 C -4.620222 -0.983965 -3.245653 0
M  V30 23 C -5.133629 0.188584 -4.050742 0
M  V30 24 C -5.858957 -1.769468 -2.787075 0
M  V30 25 O -3.762879 -1.773069 -3.996173 0
M  V30 26 C -1.209647 -0.015460 0.160468 0
M  V30 27 C -0.579907 0.406642 1.341421 0
M  V30 28 H 6.122399 -0.981045 4.549251 0
M  V30 29 H 5.565588 -0.014012 5.944184 0
M  V30 30 H 5.528848 -1.810645 6.081604 0
M  V30 31 H 4.869812 -2.471843 3.557605 0
M  V30 32 H 4.183396 -3.160058 5.035070 0
M  V30 33 H 2.575252 -3.635397 3.310440 0
M  V30 34 H 1.963251 -2.522583 4.572569 0
M  V30 35 H 4.417685 -2.416247 1.246047 0
M  V30 36 H 3.472292 0.064789 -3.155074 0
M  V30 37 H 3.455340 0.049985 -3.178147 0
M  V30 38 H 1.768456 0.932394 3.577036 0
M  V30 39 H -0.514735 1.779886 4.267983 0
M  V30 40 H -3.022739 1.795057 3.112793 0
M  V30 41 H -4.311962 1.109969 1.071116 0
M  V30 42 H -5.482784 0.947508 -3.308218 0
M  V30 43 H -6.056608 -0.161909 -4.581651 0
M  V30 44 H -4.384963 0.597915 -4.755901 0
M  V30 45 H -6.462641 -1.953764 -3.684324 0
M  V30 46 H -6.351292 -1.158504 -2.002773 0
M  V30 47 H -5.477590 -2.688607 -2.288850 0
M  V30 48 H -4.246085 -2.646253 -4.148286 0
M  V30 49 H -0.645313 -0.513055 -0.616178 0
M  V30 END ATOM
M  V30 BEGIN BOND
M  V30 1 1 1 2
M  V30 2 1 2 3
M  V30 3 1 3 4
M  V30 4 1 4 5
M  V30 5 1 5 6
M  V30 6 2 6 7
M  V30 7 1 7 8
M  V30 8 2 8 9
M  V30 9 1 9 10
M  V30 10 1 9 11
M  V30 11 2 11 12
M  V30 12 1 12 13
M  V30 13 2 13 14
M  V30 14 1 14 15
M  V30 15 1 15 16
M  V30 16 2 16 17
M  V30 17 1 17 18
M  V30 18 2 18 19
M  V30 19 1 19 20
M  V30 20 3 20 21
M  V30 21 1 21 22
M  V30 22 1 22 23
M  V30 23 1 22 24
M  V30 24 1 22 25
M  V30 25 1 19 26
M  V30 26 2 26 27
M  V30 27 1 12 6
M  V30 28 1 27 13
M  V30 29 1 27 16
M  V30 30 1 1 28
M  V30 31 1 1 29
M  V30 32 1 1 30
M  V30 33 1 3 31
M  V30 34 1 3 32
M  V30 35 1 4 33
M  V30 36 1 4 34
M  V30 37 1 7 35
M  V30 38 1 10 36
M  V30 39 1 10 37
M  V30 40 1 14 38
M  V30 41 1 15 39
M  V30 42 1 17 40
M  V30 43 1 18 41
M  V30 44 1 23 42
M  V30 45 1 23 43
M  V30 46 1 23 44
M  V30 47 1 24 45
M  V30 48 1 24 46
M  V30 49 1 24 47
M  V30 50 1 25 48
M  V30 51 1 26 49
M  V30 END BOND
M  V30 END CTAB
M  END
>  <Dataset>  (29) 
ChEMBL_Kinases

>  <Ligand_Instance>  (29) 
nan

>  <PDB_ID>  (29) 
nan

>  <Standardized_SMILES>  (29) 
COCCOc1cnc(N)nc1-c1c[nH]c2ccc(C#CC(C)(C)O)cc12

>  <Name>  (29) 
nan

>  <Pocket>  (29) 
nan

>  <ATP_Site>  (29) 
nan

>  <Peripheral>  (29) 
nan

>  <Num_H_Atoms_ProtBoundConf>  (29) 
nan

>  <Num_Resolved_Atoms>  (29) 
nan

>  <Num_Not_Resolved_Atoms>  (29) 
nan

$$$$
CHEMBL2334590
     RDKit          3D

  0  0  0  0  0  0  0  0  0  0999 V3000
M  V30 BEGIN CTAB
M  V30 COUNTS 28 30 0 0 0
M  V30 BEGIN ATOM
M  V30 1 C -2.249479 -2.559765 0.451961 0
M  V30 2 C -0.771796 -2.486541 0.527363 0
M  V30 3 N 0.178533 -3.464841 0.554836 0
M  V30 4 C 1.390409 -2.868776 0.627652 0
M  V30 5 C 2.641250 -3.454909 0.678194 0
M  V30 6 C 3.735661 -2.617828 0.750080 0
M  V30 7 C 3.614618 -1.243557 0.772189 0
M  V30 8 Cl 4.971567 -0.133469 0.862803 0
M  V30 9 C 2.329772 -0.697616 0.719122 0
M  V30 10 N 1.256176 -1.536992 0.648232 0
M  V30 11 C -0.085520 -1.291220 0.586176 0
M  V30 12 C -0.610886 0.090709 0.588215 0
M  V30 13 C -1.594094 0.512935 -0.267599 0
M  V30 14 C -2.037073 1.820061 -0.209486 0
M  V30 15 N -1.472483 2.633683 0.701481 0
M  V30 16 C -0.507678 2.245418 1.551623 0
M  V30 17 N 0.087132 3.108889 2.513821 0
M  V30 18 N -0.080582 0.954340 1.483356 0
M  V30 19 H -2.565964 -3.588766 0.783468 0
M  V30 20 H -2.632045 -2.467161 -0.581725 0
M  V30 21 H -2.702874 -1.817515 1.160800 0
M  V30 22 H 2.822030 -4.523977 0.665316 0
M  V30 23 H 4.735637 -3.028072 0.791683 0
M  V30 24 H 2.201524 0.382778 0.734847 0
M  V30 25 H -2.016458 -0.175709 -0.980873 0
M  V30 26 H -2.818945 2.163862 -0.886829 0
M  V30 27 H -0.586823 3.130517 3.330662 0
M  V30 28 H 0.973993 3.660536 2.545240 0
M  V30 END ATOM
M  V30 BEGIN BOND
M  V30 1 1 1 2
M  V30 2 1 2 3
M  V30 3 2 3 4
M  V30 4 1 4 5
M  V30 5 2 5 6
M  V30 6 1 6 7
M  V30 7 1 7 8
M  V30 8 2 7 9
M  V30 9 1 9 10
M  V30 10 1 10 11
M  V30 11 1 11 12
M  V30 12 2 12 13
M  V30 13 1 13 14
M  V30 14 2 14 15
M  V30 15 1 15 16
M  V30 16 1 16 17
M  V30 17 2 16 18
M  V30 18 2 11 2
M  V30 19 1 18 12
M  V30 20 1 10 4
M  V30 21 1 1 19
M  V30 22 1 1 20
M  V30 23 1 1 21
M  V30 24 1 5 22
M  V30 25 1 6 23
M  V30 26 1 9 24
M  V30 27 1 13 25
M  V30 28 1 14 26
M  V30 29 1 17 27
M  V30 30 1 17 28
M  V30 END BOND
M  V30 END CTAB
M  END
>  <Dataset>  (30) 
ChEMBL_Kinases

>  <Ligand_Instance>  (30) 
nan

>  <PDB_ID>  (30) 
nan

>  <Standardized_SMILES>  (30) 
Cc1nc2ccc(Cl)cn2c1-c1ccnc(N)n1

>  <Name>  (30) 
nan

>  <Pocket>  (30) 
nan

>  <ATP_Site>  (30) 
nan

>  <Peripheral>  (30) 
nan

>  <Num_H_Atoms_ProtBoundConf>  (30) 
nan

>  <Num_Resolved_Atoms>  (30) 
nan

>  <Num_Not_Resolved_Atoms>  (30) 
nan

$$$$
CHEMBL2334591
     RDKit          3D

  0  0  0  0  0  0  0  0  0  0999 V3000
M  V30 BEGIN CTAB
M  V30 COUNTS 25 27 0 0 0
M  V30 BEGIN ATOM
M  V30 1 N -1.405609 -4.079450 3.044387 0
M  V30 2 C -0.311156 -3.241699 2.650325 0
M  V30 3 N 0.958979 -3.507048 2.992576 0
M  V30 4 C 1.967045 -2.683075 2.595803 0
M  V30 5 C 1.556689 -1.611877 1.848546 0
M  V30 6 C 0.300400 -1.265778 1.455986 0
M  V30 7 C -0.194053 -0.164024 0.677702 0
M  V30 8 C -1.570061 -0.064956 0.428684 0
M  V30 9 N -1.800951 1.032279 -0.311237 0
M  V30 10 C -0.658255 1.667498 -0.567987 0
M  V30 11 C -0.304223 2.806285 -1.256113 0
M  V30 12 C 1.005253 3.226621 -1.351611 0
M  V30 13 C 1.928078 2.426186 -0.710406 0
M  V30 14 Br 3.757502 2.994597 -0.831673 0
M  V30 15 C 1.523068 1.306868 -0.041713 0
M  V30 16 N 0.252043 0.906157 0.046280 0
M  V30 17 N -0.590618 -2.158641 1.913008 0
M  V30 18 H -1.372391 -4.569850 3.957855 0
M  V30 19 H -2.249851 -4.221334 2.443534 0
M  V30 20 H 2.998761 -2.854732 2.845458 0
M  V30 21 H 2.371357 -0.984914 1.553049 0
M  V30 22 H -2.461697 -0.641180 0.681075 0
M  V30 23 H -1.131467 3.357486 -1.723444 0
M  V30 24 H 1.177271 4.132079 -1.913471 0
M  V30 25 H 2.339333 0.787865 0.403349 0
M  V30 END ATOM
M  V30 BEGIN BOND
M  V30 1 1 1 2
M  V30 2 2 2 3
M  V30 3 1 3 4
M  V30 4 2 4 5
M  V30 5 1 5 6
M  V30 6 1 6 7
M  V30 7 2 7 8
M  V30 8 1 8 9
M  V30 9 2 9 10
M  V30 10 1 10 11
M  V30 11 2 11 12
M  V30 12 1 12 13
M  V30 13 1 13 14
M  V30 14 2 13 15
M  V30 15 1 15 16
M  V30 16 2 6 17
M  V30 17 1 17 2
M  V30 18 1 16 7
M  V30 19 1 16 10
M  V30 20 1 1 18
M  V30 21 1 1 19
M  V30 22 1 4 20
M  V30 23 1 5 21
M  V30 24 1 8 22
M  V30 25 1 11 23
M  V30 26 1 12 24
M  V30 27 1 15 25
M  V30 END BOND
M  V30 END CTAB
M  END
>  <Dataset>  (31) 
ChEMBL_Kinases

>  <Ligand_Instance>  (31) 
nan

>  <PDB_ID>  (31) 
nan

>  <Standardized_SMILES>  (31) 
Nc1nccc(-c2cnc3ccc(Br)cn23)n1

>  <Name>  (31) 
nan

>  <Pocket>  (31) 
nan

>  <ATP_Site>  (31) 
nan

>  <Peripheral>  (31) 
nan

>  <Num_H_Atoms_ProtBoundConf>  (31) 
nan

>  <Num_Resolved_Atoms>  (31) 
nan

>  <Num_Not_Resolved_Atoms>  (31) 
nan

$$$$
CHEMBL2334592
     RDKit          3D

  0  0  0  0  0  0  0  0  0  0999 V3000
M  V30 BEGIN CTAB
M  V30 COUNTS 28 30 0 0 0
M  V30 BEGIN ATOM
M  V30 1 C -2.323185 -1.939796 -0.285850 0
M  V30 2 C -0.918224 -2.080614 0.169584 0
M  V30 3 N -0.333003 -3.299113 0.281197 0
M  V30 4 C 0.929718 -3.095169 0.712775 0
M  V30 5 C 2.001789 -3.911259 1.012588 0
M  V30 6 C 3.228028 -3.453098 1.449213 0
M  V30 7 C 3.397424 -2.072364 1.598232 0
M  V30 8 Cl 4.909960 -1.381898 2.145235 0
M  V30 9 C 2.308746 -1.262368 1.292513 0
M  V30 10 C 1.087637 -1.725393 0.857259 0
M  V30 11 N -0.049293 -1.113854 0.522214 0
M  V30 12 C -0.334131 0.282194 0.521973 0
M  V30 13 C -1.005158 0.855174 -0.536608 0
M  V30 14 C -1.327660 2.207898 -0.625640 0
M  V30 15 N -0.924561 2.944749 0.431455 0
M  V30 16 C -0.266464 2.436279 1.490473 0
M  V30 17 N 0.130495 3.269761 2.573480 0
M  V30 18 N 0.022269 1.124696 1.531023 0
M  V30 19 H -2.951225 -2.764457 0.112980 0
M  V30 20 H -2.435186 -1.924766 -1.378193 0
M  V30 21 H -2.738062 -1.006399 0.169005 0
M  V30 22 H 1.904881 -4.995694 0.907505 0
M  V30 23 H 4.052183 -4.122617 1.676853 0
M  V30 24 H 2.452870 -0.190098 1.412405 0
M  V30 25 H -1.300363 0.201600 -1.355156 0
M  V30 26 H -1.856141 2.617088 -1.475748 0
M  V30 27 H 0.211289 2.883401 3.553277 0
M  V30 28 H 0.330973 4.263132 2.338565 0
M  V30 END ATOM
M  V30 BEGIN BOND
M  V30 1 1 1 2
M  V30 2 2 2 3
M  V30 3 1 3 4
M  V30 4 2 4 5
M  V30 5 1 5 6
M  V30 6 2 6 7
M  V30 7 1 7 8
M  V30 8 1 7 9
M  V30 9 2 9 10
M  V30 10 1 10 11
M  V30 11 1 11 12
M  V30 12 2 12 13
M  V30 13 1 13 14
M  V30 14 2 14 15
M  V30 15 1 15 16
M  V30 16 1 16 17
M  V30 17 2 16 18
M  V30 18 1 11 2
M  V30 19 1 18 12
M  V30 20 1 10 4
M  V30 21 1 1 19
M  V30 22 1 1 20
M  V30 23 1 1 21
M  V30 24 1 5 22
M  V30 25 1 6 23
M  V30 26 1 9 24
M  V30 27 1 13 25
M  V30 28 1 14 26
M  V30 29 1 17 27
M  V30 30 1 17 28
M  V30 END BOND
M  V30 END CTAB
M  END
>  <Dataset>  (32) 
ChEMBL_Kinases

>  <Ligand_Instance>  (32) 
nan

>  <PDB_ID>  (32) 
nan

>  <Standardized_SMILES>  (32) 
Cc1nc2ccc(Cl)cc2n1-c1ccnc(N)n1

>  <Name>  (32) 
nan

>  <Pocket>  (32) 
nan

>  <ATP_Site>  (32) 
nan

>  <Peripheral>  (32) 
nan

>  <Num_H_Atoms_ProtBoundConf>  (32) 
nan

>  <Num_Resolved_Atoms>  (32) 
nan

>  <Num_Not_Resolved_Atoms>  (32) 
nan

$$$$
CHEMBL2334716
     RDKit          3D

  0  0  0  0  0  0  0  0  0  0999 V3000
M  V30 BEGIN CTAB
M  V30 COUNTS 61 66 0 0 0
M  V30 BEGIN ATOM
M  V30 1 O 2.415854 0.533214 4.003283 0
M  V30 2 C 3.113811 1.012439 3.045210 0
M  V30 3 C 3.766660 0.155349 4.037170 0
M  V30 4 C 4.969145 -0.656210 3.723965 0
M  V30 5 C 5.157618 0.618606 4.454059 0
M  V30 6 N 2.633909 1.845440 2.022512 0
M  V30 7 C 3.652195 2.221747 1.091291 0
M  V30 8 C 3.105137 2.836618 -0.167338 0
M  V30 9 C 1.704229 3.299470 -0.079114 0
M  V30 10 C 0.751189 2.459132 0.715402 0 CFG=1
M  V30 11 N 0.417967 1.204939 0.071166 0
M  V30 12 C -0.480933 0.138424 0.440201 0
M  V30 13 C -0.626740 -0.999356 -0.360660 0
M  V30 14 C -1.522961 -1.933477 0.108765 0
M  V30 15 N -1.644432 -3.088135 -0.744455 0
M  V30 16 C -2.730665 -3.252330 -1.554748 0
M  V30 17 C -3.875936 -2.328255 -1.672396 0
M  V30 18 C -3.926371 -1.334802 -2.639132 0
M  V30 19 C -5.026810 -0.481269 -2.717409 0
M  V30 20 C -6.071089 -0.604243 -1.850119 0
M  V30 21 C -6.023340 -1.605398 -0.873638 0
M  V30 22 O -7.073621 -1.740813 0.010520 0
M  V30 23 C -4.929475 -2.469177 -0.780328 0
M  V30 24 N -2.580989 -4.402953 -2.231065 0
M  V30 25 C -1.421298 -4.977651 -1.869703 0
M  V30 26 C -0.774362 -6.138695 -2.232583 0
M  V30 27 C 0.448668 -6.391406 -1.614144 0
M  V30 28 C 1.055326 -5.580258 -0.678354 0
M  V30 29 C 0.375443 -4.429564 -0.343619 0
M  V30 30 C -0.836461 -4.146090 -0.934261 0
M  V30 31 C -2.246625 -1.807234 1.271421 0
M  V30 32 C -2.066939 -0.668287 2.024268 0
M  V30 33 N -1.197239 0.241111 1.571271 0
M  V30 34 C 1.220786 2.158830 2.105349 0
M  V30 35 H 3.084214 -0.221410 4.845255 0
M  V30 36 H 5.355882 -0.747418 2.687483 0
M  V30 37 H 5.118075 -1.570132 4.353055 0
M  V30 38 H 5.329507 0.649239 5.544478 0
M  V30 39 H 5.611570 1.461597 3.894316 0
M  V30 40 H 4.401234 2.857933 1.615912 0
M  V30 41 H 4.193197 1.304327 0.776831 0
M  V30 42 H 3.263872 2.202606 -1.067945 0
M  V30 43 H 3.736114 3.738664 -0.357838 0
M  V30 44 H 1.296447 3.300724 -1.126254 0
M  V30 45 H 1.628300 4.360677 0.237306 0
M  V30 46 H -0.193941 3.031628 0.813150 0
M  V30 47 H 0.936116 1.044711 -0.845683 0
M  V30 48 H -0.057297 -1.097383 -1.274358 0
M  V30 49 H -3.059043 -1.277432 -3.314100 0
M  V30 50 H -5.013753 0.275194 -3.490020 0
M  V30 51 H -6.939253 0.055373 -1.897826 0
M  V30 52 H -7.263578 -1.003051 0.685482 0
M  V30 53 H -4.910165 -3.237126 -0.018959 0
M  V30 54 H -1.189500 -6.819957 -2.957644 0
M  V30 55 H 0.970553 -7.307392 -1.892983 0
M  V30 56 H 2.005797 -5.846945 -0.245027 0
M  V30 57 H 0.791178 -3.758522 0.375017 0
M  V30 58 H -2.920192 -2.601867 1.541872 0
M  V30 59 H -2.622819 -0.533345 2.951430 0
M  V30 60 H 1.035111 3.056939 2.731621 0
M  V30 61 H 0.652906 1.332037 2.518072 0
M  V30 END ATOM
M  V30 BEGIN BOND
M  V30 1 2 1 2
M  V30 2 1 2 3
M  V30 3 1 3 4
M  V30 4 1 4 5
M  V30 5 1 2 6
M  V30 6 1 6 7
M  V30 7 1 7 8
M  V30 8 1 8 9
M  V30 9 1 9 10
M  V30 10 1 10 11
M  V30 11 1 11 12
M  V30 12 2 12 13
M  V30 13 1 13 14
M  V30 14 1 14 15
M  V30 15 1 15 16
M  V30 16 1 16 17
M  V30 17 2 17 18
M  V30 18 1 18 19
M  V30 19 2 19 20
M  V30 20 1 20 21
M  V30 21 1 21 22
M  V30 22 2 21 23
M  V30 23 2 16 24
M  V30 24 1 24 25
M  V30 25 2 25 26
M  V30 26 1 26 27
M  V30 27 2 27 28
M  V30 28 1 28 29
M  V30 29 2 29 30
M  V30 30 2 14 31
M  V30 31 1 31 32
M  V30 32 2 32 33
M  V30 33 1 10 34
M  V30 34 1 5 3
M  V30 35 1 34 6
M  V30 36 1 33 12
M  V30 37 1 30 15
M  V30 38 1 23 17
M  V30 39 1 30 25
M  V30 40 1 3 35
M  V30 41 1 4 36
M  V30 42 1 4 37
M  V30 43 1 5 38
M  V30 44 1 5 39
M  V30 45 1 7 40
M  V30 46 1 7 41
M  V30 47 1 8 42
M  V30 48 1 8 43
M  V30 49 1 9 44
M  V30 50 1 9 45
M  V30 51 1 10 46 CFG=1
M  V30 52 1 11 47
M  V30 53 1 13 48
M  V30 54 1 18 49
M  V30 55 1 19 50
M  V30 56 1 20 51
M  V30 57 1 22 52
M  V30 58 1 23 53
M  V30 59 1 26 54
M  V30 60 1 27 55
M  V30 61 1 28 56
M  V30 62 1 29 57
M  V30 63 1 31 58
M  V30 64 1 32 59
M  V30 65 1 34 60
M  V30 66 1 34 61
M  V30 END BOND
M  V30 END CTAB
M  END
>  <Dataset>  (33) 
ChEMBL_Kinases

>  <Ligand_Instance>  (33) 
nan

>  <PDB_ID>  (33) 
nan

>  <Standardized_SMILES>  (33) 
O=C(C1CC1)N1CCC[C@@H](Nc2cc(-n3c(-c4cccc(O)c4)nc4ccccc43)ccn2)C1

>  <Name>  (33) 
nan

>  <Pocket>  (33) 
nan

>  <ATP_Site>  (33) 
nan

>  <Peripheral>  (33) 
nan

>  <Num_H_Atoms_ProtBoundConf>  (33) 
nan

>  <Num_Resolved_Atoms>  (33) 
nan

>  <Num_Not_Resolved_Atoms>  (33) 
nan

$$$$
CHEMBL2334702
     RDKit          3D

  0  0  0  0  0  0  0  0  0  0999 V3000
M  V30 BEGIN CTAB
M  V30 COUNTS 56 61 0 0 0
M  V30 BEGIN ATOM
M  V30 1 O 3.722890 -5.588243 2.139194 0
M  V30 2 C 2.788753 -4.554215 2.005430 0
M  V30 3 C 1.443976 -4.841454 1.837712 0
M  V30 4 C 0.483853 -3.836677 1.701041 0
M  V30 5 C 0.889746 -2.516611 1.734411 0
M  V30 6 C 2.226700 -2.217776 1.900967 0
M  V30 7 C 3.174214 -3.211634 2.035873 0
M  V30 8 N 2.351683 -0.892183 1.898389 0
M  V30 9 C 1.126948 -0.311904 1.733874 0
M  V30 10 C 0.930900 1.130749 1.688681 0
M  V30 11 C -0.094327 1.763680 1.018162 0
M  V30 12 C -0.246826 3.135312 0.998724 0
M  V30 13 C 0.663677 3.906298 1.678013 0
M  V30 14 C 0.478710 5.274972 1.635884 0
M  V30 15 C 1.393197 6.051235 2.318256 0
M  V30 16 C 2.452326 5.505995 3.017788 0
M  V30 17 C 2.631584 4.127535 3.055347 0
M  V30 18 C 1.703609 3.345768 2.363278 0
M  V30 19 C 1.812986 1.965115 2.352268 0
M  V30 20 N 0.256291 -1.333357 1.636970 0
M  V30 21 C -1.144243 -1.157849 1.455665 0
M  V30 22 C -2.038257 -0.672902 2.388712 0
M  V30 23 C -3.358436 -0.585540 1.998173 0
M  V30 24 N -3.733907 -0.960660 0.762198 0
M  V30 25 C -2.864268 -1.434069 -0.150142 0
M  V30 26 N -3.321057 -1.815422 -1.443799 0
M  V30 27 C -2.363018 -2.313333 -2.380830 0
M  V30 28 C -1.632185 -3.551200 -1.956090 0
M  V30 29 C -0.471627 -3.688060 -2.948263 0
M  V30 30 O -0.959533 -3.800740 -4.247116 0
M  V30 31 C -1.705838 -2.720200 -4.662346 0
M  V30 32 C -2.923542 -2.570403 -3.746299 0
M  V30 33 N -1.591937 -1.513897 0.238533 0
M  V30 34 H 4.309956 -5.658155 2.973697 0
M  V30 35 H 1.134137 -5.886155 1.812751 0
M  V30 36 H -0.552450 -4.078670 1.572084 0
M  V30 37 H 4.230774 -2.985446 2.167641 0
M  V30 38 H -0.802353 1.160685 0.489722 0
M  V30 39 H -1.085667 3.568912 0.444805 0
M  V30 40 H -0.351296 5.699864 1.087538 0
M  V30 41 H 1.247357 7.122039 2.284509 0
M  V30 42 H 3.169920 6.115639 3.553259 0
M  V30 43 H 3.441578 3.636687 3.585686 0
M  V30 44 H 2.648443 1.521972 2.903252 0
M  V30 45 H -1.622556 -0.402582 3.349331 0
M  V30 46 H -4.056578 -0.200323 2.745113 0
M  V30 47 H -4.310941 -1.730584 -1.684069 0
M  V30 48 H -1.558441 -1.534433 -2.534031 0
M  V30 49 H -1.224692 -3.543013 -0.946533 0
M  V30 50 H -2.324474 -4.414220 -2.131896 0
M  V30 51 H 0.164569 -4.550677 -2.744479 0
M  V30 52 H 0.106542 -2.728412 -2.826051 0
M  V30 53 H -1.063827 -1.813543 -4.494824 0
M  V30 54 H -1.971556 -2.867363 -5.707120 0
M  V30 55 H -3.403233 -3.575918 -3.733017 0
M  V30 56 H -3.584752 -1.780500 -4.103183 0
M  V30 END ATOM
M  V30 BEGIN BOND
M  V30 1 1 1 2
M  V30 2 2 2 3
M  V30 3 1 3 4
M  V30 4 2 4 5
M  V30 5 1 5 6
M  V30 6 2 6 7
M  V30 7 1 6 8
M  V30 8 2 8 9
M  V30 9 1 9 10
M  V30 10 2 10 11
M  V30 11 1 11 12
M  V30 12 2 12 13
M  V30 13 1 13 14
M  V30 14 2 14 15
M  V30 15 1 15 16
M  V30 16 2 16 17
M  V30 17 1 17 18
M  V30 18 2 18 19
M  V30 19 1 9 20
M  V30 20 1 20 21
M  V30 21 2 21 22
M  V30 22 1 22 23
M  V30 23 2 23 24
M  V30 24 1 24 25
M  V30 25 1 25 26
M  V30 26 1 26 27
M  V30 27 1 27 28
M  V30 28 1 28 29
M  V30 29 1 29 30
M  V30 30 1 30 31
M  V30 31 1 31 32
M  V30 32 2 25 33
M  V30 33 1 7 2
M  V30 34 1 19 10
M  V30 35 1 33 21
M  V30 36 1 20 5
M  V30 37 1 32 27
M  V30 38 1 18 13
M  V30 39 1 1 34
M  V30 40 1 3 35
M  V30 41 1 4 36
M  V30 42 1 7 37
M  V30 43 1 11 38
M  V30 44 1 12 39
M  V30 45 1 14 40
M  V30 46 1 15 41
M  V30 47 1 16 42
M  V30 48 1 17 43
M  V30 49 1 19 44
M  V30 50 1 22 45
M  V30 51 1 23 46
M  V30 52 1 26 47
M  V30 53 1 27 48
M  V30 54 1 28 49
M  V30 55 1 28 50
M  V30 56 1 29 51
M  V30 57 1 29 52
M  V30 58 1 31 53
M  V30 59 1 31 54
M  V30 60 1 32 55
M  V30 61 1 32 56
M  V30 END BOND
M  V30 END CTAB
M  END
>  <Dataset>  (34) 
ChEMBL_Kinases

>  <Ligand_Instance>  (34) 
nan

>  <PDB_ID>  (34) 
nan

>  <Standardized_SMILES>  (34) 
Oc1ccc2c(c1)nc(-c1ccc3ccccc3c1)n2-c1ccnc(NC2CCOCC2)n1

>  <Name>  (34) 
nan

>  <Pocket>  (34) 
nan

>  <ATP_Site>  (34) 
nan

>  <Peripheral>  (34) 
nan

>  <Num_H_Atoms_ProtBoundConf>  (34) 
nan

>  <Num_Resolved_Atoms>  (34) 
nan

>  <Num_Not_Resolved_Atoms>  (34) 
nan

$$$$
CHEMBL2334703
     RDKit          3D

  0  0  0  0  0  0  0  0  0  0999 V3000
M  V30 BEGIN CTAB
M  V30 COUNTS 56 61 0 0 0
M  V30 BEGIN ATOM
M  V30 1 O 2.313442 -5.654449 2.415894 0
M  V30 2 C 2.672221 -4.321552 2.234084 0
M  V30 3 C 3.982184 -3.919256 2.439930 0
M  V30 4 C 4.363484 -2.606562 2.266936 0
M  V30 5 C 3.395045 -1.700322 1.880289 0
M  V30 6 N 3.501772 -0.375327 1.645444 0
M  V30 7 C 2.280463 0.113032 1.285460 0
M  V30 8 C 1.965418 1.498230 0.947582 0
M  V30 9 C 1.539731 2.003525 -0.270414 0
M  V30 10 C 1.293835 3.363466 -0.378931 0
M  V30 11 C 1.467786 4.204336 0.702302 0
M  V30 12 C 1.198251 5.548267 0.501593 0
M  V30 13 C 1.359312 6.435787 1.563562 0
M  V30 14 C 1.781138 5.970535 2.790650 0
M  V30 15 C 2.043889 4.613082 2.959858 0
M  V30 16 C 1.892330 3.711235 1.923155 0
M  V30 17 C 2.137384 2.360671 2.033908 0
M  V30 18 N 1.411700 -0.914343 1.297038 0
M  V30 19 C 0.010300 -0.901693 0.990608 0
M  V30 20 C -0.842267 0.153791 1.244416 0
M  V30 21 C -2.172530 0.031464 0.897189 0
M  V30 22 N -2.632984 -1.094095 0.321907 0
M  V30 23 C -1.813504 -2.128959 0.069402 0
M  V30 24 N -2.269178 -3.326841 -0.535043 0
M  V30 25 C -3.628001 -3.559250 -0.937123 0
M  V30 26 C -3.827845 -4.934851 -1.537614 0
M  V30 27 C -3.541759 -5.008945 -3.000496 0
M  V30 28 O -2.843409 -3.852694 -3.360417 0
M  V30 29 C -3.775222 -2.813734 -3.323752 0
M  V30 30 C -4.175032 -2.525551 -1.893976 0
M  V30 31 N -0.521756 -1.994004 0.413388 0
M  V30 32 C 2.085860 -2.028997 1.660299 0
M  V30 33 C 1.741601 -3.363023 1.845491 0
M  V30 34 H 1.868558 -5.868436 3.310831 0
M  V30 35 H 4.762868 -4.596828 2.741283 0
M  V30 36 H 5.378320 -2.257810 2.419148 0
M  V30 37 H 1.439372 1.256144 -1.040185 0
M  V30 38 H 0.962558 3.709367 -1.353231 0
M  V30 39 H 0.864929 5.989402 -0.426875 0
M  V30 40 H 1.179426 7.515032 1.531048 0
M  V30 41 H 1.931093 6.587913 3.662749 0
M  V30 42 H 2.375882 4.208830 3.903973 0
M  V30 43 H 2.465577 2.070559 3.028385 0
M  V30 44 H -0.421262 1.036362 1.708867 0
M  V30 45 H -2.853441 0.831985 1.082138 0
M  V30 46 H -1.593058 -4.102491 -0.708618 0
M  V30 47 H -4.250218 -3.517874 -0.018827 0
M  V30 48 H -4.837601 -5.358049 -1.344975 0
M  V30 49 H -3.113442 -5.616935 -0.989913 0
M  V30 50 H -4.512598 -4.954421 -3.564893 0
M  V30 51 H -2.974421 -5.896135 -3.310382 0
M  V30 52 H -3.354817 -1.917875 -3.826925 0
M  V30 53 H -4.629012 -3.144847 -3.961076 0
M  V30 54 H -5.281686 -2.615020 -1.844920 0
M  V30 55 H -3.891850 -1.506209 -1.644380 0
M  V30 56 H 0.714668 -3.641502 1.677004 0
M  V30 END ATOM
M  V30 BEGIN BOND
M  V30 1 1 1 2
M  V30 2 2 2 3
M  V30 3 1 3 4
M  V30 4 2 4 5
M  V30 5 1 5 6
M  V30 6 2 6 7
M  V30 7 1 7 8
M  V30 8 2 8 9
M  V30 9 1 9 10
M  V30 10 2 10 11
M  V30 11 1 11 12
M  V30 12 2 12 13
M  V30 13 1 13 14
M  V30 14 2 14 15
M  V30 15 1 15 16
M  V30 16 2 16 17
M  V30 17 1 7 18
M  V30 18 1 18 19
M  V30 19 2 19 20
M  V30 20 1 20 21
M  V30 21 2 21 22
M  V30 22 1 22 23
M  V30 23 1 23 24
M  V30 24 1 24 25
M  V30 25 1 25 26
M  V30 26 1 26 27
M  V30 27 1 27 28
M  V30 28 1 28 29
M  V30 29 1 29 30
M  V30 30 2 23 31
M  V30 31 1 18 32
M  V30 32 2 32 33
M  V30 33 1 33 2
M  V30 34 1 32 5
M  V30 35 1 17 8
M  V30 36 1 31 19
M  V30 37 1 16 11
M  V30 38 1 30 25
M  V30 39 1 1 34
M  V30 40 1 3 35
M  V30 41 1 4 36
M  V30 42 1 9 37
M  V30 43 1 10 38
M  V30 44 1 12 39
M  V30 45 1 13 40
M  V30 46 1 14 41
M  V30 47 1 15 42
M  V30 48 1 17 43
M  V30 49 1 20 44
M  V30 50 1 21 45
M  V30 51 1 24 46
M  V30 52 1 25 47
M  V30 53 1 26 48
M  V30 54 1 26 49
M  V30 55 1 27 50
M  V30 56 1 27 51
M  V30 57 1 29 52
M  V30 58 1 29 53
M  V30 59 1 30 54
M  V30 60 1 30 55
M  V30 61 1 33 56
M  V30 END BOND
M  V30 END CTAB
M  END
>  <Dataset>  (35) 
ChEMBL_Kinases

>  <Ligand_Instance>  (35) 
nan

>  <PDB_ID>  (35) 
nan

>  <Standardized_SMILES>  (35) 
Oc1ccc2nc(-c3ccc4ccccc4c3)n(-c3ccnc(NC4CCOCC4)n3)c2c1

>  <Name>  (35) 
nan

>  <Pocket>  (35) 
nan

>  <ATP_Site>  (35) 
nan

>  <Peripheral>  (35) 
nan

>  <Num_H_Atoms_ProtBoundConf>  (35) 
nan

>  <Num_Resolved_Atoms>  (35) 
nan

>  <Num_Not_Resolved_Atoms>  (35) 
nan

$$$$
CHEMBL2334704
     RDKit          3D

  0  0  0  0  0  0  0  0  0  0999 V3000
M  V30 BEGIN CTAB
M  V30 COUNTS 66 72 0 0 0
M  V30 BEGIN ATOM
M  V30 1 O 3.432004 -2.886945 4.343567 0
M  V30 2 C 3.267041 -1.661550 4.113264 0
M  V30 3 C 4.609375 -2.153870 4.405059 0
M  V30 4 C 5.827619 -1.488332 3.918670 0
M  V30 5 C 5.493123 -1.282841 5.326084 0
M  V30 6 N 1.963599 -1.185733 3.830298 0
M  V30 7 C 0.807766 -2.063015 3.796188 0
M  V30 8 C 0.006273 -1.910208 2.526897 0
M  V30 9 C 0.811169 -0.999746 1.611334 0
M  V30 10 C 0.896969 0.334846 2.333344 0 CFG=1
M  V30 11 N -0.403505 0.872516 2.665004 0
M  V30 12 C -1.356205 1.168639 1.677040 0
M  V30 13 N -2.571228 1.673256 2.021376 0
M  V30 14 C -3.511147 1.971405 1.117809 0
M  V30 15 C -3.279974 1.774475 -0.227465 0
M  V30 16 C -2.046335 1.262199 -0.576159 0
M  V30 17 N -1.827596 1.066351 -1.970878 0
M  V30 18 C -1.836908 -0.054672 -2.696646 0
M  V30 19 C -2.095085 -1.345856 -2.109625 0
M  V30 20 C -3.352687 -1.900500 -1.922631 0
M  V30 21 C -3.543144 -3.146009 -1.353221 0
M  V30 22 C -2.419002 -3.856704 -0.958333 0
M  V30 23 C -2.524007 -5.111299 -0.379986 0
M  V30 24 C -1.374873 -5.781971 -0.002441 0
M  V30 25 C -0.101838 -5.246027 -0.179818 0
M  V30 26 C -0.014640 -4.009990 -0.750540 0
M  V30 27 C -1.160149 -3.328999 -1.132690 0
M  V30 28 C -0.977003 -2.075913 -1.706043 0
M  V30 29 N -1.570295 0.316508 -3.972218 0
M  V30 30 C -1.396822 1.637257 -4.052085 0
M  V30 31 C -1.110098 2.455347 -5.132401 0
M  V30 32 C -0.981424 3.822760 -4.921844 0
M  V30 33 O -0.695590 4.625448 -6.007739 0
M  V30 34 C -1.140784 4.351957 -3.637405 0
M  V30 35 C -1.423155 3.482157 -2.618102 0
M  V30 36 C -1.563601 2.119703 -2.757422 0
M  V30 37 N -1.134234 0.978610 0.372968 0
M  V30 38 C 1.771657 0.227058 3.564593 0
M  V30 39 H 4.689422 -3.259914 4.601772 0
M  V30 40 H 5.681344 -0.715619 3.139584 0
M  V30 41 H 6.707024 -2.124033 3.688792 0
M  V30 42 H 6.086356 -1.823372 6.098260 0
M  V30 43 H 4.993628 -0.393169 5.744892 0
M  V30 44 H 1.049453 -3.099008 4.035068 0
M  V30 45 H 0.141891 -1.692461 4.627976 0
M  V30 46 H -0.058100 -2.926908 2.077559 0
M  V30 47 H -0.988350 -1.474157 2.684340 0
M  V30 48 H 0.331149 -0.876576 0.641568 0
M  V30 49 H 1.826166 -1.419871 1.560136 0
M  V30 50 H 1.372502 1.024916 1.586331 0
M  V30 51 H -0.624735 1.039488 3.670531 0
M  V30 52 H -4.430990 2.362663 1.495127 0
M  V30 53 H -4.043723 2.017027 -0.957872 0
M  V30 54 H -4.189090 -1.287981 -2.255302 0
M  V30 55 H -4.533809 -3.558929 -1.217119 0
M  V30 56 H -3.488060 -5.560229 -0.225505 0
M  V30 57 H -1.472834 -6.749530 0.442680 0
M  V30 58 H 0.798813 -5.747933 0.105031 0
M  V30 59 H 0.975086 -3.568748 -0.899903 0
M  V30 60 H 0.019968 -1.680291 -1.833839 0
M  V30 61 H -0.999105 2.000929 -6.087266 0
M  V30 62 H -1.213665 5.489053 -6.087483 0
M  V30 63 H -1.040347 5.426581 -3.468181 0
M  V30 64 H -1.543191 3.913124 -1.628304 0
M  V30 65 H 2.723416 0.752520 3.372278 0
M  V30 66 H 1.311296 0.707813 4.448282 0
M  V30 END ATOM
M  V30 BEGIN BOND
M  V30 1 2 1 2
M  V30 2 1 2 3
M  V30 3 1 3 4
M  V30 4 1 4 5
M  V30 5 1 2 6
M  V30 6 1 6 7
M  V30 7 1 7 8
M  V30 8 1 8 9
M  V30 9 1 9 10
M  V30 10 1 10 11
M  V30 11 1 11 12
M  V30 12 2 12 13
M  V30 13 1 13 14
M  V30 14 2 14 15
M  V30 15 1 15 16
M  V30 16 1 16 17
M  V30 17 1 17 18
M  V30 18 1 18 19
M  V30 19 2 19 20
M  V30 20 1 20 21
M  V30 21 2 21 22
M  V30 22 1 22 23
M  V30 23 2 23 24
M  V30 24 1 24 25
M  V30 25 2 25 26
M  V30 26 1 26 27
M  V30 27 2 27 28
M  V30 28 2 18 29
M  V30 29 1 29 30
M  V30 30 2 30 31
M  V30 31 1 31 32
M  V30 32 1 32 33
M  V30 33 2 32 34
M  V30 34 1 34 35
M  V30 35 2 35 36
M  V30 36 2 16 37
M  V30 37 1 10 38
M  V30 38 1 5 3
M  V30 39 1 38 6
M  V30 40 1 37 12
M  V30 41 1 36 17
M  V30 42 1 28 19
M  V30 43 1 36 30
M  V30 44 1 27 22
M  V30 45 1 3 39
M  V30 46 1 4 40
M  V30 47 1 4 41
M  V30 48 1 5 42
M  V30 49 1 5 43
M  V30 50 1 7 44
M  V30 51 1 7 45
M  V30 52 1 8 46
M  V30 53 1 8 47
M  V30 54 1 9 48
M  V30 55 1 9 49
M  V30 56 1 10 50 CFG=3
M  V30 57 1 11 51
M  V30 58 1 14 52
M  V30 59 1 15 53
M  V30 60 1 20 54
M  V30 61 1 21 55
M  V30 62 1 23 56
M  V30 63 1 24 57
M  V30 64 1 25 58
M  V30 65 1 26 59
M  V30 66 1 28 60
M  V30 67 1 31 61
M  V30 68 1 33 62
M  V30 69 1 34 63
M  V30 70 1 35 64
M  V30 71 1 38 65
M  V30 72 1 38 66
M  V30 END BOND
M  V30 END CTAB
M  END
>  <Dataset>  (36) 
ChEMBL_Kinases

>  <Ligand_Instance>  (36) 
nan

>  <PDB_ID>  (36) 
nan

>  <Standardized_SMILES>  (36) 
O=C(C1CC1)N1CCC[C@@H](Nc2nccc(-n3c(-c4ccc5ccccc5c4)nc4cc(O)ccc43)n2)C1

>  <Name>  (36) 
nan

>  <Pocket>  (36) 
nan

>  <ATP_Site>  (36) 
nan

>  <Peripheral>  (36) 
nan

>  <Num_H_Atoms_ProtBoundConf>  (36) 
nan

>  <Num_Resolved_Atoms>  (36) 
nan

>  <Num_Not_Resolved_Atoms>  (36) 
nan

$$$$
CHEMBL2334705
     RDKit          3D

  0  0  0  0  0  0  0  0  0  0999 V3000
M  V30 BEGIN CTAB
M  V30 COUNTS 66 72 0 0 0
M  V30 BEGIN ATOM
M  V30 1 O 3.604888 -1.257401 5.419763 0
M  V30 2 C 4.019899 -0.803484 4.304828 0
M  V30 3 C 5.318089 -0.945092 4.955723 0
M  V30 4 C 6.410455 -1.522182 4.064499 0
M  V30 5 C 6.481317 -0.102945 4.615531 0
M  V30 6 N 2.774477 -0.669469 3.685262 0
M  V30 7 C 1.509964 -1.004479 4.303887 0
M  V30 8 C 0.921071 -2.167896 3.590041 0
M  V30 9 C 1.360158 -2.401783 2.195706 0
M  V30 10 C 2.072139 -1.311463 1.491283 0 CFG=1
M  V30 11 N 1.352052 -0.811825 0.320082 0
M  V30 12 C 0.044622 -0.239278 0.503279 0
M  V30 13 N -0.477685 -0.176637 1.740404 0
M  V30 14 C -1.698931 0.359726 1.900376 0
M  V30 15 C -2.439561 0.847972 0.855061 0
M  V30 16 C -1.873800 0.767947 -0.399752 0
M  V30 17 N -2.434938 1.200918 -1.634755 0
M  V30 18 C -2.555672 0.399505 -2.708394 0
M  V30 19 C -2.140130 -1.007702 -2.774949 0
M  V30 20 C -1.368700 -1.621248 -3.742313 0
M  V30 21 C -1.087163 -2.966845 -3.621942 0
M  V30 22 C -1.558011 -3.703767 -2.562436 0
M  V30 23 C -1.262963 -5.052983 -2.462283 0
M  V30 24 C -1.715342 -5.807064 -1.425156 0
M  V30 25 C -2.490410 -5.211735 -0.444332 0
M  V30 26 C -2.794109 -3.864018 -0.530116 0
M  V30 27 C -2.328672 -3.092767 -1.595244 0
M  V30 28 C -2.612497 -1.749767 -1.710889 0
M  V30 29 N -3.123768 1.100805 -3.721637 0
M  V30 30 C -3.372244 2.356210 -3.308084 0
M  V30 31 C -3.924700 3.456153 -3.915934 0
M  V30 32 C -4.030195 4.612554 -3.177248 0
M  V30 33 C -3.605651 4.698219 -1.869319 0
M  V30 34 O -3.740890 5.890889 -1.184024 0
M  V30 35 C -3.046689 3.581541 -1.257776 0
M  V30 36 C -2.934271 2.414311 -1.986208 0
M  V30 37 N -0.650510 0.229000 -0.548077 0
M  V30 38 C 2.567596 -0.182072 2.351128 0
M  V30 39 H 5.274339 -1.337622 5.986802 0
M  V30 40 H 6.222113 -1.668023 2.989042 0
M  V30 41 H 7.135011 -2.247194 4.502207 0
M  V30 42 H 7.218995 0.103931 5.416218 0
M  V30 43 H 6.470767 0.664187 3.816749 0
M  V30 44 H 0.825776 -0.114711 4.216014 0
M  V30 45 H 1.612679 -1.165794 5.397948 0
M  V30 46 H 1.210663 -3.078790 4.199204 0
M  V30 47 H -0.182344 -2.122572 3.718658 0
M  V30 48 H 0.434378 -2.622917 1.577355 0
M  V30 49 H 1.951912 -3.357779 2.113801 0
M  V30 50 H 3.017334 -1.752506 1.048078 0
M  V30 51 H 1.731949 -0.841918 -0.673011 0
M  V30 52 H -2.163906 0.432866 2.880466 0
M  V30 53 H -3.422254 1.293567 0.885723 0
M  V30 54 H -1.048418 -0.956914 -4.531851 0
M  V30 55 H -0.484459 -3.409463 -4.393142 0
M  V30 56 H -0.662014 -5.537607 -3.213152 0
M  V30 57 H -1.506396 -6.857349 -1.314318 0
M  V30 58 H -2.901296 -5.728790 0.426834 0
M  V30 59 H -3.403795 -3.374430 0.232396 0
M  V30 60 H -3.224559 -1.365041 -0.900366 0
M  V30 61 H -4.265107 3.414288 -4.940422 0
M  V30 62 H -4.463904 5.491220 -3.640754 0
M  V30 63 H -3.543305 6.773146 -1.670531 0
M  V30 64 H -2.702115 3.624838 -0.220011 0
M  V30 65 H 3.466762 0.311347 1.926694 0
M  V30 66 H 1.788750 0.613879 2.364620 0
M  V30 END ATOM
M  V30 BEGIN BOND
M  V30 1 2 1 2
M  V30 2 1 2 3
M  V30 3 1 3 4
M  V30 4 1 4 5
M  V30 5 1 2 6
M  V30 6 1 6 7
M  V30 7 1 7 8
M  V30 8 1 8 9
M  V30 9 1 9 10
M  V30 10 1 10 11
M  V30 11 1 11 12
M  V30 12 2 12 13
M  V30 13 1 13 14
M  V30 14 2 14 15
M  V30 15 1 15 16
M  V30 16 1 16 17
M  V30 17 1 17 18
M  V30 18 1 18 19
M  V30 19 2 19 20
M  V30 20 1 20 21
M  V30 21 2 21 22
M  V30 22 1 22 23
M  V30 23 2 23 24
M  V30 24 1 24 25
M  V30 25 2 25 26
M  V30 26 1 26 27
M  V30 27 2 27 28
M  V30 28 2 18 29
M  V30 29 1 29 30
M  V30 30 2 30 31
M  V30 31 1 31 32
M  V30 32 2 32 33
M  V30 33 1 33 34
M  V30 34 1 33 35
M  V30 35 2 35 36
M  V30 36 2 16 37
M  V30 37 1 10 38
M  V30 38 1 5 3
M  V30 39 1 38 6
M  V30 40 1 37 12
M  V30 41 1 36 17
M  V30 42 1 28 19
M  V30 43 1 36 30
M  V30 44 1 27 22
M  V30 45 1 3 39
M  V30 46 1 4 40
M  V30 47 1 4 41
M  V30 48 1 5 42
M  V30 49 1 5 43
M  V30 50 1 7 44
M  V30 51 1 7 45
M  V30 52 1 8 46
M  V30 53 1 8 47
M  V30 54 1 9 48
M  V30 55 1 9 49
M  V30 56 1 10 50 CFG=3
M  V30 57 1 11 51
M  V30 58 1 14 52
M  V30 59 1 15 53
M  V30 60 1 20 54
M  V30 61 1 21 55
M  V30 62 1 23 56
M  V30 63 1 24 57
M  V30 64 1 25 58
M  V30 65 1 26 59
M  V30 66 1 28 60
M  V30 67 1 31 61
M  V30 68 1 32 62
M  V30 69 1 34 63
M  V30 70 1 35 64
M  V30 71 1 38 65
M  V30 72 1 38 66
M  V30 END BOND
M  V30 END CTAB
M  END
>  <Dataset>  (37) 
ChEMBL_Kinases

>  <Ligand_Instance>  (37) 
nan

>  <PDB_ID>  (37) 
nan

>  <Standardized_SMILES>  (37) 
O=C(C1CC1)N1CCC[C@@H](Nc2nccc(-n3c(-c4ccc5ccccc5c4)nc4ccc(O)cc43)n2)C1

>  <Name>  (37) 
nan

>  <Pocket>  (37) 
nan

>  <ATP_Site>  (37) 
nan

>  <Peripheral>  (37) 
nan

>  <Num_H_Atoms_ProtBoundConf>  (37) 
nan

>  <Num_Resolved_Atoms>  (37) 
nan

>  <Num_Not_Resolved_Atoms>  (37) 
nan

$$$$
CHEMBL2334706
     RDKit          3D

  0  0  0  0  0  0  0  0  0  0999 V3000
M  V30 BEGIN CTAB
M  V30 COUNTS 58 63 0 0 0
M  V30 BEGIN ATOM
M  V30 1 C 3.755791 -5.635566 2.584490 0
M  V30 2 C 4.193198 -4.815895 3.609094 0
M  V30 3 C 4.069328 -3.442549 3.548868 0
M  V30 4 C 3.496780 -2.856495 2.445298 0
M  V30 5 C 3.354845 -1.484370 2.347381 0
M  V30 6 C 2.768883 -0.963403 1.206630 0
M  V30 7 C 2.597669 0.497665 1.060741 0
M  V30 8 N 3.631003 1.346082 1.227800 0
M  V30 9 C 3.224269 2.614121 1.043827 0
M  V30 10 C 3.793147 3.878950 1.076927 0
M  V30 11 C 2.994086 4.951249 0.820212 0
M  V30 12 C 1.643575 4.882317 0.525150 0
M  V30 13 C 1.101339 3.605971 0.498816 0
M  V30 14 C 1.877214 2.494741 0.753250 0
M  V30 15 N 1.475177 1.211846 0.758562 0
M  V30 16 C 0.259170 0.555075 0.536719 0
M  V30 17 C -0.124787 -0.456381 1.395587 0
M  V30 18 C -1.319785 -1.114312 1.191859 0
M  V30 19 N -2.095162 -0.763194 0.160804 0
M  V30 20 C -1.812410 0.202876 -0.727246 0
M  V30 21 N -2.670242 0.536177 -1.804438 0
M  V30 22 C -3.923727 -0.220722 -1.940677 0
M  V30 23 C -4.820186 -0.098759 -0.761956 0
M  V30 24 C -5.097413 -1.305546 0.038901 0
M  V30 25 C -4.726988 -2.622235 -0.547968 0
M  V30 26 C -4.699904 -2.615285 -2.058020 0
M  V30 27 C -3.689033 -1.596045 -2.468436 0
M  V30 28 C -0.620649 0.842567 -0.505052 0
M  V30 29 C 2.308019 -1.710004 0.143846 0
M  V30 30 C 2.447440 -3.082991 0.236419 0
M  V30 31 C 3.030731 -3.611550 1.370539 0
M  V30 32 C 3.189923 -4.988968 1.503445 0
M  V30 33 H 3.832770 -6.714318 2.589660 0
M  V30 34 H 4.647601 -5.305859 4.481369 0
M  V30 35 H 4.423975 -2.838488 4.370938 0
M  V30 36 H 3.700675 -0.849747 3.155543 0
M  V30 37 H 4.848638 3.950180 1.306255 0
M  V30 38 H 3.493149 5.919941 0.859642 0
M  V30 39 H 1.099819 5.805077 0.336205 0
M  V30 40 H 0.051389 3.529355 0.271144 0
M  V30 41 H 0.483320 -0.762322 2.239516 0
M  V30 42 H -1.629257 -1.914132 1.866281 0
M  V30 43 H -2.359241 1.307108 -2.444701 0
M  V30 44 H -4.452303 0.310654 -2.791025 0
M  V30 45 H -5.778619 0.458860 -0.989633 0
M  V30 46 H -4.299204 0.627126 -0.064248 0
M  V30 47 H -4.685429 -1.266921 1.091314 0
M  V30 48 H -6.208697 -1.361501 0.235124 0
M  V30 49 H -5.453241 -3.438734 -0.261278 0
M  V30 50 H -3.740250 -3.005534 -0.207295 0
M  V30 51 H -5.691904 -2.477228 -2.524671 0
M  V30 52 H -4.322929 -3.606448 -2.386743 0
M  V30 53 H -3.647441 -1.638457 -3.588759 0
M  V30 54 H -2.689353 -2.011841 -2.170767 0
M  V30 55 H -0.298086 1.636086 -1.161649 0
M  V30 56 H 1.860656 -1.281466 -0.722675 0
M  V30 57 H 2.119849 -3.747144 -0.538123 0
M  V30 58 H 2.827421 -5.597460 0.664470 0
M  V30 END ATOM
M  V30 BEGIN BOND
M  V30 1 2 1 2
M  V30 2 1 2 3
M  V30 3 2 3 4
M  V30 4 1 4 5
M  V30 5 2 5 6
M  V30 6 1 6 7
M  V30 7 2 7 8
M  V30 8 1 8 9
M  V30 9 2 9 10
M  V30 10 1 10 11
M  V30 11 2 11 12
M  V30 12 1 12 13
M  V30 13 2 13 14
M  V30 14 1 14 15
M  V30 15 1 15 16
M  V30 16 2 16 17
M  V30 17 1 17 18
M  V30 18 2 18 19
M  V30 19 1 19 20
M  V30 20 1 20 21
M  V30 21 1 21 22
M  V30 22 1 22 23
M  V30 23 1 23 24
M  V30 24 1 24 25
M  V30 25 1 25 26
M  V30 26 1 26 27
M  V30 27 2 20 28
M  V30 28 1 6 29
M  V30 29 2 29 30
M  V30 30 1 30 31
M  V30 31 2 31 32
M  V30 32 1 32 1
M  V30 33 1 31 4
M  V30 34 1 15 7
M  V30 35 1 28 16
M  V30 36 1 14 9
M  V30 37 1 27 22
M  V30 38 1 1 33
M  V30 39 1 2 34
M  V30 40 1 3 35
M  V30 41 1 5 36
M  V30 42 1 10 37
M  V30 43 1 11 38
M  V30 44 1 12 39
M  V30 45 1 13 40
M  V30 46 1 17 41
M  V30 47 1 18 42
M  V30 48 1 21 43
M  V30 49 1 22 44
M  V30 50 1 23 45
M  V30 51 1 23 46
M  V30 52 1 24 47
M  V30 53 1 24 48
M  V30 54 1 25 49
M  V30 55 1 25 50
M  V30 56 1 26 51
M  V30 57 1 26 52
M  V30 58 1 27 53
M  V30 59 1 27 54
M  V30 60 1 28 55
M  V30 61 1 29 56
M  V30 62 1 30 57
M  V30 63 1 32 58
M  V30 END BOND
M  V30 END CTAB
M  END
>  <Dataset>  (38) 
ChEMBL_Kinases

>  <Ligand_Instance>  (38) 
nan

>  <PDB_ID>  (38) 
nan

>  <Standardized_SMILES>  (38) 
c1ccc2cc(-c3nc4ccccc4n3-c3ccnc(NC4CCCCC4)c3)ccc2c1

>  <Name>  (38) 
nan

>  <Pocket>  (38) 
nan

>  <ATP_Site>  (38) 
nan

>  <Peripheral>  (38) 
nan

>  <Num_H_Atoms_ProtBoundConf>  (38) 
nan

>  <Num_Resolved_Atoms>  (38) 
nan

>  <Num_Not_Resolved_Atoms>  (38) 
nan

$$$$
CHEMBL2334707
     RDKit          3D

  0  0  0  0  0  0  0  0  0  0999 V3000
M  V30 BEGIN CTAB
M  V30 COUNTS 56 61 0 0 0
M  V30 BEGIN ATOM
M  V30 1 C 3.796729 -1.910877 -4.837944 0
M  V30 2 C 4.524588 -2.506871 -3.823889 0
M  V30 3 C 4.378217 -2.057457 -2.520963 0
M  V30 4 C 3.507906 -1.022660 -2.260392 0
M  V30 5 C 3.351556 -0.564314 -0.968140 0
M  V30 6 C 2.486490 0.473599 -0.666751 0
M  V30 7 C 2.272830 1.008821 0.682308 0
M  V30 8 N 3.021391 2.045331 1.128490 0
M  V30 9 C 2.639124 2.361566 2.402945 0
M  V30 10 C 3.010900 3.290582 3.360573 0
M  V30 11 C 2.344059 3.268602 4.564683 0
M  V30 12 C 1.335644 2.376684 4.859832 0
M  V30 13 C 0.971288 1.454407 3.900325 0
M  V30 14 C 1.630476 1.459623 2.680702 0
M  V30 15 N 1.394976 0.630819 1.647174 0
M  V30 16 C 0.520121 -0.427350 1.398060 0
M  V30 17 C 1.016250 -1.736440 1.326345 0
M  V30 18 C 0.070350 -2.729518 1.073850 0
M  V30 19 N -1.250642 -2.488747 0.902810 0
M  V30 20 C -1.704370 -1.223854 0.975950 0
M  V30 21 N -3.086096 -0.931663 0.801464 0
M  V30 22 C -4.054371 -1.980802 0.539698 0
M  V30 23 C -5.450145 -1.435796 0.388662 0
M  V30 24 C -6.538347 -2.388752 0.750596 0
M  V30 25 O -6.080793 -3.702601 0.768657 0
M  V30 26 C -5.222479 -3.787460 1.867104 0
M  V30 27 C -3.946806 -3.009703 1.636083 0
M  V30 28 C -0.828464 -0.186412 1.222902 0
M  V30 29 C 1.740147 1.093658 -1.665646 0
M  V30 30 C 1.893749 0.637443 -2.962247 0
M  V30 31 C 2.764441 -0.402225 -3.242808 0
M  V30 32 C 2.919539 -0.863237 -4.553930 0
M  V30 33 H 3.877520 -2.228160 -5.873855 0
M  V30 34 H 5.199156 -3.318201 -4.068188 0
M  V30 35 H 4.964420 -2.544226 -1.735469 0
M  V30 36 H 3.900428 -1.005764 -0.167214 0
M  V30 37 H 3.800725 3.959308 3.076474 0
M  V30 38 H 2.696434 4.034270 5.268078 0
M  V30 39 H 0.848568 2.420261 5.845406 0
M  V30 40 H 0.177494 0.749991 4.128469 0
M  V30 41 H 2.063266 -1.983199 1.455572 0
M  V30 42 H 0.414608 -3.734652 1.013266 0
M  V30 43 H -3.440988 0.031121 0.855401 0
M  V30 44 H -3.766874 -2.463798 -0.420751 0
M  V30 45 H -5.611865 -1.129338 -0.685185 0
M  V30 46 H -5.592649 -0.492741 0.958079 0
M  V30 47 H -7.366120 -2.375662 -0.012401 0
M  V30 48 H -6.990169 -2.217797 1.752944 0
M  V30 49 H -5.697233 -3.446178 2.810893 0
M  V30 50 H -5.049078 -4.880435 2.009119 0
M  V30 51 H -3.600735 -2.545916 2.567844 0
M  V30 52 H -3.192034 -3.792135 1.337576 0
M  V30 53 H -1.187155 0.837933 1.283441 0
M  V30 54 H 1.043877 1.909083 -1.514327 0
M  V30 55 H 1.342913 1.078335 -3.776065 0
M  V30 56 H 2.360737 -0.412361 -5.362769 0
M  V30 END ATOM
M  V30 BEGIN BOND
M  V30 1 2 1 2
M  V30 2 1 2 3
M  V30 3 2 3 4
M  V30 4 1 4 5
M  V30 5 2 5 6
M  V30 6 1 6 7
M  V30 7 2 7 8
M  V30 8 1 8 9
M  V30 9 2 9 10
M  V30 10 1 10 11
M  V30 11 2 11 12
M  V30 12 1 12 13
M  V30 13 2 13 14
M  V30 14 1 14 15
M  V30 15 1 15 16
M  V30 16 2 16 17
M  V30 17 1 17 18
M  V30 18 2 18 19
M  V30 19 1 19 20
M  V30 20 1 20 21
M  V30 21 1 21 22
M  V30 22 1 22 23
M  V30 23 1 23 24
M  V30 24 1 24 25
M  V30 25 1 25 26
M  V30 26 1 26 27
M  V30 27 2 20 28
M  V30 28 1 6 29
M  V30 29 2 29 30
M  V30 30 1 30 31
M  V30 31 2 31 32
M  V30 32 1 32 1
M  V30 33 1 31 4
M  V30 34 1 15 7
M  V30 35 1 28 16
M  V30 36 1 14 9
M  V30 37 1 27 22
M  V30 38 1 1 33
M  V30 39 1 2 34
M  V30 40 1 3 35
M  V30 41 1 5 36
M  V30 42 1 10 37
M  V30 43 1 11 38
M  V30 44 1 12 39
M  V30 45 1 13 40
M  V30 46 1 17 41
M  V30 47 1 18 42
M  V30 48 1 21 43
M  V30 49 1 22 44
M  V30 50 1 23 45
M  V30 51 1 23 46
M  V30 52 1 24 47
M  V30 53 1 24 48
M  V30 54 1 26 49
M  V30 55 1 26 50
M  V30 56 1 27 51
M  V30 57 1 27 52
M  V30 58 1 28 53
M  V30 59 1 29 54
M  V30 60 1 30 55
M  V30 61 1 32 56
M  V30 END BOND
M  V30 END CTAB
M  END
>  <Dataset>  (39) 
ChEMBL_Kinases

>  <Ligand_Instance>  (39) 
nan

>  <PDB_ID>  (39) 
nan

>  <Standardized_SMILES>  (39) 
c1ccc2cc(-c3nc4ccccc4n3-c3ccnc(NC4CCOCC4)c3)ccc2c1

>  <Name>  (39) 
nan

>  <Pocket>  (39) 
nan

>  <ATP_Site>  (39) 
nan

>  <Peripheral>  (39) 
nan

>  <Num_H_Atoms_ProtBoundConf>  (39) 
nan

>  <Num_Resolved_Atoms>  (39) 
nan

>  <Num_Not_Resolved_Atoms>  (39) 
nan

$$$$
CHEMBL2334713
     RDKit          3D

  0  0  0  0  0  0  0  0  0  0999 V3000
M  V30 BEGIN CTAB
M  V30 COUNTS 57 62 0 0 0
M  V30 BEGIN ATOM
M  V30 1 O 3.119646 -5.841881 2.916235 0
M  V30 2 C 2.336296 -4.736595 2.639731 0
M  V30 3 C 1.101879 -4.921824 2.041338 0
M  V30 4 C 0.307347 -3.839616 1.757609 0
M  V30 5 C 0.684597 -2.537033 2.045667 0
M  V30 6 C 1.921978 -2.412000 2.640379 0
M  V30 7 C 2.770210 -3.453782 2.952874 0
M  V30 8 N 2.119105 -1.093420 2.844743 0
M  V30 9 C 1.032901 -0.431587 2.387820 0
M  V30 10 C 0.807828 1.010487 2.403271 0
M  V30 11 C 0.258277 1.791571 3.394134 0
M  V30 12 C 0.135618 3.152461 3.202529 0
M  V30 13 C 0.547868 3.764926 2.042338 0
M  V30 14 C 0.394627 5.132935 1.918527 0
M  V30 15 C 0.797737 5.762161 0.773513 0
M  V30 16 C 1.351965 5.014730 -0.239805 0
M  V30 17 C 1.499388 3.653301 -0.104916 0
M  V30 18 C 1.099599 2.989958 1.044342 0
M  V30 19 C 1.234347 1.608719 1.215249 0
M  V30 20 N 0.144268 -1.314247 1.893800 0
M  V30 21 C -1.135338 -1.131227 1.305171 0
M  V30 22 C -2.118459 -0.436915 1.977027 0
M  V30 23 C -3.348450 -0.273498 1.385693 0
M  V30 24 N -3.656305 -0.753949 0.178918 0
M  V30 25 C -2.737856 -1.452393 -0.550116 0
M  V30 26 N -3.024519 -1.998339 -1.822734 0
M  V30 27 C -2.337226 -2.731873 -2.869887 0
M  V30 28 C -1.542030 -3.885369 -2.423097 0
M  V30 29 C -0.094681 -3.914024 -2.731276 0
M  V30 30 O 0.548867 -2.716327 -2.762990 0
M  V30 31 C -0.162221 -1.628309 -3.149983 0
M  V30 32 C -1.514975 -1.791071 -3.679987 0
M  V30 33 C -1.515069 -1.600428 0.067636 0
M  V30 34 H 3.949312 -5.714713 3.485928 0
M  V30 35 H 0.793131 -5.926671 1.810752 0
M  V30 36 H -0.676544 -3.974472 1.281741 0
M  V30 37 H 3.733706 -3.283687 3.422095 0
M  V30 38 H -0.036325 1.232870 4.265330 0
M  V30 39 H -0.312877 3.700374 4.042335 0
M  V30 40 H -0.042325 5.732869 2.713697 0
M  V30 41 H 0.708291 6.842191 0.603293 0
M  V30 42 H 1.680175 5.500602 -1.162871 0
M  V30 43 H 1.932664 3.068184 -0.896814 0
M  V30 44 H 1.681926 1.123726 0.355649 0
M  V30 45 H -1.977939 -0.006958 2.955972 0
M  V30 46 H -4.209641 0.255446 1.813501 0
M  V30 47 H -4.040449 -1.807826 -2.080860 0
M  V30 48 H -3.159184 -3.185514 -3.552180 0
M  V30 49 H -1.723855 -4.078749 -1.315994 0
M  V30 50 H -1.975637 -4.830504 -2.878517 0
M  V30 51 H 0.101631 -4.418206 -3.702562 0
M  V30 52 H 0.401203 -4.545205 -1.961370 0
M  V30 53 H -0.141818 -0.869716 -2.338879 0
M  V30 54 H 0.456559 -1.137098 -3.976093 0
M  V30 55 H -1.420661 -2.251775 -4.710838 0
M  V30 56 H -1.993380 -0.781333 -3.778019 0
M  V30 57 H -0.693169 -2.143131 -0.397959 0
M  V30 END ATOM
M  V30 BEGIN BOND
M  V30 1 1 1 2
M  V30 2 2 2 3
M  V30 3 1 3 4
M  V30 4 2 4 5
M  V30 5 1 5 6
M  V30 6 2 6 7
M  V30 7 1 6 8
M  V30 8 2 8 9
M  V30 9 1 9 10
M  V30 10 2 10 11
M  V30 11 1 11 12
M  V30 12 2 12 13
M  V30 13 1 13 14
M  V30 14 2 14 15
M  V30 15 1 15 16
M  V30 16 2 16 17
M  V30 17 1 17 18
M  V30 18 2 18 19
M  V30 19 1 9 20
M  V30 20 1 20 21
M  V30 21 2 21 22
M  V30 22 1 22 23
M  V30 23 2 23 24
M  V30 24 1 24 25
M  V30 25 1 25 26
M  V30 26 1 26 27
M  V30 27 1 27 28
M  V30 28 1 28 29
M  V30 29 1 29 30
M  V30 30 1 30 31
M  V30 31 1 31 32
M  V30 32 2 25 33
M  V30 33 1 7 2
M  V30 34 1 19 10
M  V30 35 1 33 21
M  V30 36 1 20 5
M  V30 37 1 32 27
M  V30 38 1 18 13
M  V30 39 1 1 34
M  V30 40 1 3 35
M  V30 41 1 4 36
M  V30 42 1 7 37
M  V30 43 1 11 38
M  V30 44 1 12 39
M  V30 45 1 14 40
M  V30 46 1 15 41
M  V30 47 1 16 42
M  V30 48 1 17 43
M  V30 49 1 19 44
M  V30 50 1 22 45
M  V30 51 1 23 46
M  V30 52 1 26 47
M  V30 53 1 27 48
M  V30 54 1 28 49
M  V30 55 1 28 50
M  V30 56 1 29 51
M  V30 57 1 29 52
M  V30 58 1 31 53
M  V30 59 1 31 54
M  V30 60 1 32 55
M  V30 61 1 32 56
M  V30 62 1 33 57
M  V30 END BOND
M  V30 END CTAB
M  END
>  <Dataset>  (40) 
ChEMBL_Kinases

>  <Ligand_Instance>  (40) 
nan

>  <PDB_ID>  (40) 
nan

>  <Standardized_SMILES>  (40) 
Oc1ccc2c(c1)nc(-c1ccc3ccccc3c1)n2-c1ccnc(NC2CCOCC2)c1

>  <Name>  (40) 
nan

>  <Pocket>  (40) 
nan

>  <ATP_Site>  (40) 
nan

>  <Peripheral>  (40) 
nan

>  <Num_H_Atoms_ProtBoundConf>  (40) 
nan

>  <Num_Resolved_Atoms>  (40) 
nan

>  <Num_Not_Resolved_Atoms>  (40) 
nan

$$$$
CHEMBL2334714
     RDKit          3D

  0  0  0  0  0  0  0  0  0  0999 V3000
M  V30 BEGIN CTAB
M  V30 COUNTS 58 63 0 0 0
M  V30 BEGIN ATOM
M  V30 1 O 4.197768 -5.470511 1.218478 0
M  V30 2 C 3.363983 -4.354229 1.286735 0
M  V30 3 C 2.014611 -4.636211 1.271782 0
M  V30 4 C 1.135977 -3.585705 1.336151 0
M  V30 5 C 1.521723 -2.256386 1.415408 0
M  V30 6 C 2.895871 -2.048150 1.425900 0
M  V30 7 C 3.832268 -3.062058 1.363644 0
M  V30 8 N 3.073251 -0.697924 1.506733 0
M  V30 9 C 1.842029 -0.109500 1.543880 0
M  V30 10 C 1.519204 1.318735 1.630159 0
M  V30 11 C 0.437007 1.867722 0.978620 0
M  V30 12 C 0.168744 3.220471 1.087152 0
M  V30 13 C 0.951453 4.060436 1.832945 0
M  V30 14 C 0.672225 5.407213 1.932319 0
M  V30 15 C 1.488852 6.204601 2.692899 0
M  V30 16 C 2.587446 5.707090 3.367575 0
M  V30 17 C 2.861043 4.356717 3.263378 0
M  V30 18 C 2.047161 3.532099 2.498720 0
M  V30 19 C 2.300323 2.180307 2.379608 0
M  V30 20 N 0.914791 -1.057470 1.488306 0
M  V30 21 C -0.505417 -1.011577 1.493161 0
M  V30 22 C -1.098404 -0.466462 2.612418 0
M  V30 23 C -2.473427 -0.422320 2.616537 0
M  V30 24 N -3.230389 -0.872245 1.611633 0
M  V30 25 C -2.706522 -1.420459 0.481496 0
M  V30 26 N -3.458989 -1.907729 -0.617271 0
M  V30 27 C -3.159314 -2.517411 -1.862138 0 CFG=2
M  V30 28 C -2.470045 -3.861636 -1.782641 0
M  V30 29 C -2.566905 -4.462823 -3.172247 0
M  V30 30 C -2.153295 -3.545134 -4.269381 0
M  V30 31 N -2.613085 -2.180974 -4.135587 0
M  V30 32 C -2.312075 -1.673714 -2.802198 0
M  V30 33 C -1.334795 -1.460211 0.486120 0
M  V30 34 H 5.120040 -5.368760 1.628393 0
M  V30 35 H 1.609787 -5.638597 1.212187 0
M  V30 36 H 0.074320 -3.794082 1.325202 0
M  V30 37 H 4.888127 -2.886267 1.372658 0
M  V30 38 H -0.177982 1.200269 0.390987 0
M  V30 39 H -0.699245 3.614081 0.554205 0
M  V30 40 H -0.185181 5.798047 1.406328 0
M  V30 41 H 1.237942 7.246140 2.744769 0
M  V30 42 H 3.221899 6.350194 3.963726 0
M  V30 43 H 3.723376 3.953152 3.790050 0
M  V30 44 H 3.181038 1.812188 2.927299 0
M  V30 45 H -0.625236 -0.069947 3.485516 0
M  V30 46 H -3.092930 -0.021672 3.427066 0
M  V30 47 H -4.496874 -1.753335 -0.403231 0
M  V30 48 H -4.137714 -2.719213 -2.382049 0
M  V30 49 H -3.005229 -4.568704 -1.111660 0
M  V30 50 H -1.446446 -3.804974 -1.417930 0
M  V30 51 H -1.871594 -5.343285 -3.197679 0
M  V30 52 H -3.602311 -4.824504 -3.302659 0
M  V30 53 H -2.557162 -3.955586 -5.218241 0
M  V30 54 H -1.041141 -3.561660 -4.359373 0
M  V30 55 H -3.595564 -2.050307 -4.419120 0
M  V30 56 H -2.528326 -0.608324 -2.758012 0
M  V30 57 H -1.255737 -1.962303 -2.628694 0
M  V30 58 H -0.736315 -1.854954 -0.322768 0
M  V30 END ATOM
M  V30 BEGIN BOND
M  V30 1 1 1 2
M  V30 2 2 2 3
M  V30 3 1 3 4
M  V30 4 2 4 5
M  V30 5 1 5 6
M  V30 6 2 6 7
M  V30 7 1 6 8
M  V30 8 2 8 9
M  V30 9 1 9 10
M  V30 10 2 10 11
M  V30 11 1 11 12
M  V30 12 2 12 13
M  V30 13 1 13 14
M  V30 14 2 14 15
M  V30 15 1 15 16
M  V30 16 2 16 17
M  V30 17 1 17 18
M  V30 18 2 18 19
M  V30 19 1 9 20
M  V30 20 1 20 21
M  V30 21 2 21 22
M  V30 22 1 22 23
M  V30 23 2 23 24
M  V30 24 1 24 25
M  V30 25 1 25 26
M  V30 26 1 26 27
M  V30 27 1 27 28
M  V30 28 1 28 29
M  V30 29 1 29 30
M  V30 30 1 30 31
M  V30 31 1 31 32
M  V30 32 2 25 33
M  V30 33 1 7 2
M  V30 34 1 19 10
M  V30 35 1 33 21
M  V30 36 1 20 5
M  V30 37 1 32 27
M  V30 38 1 18 13
M  V30 39 1 1 34
M  V30 40 1 3 35
M  V30 41 1 4 36
M  V30 42 1 7 37
M  V30 43 1 11 38
M  V30 44 1 12 39
M  V30 45 1 14 40
M  V30 46 1 15 41
M  V30 47 1 16 42
M  V30 48 1 17 43
M  V30 49 1 19 44
M  V30 50 1 22 45
M  V30 51 1 23 46
M  V30 52 1 26 47
M  V30 53 1 27 48 CFG=3
M  V30 54 1 28 49
M  V30 55 1 28 50
M  V30 56 1 29 51
M  V30 57 1 29 52
M  V30 58 1 30 53
M  V30 59 1 30 54
M  V30 60 1 31 55
M  V30 61 1 32 56
M  V30 62 1 32 57
M  V30 63 1 33 58
M  V30 END BOND
M  V30 END CTAB
M  END
>  <Dataset>  (41) 
ChEMBL_Kinases

>  <Ligand_Instance>  (41) 
nan

>  <PDB_ID>  (41) 
nan

>  <Standardized_SMILES>  (41) 
Oc1ccc2c(c1)nc(-c1ccc3ccccc3c1)n2-c1ccnc(N[C@@H]2CCCNC2)c1

>  <Name>  (41) 
nan

>  <Pocket>  (41) 
nan

>  <ATP_Site>  (41) 
nan

>  <Peripheral>  (41) 
nan

>  <Num_H_Atoms_ProtBoundConf>  (41) 
nan

>  <Num_Resolved_Atoms>  (41) 
nan

>  <Num_Not_Resolved_Atoms>  (41) 
nan

$$$$
CHEMBL2334593
     RDKit          3D

  0  0  0  0  0  0  0  0  0  0999 V3000
M  V30 BEGIN CTAB
M  V30 COUNTS 25 27 0 0 0
M  V30 BEGIN ATOM
M  V30 1 N -0.850502 -3.069051 4.164279 0
M  V30 2 C -0.312722 -2.858067 2.861323 0
M  V30 3 N 0.454206 -3.805952 2.257683 0
M  V30 4 C 0.942550 -3.560213 1.020109 0
M  V30 5 C 0.676267 -2.370798 0.365441 0
M  V30 6 C -0.108013 -1.429267 1.010675 0
M  V30 7 N -0.323378 -0.242552 0.255445 0
M  V30 8 C -1.406347 -0.116411 -0.545137 0
M  V30 9 N -1.416131 1.095006 -1.173381 0
M  V30 10 C -0.304568 1.754141 -0.756312 0
M  V30 11 C 0.267190 3.004696 -1.009495 0
M  V30 12 C 1.448502 3.381753 -0.400297 0
M  V30 13 C 2.076545 2.504566 0.476544 0
M  V30 14 Cl 3.567527 2.980229 1.245558 0
M  V30 15 C 1.547454 1.242741 0.764505 0
M  V30 16 C 0.365659 0.908567 0.132972 0
M  V30 17 N -0.603081 -1.670447 2.257308 0
M  V30 18 H -0.200989 -3.198954 4.970421 0
M  V30 19 H -1.806487 -3.136898 4.580057 0
M  V30 20 H 1.543827 -4.355781 0.599527 0
M  V30 21 H 1.104608 -2.257765 -0.617069 0
M  V30 22 H -2.238872 -0.790018 -0.765172 0
M  V30 23 H -0.256532 3.674411 -1.708993 0
M  V30 24 H 1.883651 4.351082 -0.602012 0
M  V30 25 H 2.035082 0.560349 1.445983 0
M  V30 END ATOM
M  V30 BEGIN BOND
M  V30 1 1 1 2
M  V30 2 2 2 3
M  V30 3 1 3 4
M  V30 4 2 4 5
M  V30 5 1 5 6
M  V30 6 1 6 7
M  V30 7 1 7 8
M  V30 8 2 8 9
M  V30 9 1 9 10
M  V30 10 2 10 11
M  V30 11 1 11 12
M  V30 12 2 12 13
M  V30 13 1 13 14
M  V30 14 1 13 15
M  V30 15 2 15 16
M  V30 16 2 6 17
M  V30 17 1 17 2
M  V30 18 1 16 7
M  V30 19 1 16 10
M  V30 20 1 1 18
M  V30 21 1 1 19
M  V30 22 1 4 20
M  V30 23 1 5 21
M  V30 24 1 8 22
M  V30 25 1 11 23
M  V30 26 1 12 24
M  V30 27 1 15 25
M  V30 END BOND
M  V30 END CTAB
M  END
>  <Dataset>  (42) 
ChEMBL_Kinases

>  <Ligand_Instance>  (42) 
nan

>  <PDB_ID>  (42) 
nan

>  <Standardized_SMILES>  (42) 
Nc1nccc(-n2cnc3ccc(Cl)cc32)n1

>  <Name>  (42) 
nan

>  <Pocket>  (42) 
nan

>  <ATP_Site>  (42) 
nan

>  <Peripheral>  (42) 
nan

>  <Num_H_Atoms_ProtBoundConf>  (42) 
nan

>  <Num_Resolved_Atoms>  (42) 
nan

>  <Num_Not_Resolved_Atoms>  (42) 
nan

$$$$
CHEMBL2346710
     RDKit          3D

  0  0  0  0  0  0  0  0  0  0999 V3000
M  V30 BEGIN CTAB
M  V30 COUNTS 37 39 0 0 0
M  V30 BEGIN ATOM
M  V30 1 C 2.067345 -5.617162 0.958811 0
M  V30 2 C 2.908075 -4.356163 0.965684 0
M  V30 3 C 3.303819 -4.120339 2.386453 0
M  V30 4 O 3.913909 -4.972858 3.104164 0
M  V30 5 O 3.064677 -2.948530 3.124224 0
M  V30 6 N 2.187557 -3.233492 0.392413 0
M  V30 7 C 2.389460 -2.456329 -0.751550 0
M  V30 8 O 3.345831 -2.649732 -1.541336 0
M  V30 9 C 1.404385 -1.410617 -0.947216 0
M  V30 10 C 1.286625 -0.478457 -1.860300 0
M  V30 11 C 0.171105 0.497261 -1.851588 0
M  V30 12 C -0.643887 1.119468 -2.737193 0
M  V30 13 C -1.496331 1.935969 -2.028606 0
M  V30 14 C -1.167486 1.782001 -0.703433 0
M  V30 15 C -1.751730 2.411696 0.476125 0
M  V30 16 C -1.196964 2.040971 1.710122 0
M  V30 17 C -1.697310 2.604213 2.892696 0
M  V30 18 C -2.727879 3.515902 2.840487 0
M  V30 19 Cl -3.293259 4.166971 4.360664 0
M  V30 20 C -3.257562 3.862947 1.602780 0
M  V30 21 Cl -4.557710 5.016700 1.600834 0
M  V30 22 C -2.783355 3.322540 0.412400 0
M  V30 23 O -0.188865 0.932528 -0.656869 0
M  V30 24 S 0.191248 -1.563574 0.389383 0
M  V30 25 C 1.072978 -2.921203 1.209232 0
M  V30 26 S 0.257649 -3.251383 2.545796 0
M  V30 27 H 1.994678 -5.941003 -0.098459 0
M  V30 28 H 2.654081 -6.397379 1.481621 0
M  V30 29 H 1.115697 -5.537019 1.474158 0
M  V30 30 H 3.764130 -4.548451 0.299004 0
M  V30 31 H 2.802139 -2.944185 4.102169 0
M  V30 32 H 2.076824 -0.504204 -2.603952 0
M  V30 33 H -0.525001 0.910396 -3.779067 0
M  V30 34 H -2.261844 2.563143 -2.450357 0
M  V30 35 H -0.381632 1.326493 1.826109 0
M  V30 36 H -1.247197 2.294641 3.840490 0
M  V30 37 H -3.196551 3.591817 -0.542925 0
M  V30 END ATOM
M  V30 BEGIN BOND
M  V30 1 1 1 2
M  V30 2 1 2 3
M  V30 3 2 3 4
M  V30 4 1 3 5
M  V30 5 1 2 6
M  V30 6 1 6 7
M  V30 7 2 7 8
M  V30 8 1 7 9
M  V30 9 2 9 10
M  V30 10 1 10 11
M  V30 11 2 11 12
M  V30 12 1 12 13
M  V30 13 2 13 14
M  V30 14 1 14 15
M  V30 15 2 15 16
M  V30 16 1 16 17
M  V30 17 2 17 18
M  V30 18 1 18 19
M  V30 19 1 18 20
M  V30 20 1 20 21
M  V30 21 2 20 22
M  V30 22 1 14 23
M  V30 23 1 9 24
M  V30 24 1 24 25
M  V30 25 2 25 26
M  V30 26 1 25 6
M  V30 27 1 23 11
M  V30 28 1 22 15
M  V30 29 1 1 27
M  V30 30 1 1 28
M  V30 31 1 1 29
M  V30 32 1 2 30
M  V30 33 1 5 31
M  V30 34 1 10 32
M  V30 35 1 12 33
M  V30 36 1 13 34
M  V30 37 1 16 35
M  V30 38 1 17 36
M  V30 39 1 22 37
M  V30 END BOND
M  V30 END CTAB
M  END
>  <Dataset>  (43) 
ChEMBL_Kinases

>  <Ligand_Instance>  (43) 
nan

>  <PDB_ID>  (43) 
nan

>  <Standardized_SMILES>  (43) 
CC(C(=O)O)N1C(=O)/C(=C/c2ccc(-c3ccc(Cl)c(Cl)c3)o2)SC1=S

>  <Name>  (43) 
nan

>  <Pocket>  (43) 
nan

>  <ATP_Site>  (43) 
nan

>  <Peripheral>  (43) 
nan

>  <Num_H_Atoms_ProtBoundConf>  (43) 
nan

>  <Num_Resolved_Atoms>  (43) 
nan

>  <Num_Not_Resolved_Atoms>  (43) 
nan

$$$$
CHEMBL2346687
     RDKit          3D

  0  0  0  0  0  0  0  0  0  0999 V3000
M  V30 BEGIN CTAB
M  V30 COUNTS 40 43 0 0 0
M  V30 BEGIN ATOM
M  V30 1 F 0.438971 -2.777127 2.455262 0
M  V30 2 C 0.531248 -3.678235 1.413403 0
M  V30 3 F -0.661707 -3.674244 0.731746 0
M  V30 4 F 0.663954 -4.939038 1.995568 0
M  V30 5 C 1.694228 -3.435217 0.532843 0
M  V30 6 C 2.576302 -4.437332 0.182387 0
M  V30 7 C 3.641176 -4.111839 -0.651432 0
M  V30 8 C 3.820981 -2.811826 -1.125313 0
M  V30 9 C 2.914313 -1.810276 -0.757457 0
M  V30 10 S 3.305422 -0.235657 -1.452950 0
M  V30 11 C 2.163441 1.051938 -0.996672 0
M  V30 12 C 2.423636 2.310687 -1.515780 0
M  V30 13 C 1.588096 3.381880 -1.216480 0
M  V30 14 C 0.491078 3.190301 -0.396098 0
M  V30 15 N -0.526349 3.918335 0.122516 0
M  V30 16 N -1.306457 3.158168 0.872791 0
M  V30 17 C -0.811556 1.907970 0.860194 0
M  V30 18 C -1.375084 0.722308 1.572424 0
M  V30 19 C -2.787002 0.420232 1.069338 0
M  V30 20 C -3.190986 -0.647991 2.081192 0
M  V30 21 C -2.544518 -0.207205 3.387824 0
M  V30 22 C -1.638812 0.966419 3.022333 0
M  V30 23 N 0.288220 1.948059 0.078393 0
M  V30 24 N 1.088853 0.964870 -0.219970 0
M  V30 25 C 1.875147 -2.162973 0.065614 0
M  V30 26 H 2.428037 -5.450098 0.557304 0
M  V30 27 H 4.318457 -4.924194 -0.909041 0
M  V30 28 H 4.697568 -2.712374 -1.766622 0
M  V30 29 H 3.259260 2.530637 -2.160489 0
M  V30 30 H 1.740779 4.384776 -1.591771 0
M  V30 31 H -0.791927 -0.189218 1.407168 0
M  V30 32 H -3.478182 1.272419 1.220421 0
M  V30 33 H -2.771970 0.028979 0.035517 0
M  V30 34 H -2.704527 -1.600176 1.720511 0
M  V30 35 H -4.272608 -0.775854 2.143979 0
M  V30 36 H -3.293507 0.069000 4.156232 0
M  V30 37 H -1.897731 -1.035295 3.749796 0
M  V30 38 H -0.717906 0.969629 3.615257 0
M  V30 39 H -2.199252 1.920241 3.111674 0
M  V30 40 H 1.224396 -1.349125 0.304218 0
M  V30 END ATOM
M  V30 BEGIN BOND
M  V30 1 1 1 2
M  V30 2 1 2 3
M  V30 3 1 2 4
M  V30 4 1 2 5
M  V30 5 2 5 6
M  V30 6 1 6 7
M  V30 7 2 7 8
M  V30 8 1 8 9
M  V30 9 1 9 10
M  V30 10 1 10 11
M  V30 11 1 11 12
M  V30 12 2 12 13
M  V30 13 1 13 14
M  V30 14 2 14 15
M  V30 15 1 15 16
M  V30 16 2 16 17
M  V30 17 1 17 18
M  V30 18 1 18 19
M  V30 19 1 19 20
M  V30 20 1 20 21
M  V30 21 1 21 22
M  V30 22 1 17 23
M  V30 23 1 23 24
M  V30 24 2 9 25
M  V30 25 1 25 5
M  V30 26 2 24 11
M  V30 27 1 23 14
M  V30 28 1 22 18
M  V30 29 1 6 26
M  V30 30 1 7 27
M  V30 31 1 8 28
M  V30 32 1 12 29
M  V30 33 1 13 30
M  V30 34 1 18 31
M  V30 35 1 19 32
M  V30 36 1 19 33
M  V30 37 1 20 34
M  V30 38 1 20 35
M  V30 39 1 21 36
M  V30 40 1 21 37
M  V30 41 1 22 38
M  V30 42 1 22 39
M  V30 43 1 25 40
M  V30 END BOND
M  V30 END CTAB
M  END
>  <Dataset>  (44) 
ChEMBL_Kinases

>  <Ligand_Instance>  (44) 
nan

>  <PDB_ID>  (44) 
nan

>  <Standardized_SMILES>  (44) 
FC(F)(F)c1cccc(Sc2ccc3nnc(C4CCCC4)n3n2)c1

>  <Name>  (44) 
nan

>  <Pocket>  (44) 
nan

>  <ATP_Site>  (44) 
nan

>  <Peripheral>  (44) 
nan

>  <Num_H_Atoms_ProtBoundConf>  (44) 
nan

>  <Num_Resolved_Atoms>  (44) 
nan

>  <Num_Not_Resolved_Atoms>  (44) 
nan

$$$$
CHEMBL234656
     RDKit          3D

  0  0  0  0  0  0  0  0  0  0999 V3000
M  V30 BEGIN CTAB
M  V30 COUNTS 57 61 0 0 0
M  V30 BEGIN ATOM
M  V30 1 O 1.460002 2.924215 4.237594 0
M  V30 2 C 2.642418 2.784343 3.813033 0
M  V30 3 C 3.852724 2.752769 4.657007 0
M  V30 4 N 5.073865 2.578185 3.902555 0
M  V30 5 C 6.205473 2.563737 4.825940 0
M  V30 6 C 6.234578 1.353489 5.711687 0
M  V30 7 O 7.360574 1.441985 6.555894 0
M  V30 8 N 2.767891 2.651073 2.414277 0
M  V30 9 C 1.744665 2.652541 1.423472 0
M  V30 10 C 1.252120 3.762045 0.763714 0
M  V30 11 C 0.254680 3.648244 -0.184901 0
M  V30 12 C -0.279783 2.408980 -0.499423 0
M  V30 13 C 0.206903 1.291883 0.155787 0
M  V30 14 C 1.218639 1.397612 1.119417 0
M  V30 15 C -0.475458 0.029762 -0.298469 0
M  V30 16 C -1.436509 0.540946 -1.311429 0
M  V30 17 C -2.431019 0.130178 -2.206036 0
M  V30 18 C -2.831811 -1.270417 -2.361913 0
M  V30 19 C -3.004720 -1.972074 -1.186391 0
M  V30 20 C -3.381392 -3.295319 -1.275279 0
M  V30 21 C -3.596091 -3.961282 -2.477528 0
M  V30 22 C -3.988121 -5.353886 -2.538132 0
M  V30 23 C -4.772925 -5.941395 -3.507678 0
M  V30 24 C -5.094790 -7.285961 -3.485822 0
M  V30 25 C -4.601142 -8.068466 -2.438132 0
M  V30 26 O -4.916072 -9.425378 -2.401200 0
M  V30 27 C -3.804459 -7.484750 -1.448857 0
M  V30 28 C -3.493066 -6.122793 -1.493191 0
M  V30 29 C -3.413796 -3.227822 -3.629481 0
M  V30 30 C -3.038841 -1.907603 -3.569088 0
M  V30 31 N -2.864644 1.254237 -2.810356 0
M  V30 32 N -2.204998 2.307883 -2.345600 0
M  V30 33 C -1.312612 1.911904 -1.417208 0
M  V30 34 H 3.742625 1.837943 5.301886 0
M  V30 35 H 3.869549 3.615847 5.319265 0
M  V30 36 H 5.059042 1.702685 3.368142 0
M  V30 37 H 6.237037 3.461405 5.466632 0
M  V30 38 H 7.138875 2.524988 4.218481 0
M  V30 39 H 5.367518 1.337554 6.428935 0
M  V30 40 H 6.350836 0.394738 5.169739 0
M  V30 41 H 7.563762 0.529254 6.933869 0
M  V30 42 H 3.732735 2.530573 1.985590 0
M  V30 43 H 1.694245 4.714967 1.035797 0
M  V30 44 H -0.126470 4.511222 -0.696514 0
M  V30 45 H 1.584875 0.496741 1.622286 0
M  V30 46 H 0.227076 -0.719528 -0.688860 0
M  V30 47 H -1.025916 -0.335143 0.603399 0
M  V30 48 H -2.886015 -1.631379 -0.170703 0
M  V30 49 H -3.540783 -3.931512 -0.398462 0
M  V30 50 H -5.105988 -5.256266 -4.275990 0
M  V30 51 H -5.713633 -7.687166 -4.275480 0
M  V30 52 H -4.283589 -10.029220 -1.872470 0
M  V30 53 H -3.474431 -8.171626 -0.686565 0
M  V30 54 H -2.871714 -5.845633 -0.654961 0
M  V30 55 H -3.555580 -3.650790 -4.617741 0
M  V30 56 H -2.877250 -1.267987 -4.447478 0
M  V30 57 H -2.377073 3.285718 -2.671972 0
M  V30 END ATOM
M  V30 BEGIN BOND
M  V30 1 2 1 2
M  V30 2 1 2 3
M  V30 3 1 3 4
M  V30 4 1 4 5
M  V30 5 1 5 6
M  V30 6 1 6 7
M  V30 7 1 2 8
M  V30 8 1 8 9
M  V30 9 2 9 10
M  V30 10 1 10 11
M  V30 11 2 11 12
M  V30 12 1 12 13
M  V30 13 2 13 14
M  V30 14 1 13 15
M  V30 15 1 15 16
M  V30 16 1 16 17
M  V30 17 1 17 18
M  V30 18 2 18 19
M  V30 19 1 19 20
M  V30 20 2 20 21
M  V30 21 1 21 22
M  V30 22 2 22 23
M  V30 23 1 23 24
M  V30 24 2 24 25
M  V30 25 1 25 26
M  V30 26 1 25 27
M  V30 27 2 27 28
M  V30 28 1 21 29
M  V30 29 2 29 30
M  V30 30 2 17 31
M  V30 31 1 31 32
M  V30 32 1 32 33
M  V30 33 1 14 9
M  V30 34 2 33 16
M  V30 35 1 33 12
M  V30 36 1 30 18
M  V30 37 1 28 22
M  V30 38 1 3 34
M  V30 39 1 3 35
M  V30 40 1 4 36
M  V30 41 1 5 37
M  V30 42 1 5 38
M  V30 43 1 6 39
M  V30 44 1 6 40
M  V30 45 1 7 41
M  V30 46 1 8 42
M  V30 47 1 10 43
M  V30 48 1 11 44
M  V30 49 1 14 45
M  V30 50 1 15 46
M  V30 51 1 15 47
M  V30 52 1 19 48
M  V30 53 1 20 49
M  V30 54 1 23 50
M  V30 55 1 24 51
M  V30 56 1 26 52
M  V30 57 1 27 53
M  V30 58 1 28 54
M  V30 59 1 29 55
M  V30 60 1 30 56
M  V30 61 1 32 57
M  V30 END BOND
M  V30 END CTAB
M  END
>  <Dataset>  (45) 
ChEMBL_Kinases

>  <Ligand_Instance>  (45) 
nan

>  <PDB_ID>  (45) 
nan

>  <Standardized_SMILES>  (45) 
O=C(CNCCO)Nc1ccc2c(c1)Cc1c(-c3ccc(-c4ccc(O)cc4)cc3)n[nH]c1-2

>  <Name>  (45) 
nan

>  <Pocket>  (45) 
nan

>  <ATP_Site>  (45) 
nan

>  <Peripheral>  (45) 
nan

>  <Num_H_Atoms_ProtBoundConf>  (45) 
nan

>  <Num_Resolved_Atoms>  (45) 
nan

>  <Num_Not_Resolved_Atoms>  (45) 
nan

$$$$
CHEMBL234654
     RDKit          3D

  0  0  0  0  0  0  0  0  0  0999 V3000
M  V30 BEGIN CTAB
M  V30 COUNTS 67 72 0 0 0
M  V30 BEGIN ATOM
M  V30 1 O 1.695046 3.134953 1.565370 0
M  V30 2 C 2.686559 3.188626 0.745329 0
M  V30 3 C 3.528545 4.322380 1.129224 0
M  V30 4 N 4.734680 4.526845 0.424767 0
M  V30 5 C 5.873344 3.747480 0.697104 0 CFG=1
M  V30 6 C 5.791591 2.280880 0.762112 0
M  V30 7 C 6.243384 1.612569 -0.526871 0
M  V30 8 C 7.764592 1.774344 -0.544770 0 CFG=2
M  V30 9 O 8.359857 1.056251 0.463696 0
M  V30 10 C 8.128336 3.228855 -0.320077 0
M  V30 11 C 6.928087 4.115175 -0.362640 0
M  V30 12 N 2.639605 2.171119 -0.231950 0
M  V30 13 C 1.762002 1.107226 -0.501943 0
M  V30 14 C 2.064193 0.341897 -1.607347 0
M  V30 15 C 1.278443 -0.728611 -1.956161 0
M  V30 16 C 0.178811 -1.034096 -1.188300 0
M  V30 17 C -0.175558 -0.304338 -0.069018 0
M  V30 18 C 0.652480 0.756838 0.227913 0
M  V30 19 C -1.406715 -0.889885 0.537868 0
M  V30 20 C -1.674083 -2.019901 -0.371599 0
M  V30 21 C -2.565619 -3.052000 -0.557512 0
M  V30 22 C -3.749975 -3.519159 0.148164 0
M  V30 23 C -4.873304 -3.851301 -0.619467 0
M  V30 24 C -6.049261 -4.317287 -0.027060 0
M  V30 25 C -6.071717 -4.442143 1.350830 0
M  V30 26 C -7.324942 -4.938489 1.906352 0
M  V30 27 C -7.337752 -5.705437 3.077329 0
M  V30 28 C -8.510617 -6.193123 3.627606 0
M  V30 29 C -9.733881 -5.921936 3.008855 0
M  V30 30 O -10.940368 -6.383321 3.512821 0
M  V30 31 C -9.740769 -5.169389 1.857145 0
M  V30 32 C -8.560454 -4.703565 1.341381 0
M  V30 33 C -4.970190 -4.117027 2.115437 0
M  V30 34 C -3.804595 -3.655790 1.536225 0
M  V30 35 N -2.168542 -3.726538 -1.659792 0
M  V30 36 N -1.090146 -3.188942 -2.176984 0
M  V30 37 C -0.769307 -2.138590 -1.400425 0
M  V30 38 H 2.870750 5.234509 1.124043 0
M  V30 39 H 3.794298 4.189822 2.230983 0
M  V30 40 H 4.998450 5.533490 0.476757 0
M  V30 41 H 6.260480 4.101952 1.708328 0
M  V30 42 H 6.591121 1.949428 1.519243 0
M  V30 43 H 4.877232 1.844457 1.163763 0
M  V30 44 H 5.774194 2.117779 -1.369203 0
M  V30 45 H 6.016834 0.549173 -0.519007 0
M  V30 46 H 8.106464 1.456862 -1.537562 0
M  V30 47 H 7.748145 0.307567 0.724365 0
M  V30 48 H 8.787284 3.541431 -1.168708 0
M  V30 49 H 8.743853 3.384312 0.596464 0
M  V30 50 H 6.489964 4.075665 -1.373457 0
M  V30 51 H 7.255744 5.153307 -0.166187 0
M  V30 52 H 3.473863 2.343379 -0.849341 0
M  V30 53 H 2.920705 0.546420 -2.240812 0
M  V30 54 H 1.538408 -1.313989 -2.830171 0
M  V30 55 H 0.393253 1.324333 1.082858 0
M  V30 56 H -2.240374 -0.161596 0.573050 0
M  V30 57 H -1.154785 -1.198387 1.573628 0
M  V30 58 H -4.811239 -3.738869 -1.683827 0
M  V30 59 H -6.853338 -4.542830 -0.720700 0
M  V30 60 H -6.401813 -5.934445 3.583918 0
M  V30 61 H -8.488636 -6.787848 4.540517 0
M  V30 62 H -11.671655 -5.671589 3.661514 0
M  V30 63 H -10.693341 -4.947972 1.360220 0
M  V30 64 H -8.593043 -4.107917 0.426232 0
M  V30 65 H -5.027321 -4.229200 3.201224 0
M  V30 66 H -2.929753 -3.396569 2.125059 0
M  V30 67 H -0.556739 -3.487456 -3.022029 0
M  V30 END ATOM
M  V30 BEGIN BOND
M  V30 1 2 1 2
M  V30 2 1 2 3
M  V30 3 1 3 4
M  V30 4 1 4 5
M  V30 5 1 5 6
M  V30 6 1 6 7
M  V30 7 1 7 8
M  V30 8 1 8 9
M  V30 9 1 8 10
M  V30 10 1 10 11
M  V30 11 1 2 12
M  V30 12 1 12 13
M  V30 13 2 13 14
M  V30 14 1 14 15
M  V30 15 2 15 16
M  V30 16 1 16 17
M  V30 17 2 17 18
M  V30 18 1 17 19
M  V30 19 1 19 20
M  V30 20 1 20 21
M  V30 21 1 21 22
M  V30 22 2 22 23
M  V30 23 1 23 24
M  V30 24 2 24 25
M  V30 25 1 25 26
M  V30 26 2 26 27
M  V30 27 1 27 28
M  V30 28 2 28 29
M  V30 29 1 29 30
M  V30 30 1 29 31
M  V30 31 2 31 32
M  V30 32 1 25 33
M  V30 33 2 33 34
M  V30 34 2 21 35
M  V30 35 1 35 36
M  V30 36 1 36 37
M  V30 37 1 11 5
M  V30 38 1 18 13
M  V30 39 2 37 20
M  V30 40 1 37 16
M  V30 41 1 34 22
M  V30 42 1 32 26
M  V30 43 1 3 38
M  V30 44 1 3 39
M  V30 45 1 4 40
M  V30 46 1 5 41 CFG=1
M  V30 47 1 6 42
M  V30 48 1 6 43
M  V30 49 1 7 44
M  V30 50 1 7 45
M  V30 51 1 8 46 CFG=3
M  V30 52 1 9 47
M  V30 53 1 10 48
M  V30 54 1 10 49
M  V30 55 1 11 50
M  V30 56 1 11 51
M  V30 57 1 12 52
M  V30 58 1 14 53
M  V30 59 1 15 54
M  V30 60 1 18 55
M  V30 61 1 19 56
M  V30 62 1 19 57
M  V30 63 1 23 58
M  V30 64 1 24 59
M  V30 65 1 27 60
M  V30 66 1 28 61
M  V30 67 1 30 62
M  V30 68 1 31 63
M  V30 69 1 32 64
M  V30 70 1 33 65
M  V30 71 1 34 66
M  V30 72 1 36 67
M  V30 END BOND
M  V30 END CTAB
M  END
>  <Dataset>  (46) 
ChEMBL_Kinases

>  <Ligand_Instance>  (46) 
nan

>  <PDB_ID>  (46) 
nan

>  <Standardized_SMILES>  (46) 
O=C(CN[C@H]1CC[C@H](O)CC1)Nc1ccc2c(c1)Cc1c(-c3ccc(-c4ccc(O)cc4)cc3)n[nH]c1-2

>  <Name>  (46) 
nan

>  <Pocket>  (46) 
nan

>  <ATP_Site>  (46) 
nan

>  <Peripheral>  (46) 
nan

>  <Num_H_Atoms_ProtBoundConf>  (46) 
nan

>  <Num_Resolved_Atoms>  (46) 
nan

>  <Num_Not_Resolved_Atoms>  (46) 
nan

$$$$
CHEMBL234617
     RDKit          3D

  0  0  0  0  0  0  0  0  0  0999 V3000
M  V30 BEGIN CTAB
M  V30 COUNTS 66 70 0 0 0
M  V30 BEGIN ATOM
M  V30 1 C 2.404636 0.142350 5.408437 0
M  V30 2 C 2.051748 0.748122 4.065799 0 CFG=2
M  V30 3 N 2.733791 0.032036 3.011522 0
M  V30 4 C 2.640986 0.348677 1.602632 0
M  V30 5 N 3.597599 0.941635 0.840704 0
M  V30 6 C 3.287783 1.155821 -0.470378 0
M  V30 7 C 2.063837 0.801980 -1.040764 0
M  V30 8 C 1.120802 0.204920 -0.232708 0
M  V30 9 C -0.231651 -0.248355 -0.605011 0
M  V30 10 C -1.152094 0.592874 -1.194721 0
M  V30 11 C -1.092081 1.992254 -1.604492 0
M  V30 12 C -1.466749 2.916071 -0.623650 0
M  V30 13 C -1.415347 4.245735 -0.987096 0
M  V30 14 C -1.026202 4.733978 -2.235362 0
M  V30 15 F -1.030857 6.083944 -2.431428 0
M  V30 16 C -0.667220 3.788194 -3.165685 0
M  V30 17 C -0.696459 2.444917 -2.865682 0
M  V30 18 N -2.287639 -0.102774 -1.383100 0
M  V30 19 C -2.096399 -1.373543 -0.918764 0
M  V30 20 C -2.882815 -2.497119 -0.837236 0
M  V30 21 C -2.445036 -3.697109 -0.295521 0
M  V30 22 C -3.429347 -4.783547 -0.280981 0
M  V30 23 N -3.398562 -5.626650 -1.467289 0
M  V30 24 C -4.435094 -6.630757 -1.290984 0
M  V30 25 C -2.082108 -6.233641 -1.522825 0
M  V30 26 C -1.876012 -7.139938 -2.701731 0
M  V30 27 O -0.559408 -7.648498 -2.613382 0
M  V30 28 C -1.129045 -3.726909 0.180827 0
M  V30 29 C -0.352150 -2.590342 0.091502 0
M  V30 30 N -0.826201 -1.449947 -0.442658 0
M  V30 31 N 1.457113 0.005423 1.056920 0
M  V30 32 C 2.422992 2.177425 3.983105 0
M  V30 33 C 1.358389 3.090010 4.082476 0
M  V30 34 C 1.608541 4.438452 4.027400 0
M  V30 35 C 2.881399 4.905434 3.878050 0
M  V30 36 C 3.907538 3.994899 3.783035 0
M  V30 37 C 3.722555 2.608604 3.830642 0
M  V30 38 H 3.440814 0.350290 5.668106 0
M  V30 39 H 2.260925 -0.959041 5.279941 0
M  V30 40 H 1.682562 0.491125 6.148638 0
M  V30 41 H 0.950272 0.602884 3.959882 0
M  V30 42 H 3.381043 -0.804019 3.131444 0
M  V30 43 H 4.023404 1.621311 -1.100922 0
M  V30 44 H 1.777735 0.950163 -2.060544 0
M  V30 45 H -1.785478 2.637065 0.377934 0
M  V30 46 H -1.699678 4.971485 -0.238422 0
M  V30 47 H -0.365031 4.139683 -4.128014 0
M  V30 48 H -0.420314 1.690953 -3.572300 0
M  V30 49 H -3.878758 -2.363738 -1.232963 0
M  V30 50 H -3.174133 -5.445221 0.601540 0
M  V30 51 H -4.422217 -4.364626 -0.059683 0
M  V30 52 H -5.185085 -6.284491 -0.527714 0
M  V30 53 H -4.068172 -7.600887 -0.952955 0
M  V30 54 H -4.991255 -6.774034 -2.236048 0
M  V30 55 H -1.801329 -6.788878 -0.622693 0
M  V30 56 H -1.351769 -5.386088 -1.657418 0
M  V30 57 H -1.888572 -6.534134 -3.654708 0
M  V30 58 H -2.548424 -8.006712 -2.745077 0
M  V30 59 H -0.411433 -8.100946 -1.729709 0
M  V30 60 H -0.837983 -4.683723 0.593159 0
M  V30 61 H 0.657964 -2.655505 0.470603 0
M  V30 62 H 0.350785 2.730740 4.197869 0
M  V30 63 H 0.736532 5.094650 4.112237 0
M  V30 64 H 2.998356 5.970051 3.844690 0
M  V30 65 H 4.911394 4.382108 3.664312 0
M  V30 66 H 4.533395 1.900607 3.754449 0
M  V30 END ATOM
M  V30 BEGIN BOND
M  V30 1 1 1 2
M  V30 2 1 2 3
M  V30 3 1 3 4
M  V30 4 2 4 5
M  V30 5 1 5 6
M  V30 6 2 6 7
M  V30 7 1 7 8
M  V30 8 1 8 9
M  V30 9 2 9 10
M  V30 10 1 10 11
M  V30 11 2 11 12
M  V30 12 1 12 13
M  V30 13 2 13 14
M  V30 14 1 14 15
M  V30 15 1 14 16
M  V30 16 2 16 17
M  V30 17 1 10 18
M  V30 18 2 18 19
M  V30 19 1 19 20
M  V30 20 2 20 21
M  V30 21 1 21 22
M  V30 22 1 22 23
M  V30 23 1 23 24
M  V30 24 1 23 25
M  V30 25 1 25 26
M  V30 26 1 26 27
M  V30 27 1 21 28
M  V30 28 2 28 29
M  V30 29 1 29 30
M  V30 30 2 8 31
M  V30 31 1 2 32
M  V30 32 2 32 33
M  V30 33 1 33 34
M  V30 34 2 34 35
M  V30 35 1 35 36
M  V30 36 2 36 37
M  V30 37 1 31 4
M  V30 38 1 37 32
M  V30 39 1 30 9
M  V30 40 1 17 11
M  V30 41 1 30 19
M  V30 42 1 1 38
M  V30 43 1 1 39
M  V30 44 1 1 40
M  V30 45 1 2 41 CFG=3
M  V30 46 1 3 42
M  V30 47 1 6 43
M  V30 48 1 7 44
M  V30 49 1 12 45
M  V30 50 1 13 46
M  V30 51 1 16 47
M  V30 52 1 17 48
M  V30 53 1 20 49
M  V30 54 1 22 50
M  V30 55 1 22 51
M  V30 56 1 24 52
M  V30 57 1 24 53
M  V30 58 1 24 54
M  V30 59 1 25 55
M  V30 60 1 25 56
M  V30 61 1 26 57
M  V30 62 1 26 58
M  V30 63 1 27 59
M  V30 64 1 28 60
M  V30 65 1 29 61
M  V30 66 1 33 62
M  V30 67 1 34 63
M  V30 68 1 35 64
M  V30 69 1 36 65
M  V30 70 1 37 66
M  V30 END BOND
M  V30 END CTAB
M  END
>  <Dataset>  (47) 
ChEMBL_Kinases

>  <Ligand_Instance>  (47) 
nan

>  <PDB_ID>  (47) 
nan

>  <Standardized_SMILES>  (47) 
C[C@H](Nc1nccc(-c2c(-c3ccc(F)cc3)nc3cc(CN(C)CCO)ccn23)n1)c1ccccc1

>  <Name>  (47) 
nan

>  <Pocket>  (47) 
nan

>  <ATP_Site>  (47) 
nan

>  <Peripheral>  (47) 
nan

>  <Num_H_Atoms_ProtBoundConf>  (47) 
nan

>  <Num_Resolved_Atoms>  (47) 
nan

>  <Num_Not_Resolved_Atoms>  (47) 
nan

$$$$
CHEMBL234601
     RDKit          3D

  0  0  0  0  0  0  0  0  0  0999 V3000
M  V30 BEGIN CTAB
M  V30 COUNTS 34 36 0 0 0
M  V30 BEGIN ATOM
M  V30 1 C -0.772701 -0.120287 2.416481 0
M  V30 2 C -1.182538 -1.091182 1.384453 0
M  V30 3 C -0.499009 -1.285063 0.268828 0
M  V30 4 C -0.746428 -2.192358 -0.843689 0
M  V30 5 O -1.687583 -3.016138 -0.948254 0
M  V30 6 N 0.236933 -2.053258 -1.861781 0
M  V30 7 C 1.116751 -1.048738 -1.389663 0
M  V30 8 C 2.240860 -0.542360 -2.009665 0
M  V30 9 C 3.002490 0.445026 -1.419912 0
M  V30 10 C 2.606507 0.921028 -0.175934 0
M  V30 11 S 3.587620 2.187274 0.574663 0
M  V30 12 N 3.021894 3.768302 0.103398 0
M  V30 13 O 3.548815 2.067434 2.067791 0
M  V30 14 O 4.986075 2.062808 0.036252 0
M  V30 15 C 1.461866 0.393747 0.437276 0
M  V30 16 C 0.708122 -0.590081 -0.156317 0
M  V30 17 C -2.433526 -1.826633 1.584005 0
M  V30 18 C -3.569828 -2.032341 0.836823 0
M  V30 19 C -4.411682 -2.855358 1.547946 0
M  V30 20 C -3.813217 -3.183393 2.766171 0
M  V30 21 N -2.631780 -2.539136 2.732059 0
M  V30 22 H -0.897594 0.932903 2.149498 0
M  V30 23 H -1.535649 -0.222053 3.255729 0
M  V30 24 H 0.154326 -0.391772 2.964172 0
M  V30 25 H 0.289118 -2.587838 -2.766945 0
M  V30 26 H 2.568628 -0.906939 -2.993897 0
M  V30 27 H 3.880170 0.841851 -1.902184 0
M  V30 28 H 2.372564 3.599081 -0.705967 0
M  V30 29 H 2.402358 4.121860 0.890181 0
M  V30 30 H 1.275990 0.837732 1.363766 0
M  V30 31 H -3.737294 -1.589266 -0.126736 0
M  V30 32 H -5.383565 -3.222260 1.267670 0
M  V30 33 H -4.195505 -3.805906 3.559198 0
M  V30 34 H -1.964797 -2.620170 3.552828 0
M  V30 END ATOM
M  V30 BEGIN BOND
M  V30 1 1 1 2
M  V30 2 2 2 3
M  V30 3 1 3 4
M  V30 4 2 4 5
M  V30 5 1 4 6
M  V30 6 1 6 7
M  V30 7 2 7 8
M  V30 8 1 8 9
M  V30 9 2 9 10
M  V30 10 1 10 11
M  V30 11 1 11 12
M  V30 12 2 11 13
M  V30 13 2 11 14
M  V30 14 1 10 15
M  V30 15 2 15 16
M  V30 16 1 2 17
M  V30 17 2 17 18
M  V30 18 1 18 19
M  V30 19 2 19 20
M  V30 20 1 20 21
M  V30 21 1 16 3
M  V30 22 1 21 17
M  V30 23 1 16 7
M  V30 24 1 1 22
M  V30 25 1 1 23
M  V30 26 1 1 24
M  V30 27 1 6 25
M  V30 28 1 8 26
M  V30 29 1 9 27
M  V30 30 1 12 28
M  V30 31 1 12 29
M  V30 32 1 15 30
M  V30 33 1 18 31
M  V30 34 1 19 32
M  V30 35 1 20 33
M  V30 36 1 21 34
M  V30 END BOND
M  V30 END CTAB
M  END
>  <Dataset>  (48) 
ChEMBL_Kinases

>  <Ligand_Instance>  (48) 
nan

>  <PDB_ID>  (48) 
nan

>  <Standardized_SMILES>  (48) 
C/C(=C1/C(=O)Nc2ccc(S(N)(=O)=O)cc21)c1ccc[nH]1

>  <Name>  (48) 
nan

>  <Pocket>  (48) 
nan

>  <ATP_Site>  (48) 
nan

>  <Peripheral>  (48) 
nan

>  <Num_H_Atoms_ProtBoundConf>  (48) 
nan

>  <Num_Resolved_Atoms>  (48) 
nan

>  <Num_Not_Resolved_Atoms>  (48) 
nan

$$$$
CHEMBL234489
     RDKit          3D

  0  0  0  0  0  0  0  0  0  0999 V3000
M  V30 BEGIN CTAB
M  V30 COUNTS 42 45 0 0 0
M  V30 BEGIN ATOM
M  V30 1 N 1.137500 -4.880860 4.876981 0
M  V30 2 C 1.305561 -3.792992 4.529163 0
M  V30 3 C 1.527057 -2.440990 4.119028 0
M  V30 4 C 2.247660 -1.485056 4.795038 0
M  V30 5 N 2.363994 -0.270011 4.284771 0
M  V30 6 C 1.826675 0.141708 3.124045 0
M  V30 7 N 2.017061 1.471309 2.673693 0
M  V30 8 C 1.527379 2.066904 1.487279 0
M  V30 9 C 0.758187 1.457424 0.526154 0
M  V30 10 C 0.295352 2.063548 -0.620454 0
M  V30 11 C 0.617519 3.379897 -0.837717 0
M  V30 12 C 0.161457 4.108081 -2.044013 0
M  V30 13 C 1.220182 3.924440 -3.118831 0
M  V30 14 O 1.310275 2.534989 -3.342630 0
M  V30 15 C 1.384820 4.040856 0.090100 0
M  V30 16 C 1.819573 3.384272 1.218096 0
M  V30 17 N 1.130206 -0.808491 2.486019 0
M  V30 18 C 0.961137 -2.060533 2.927570 0
M  V30 19 C 0.162027 -3.042713 2.132413 0
M  V30 20 N -0.165384 -4.135380 2.209713 0
M  V30 21 C -0.898869 -4.861592 1.377496 0
M  V30 22 C -1.289081 -6.180331 1.479269 0
M  V30 23 C -2.060023 -6.740819 0.486132 0
M  V30 24 C -2.494906 -6.080835 -0.644144 0
M  V30 25 C -2.134511 -4.760382 -0.797985 0
M  V30 26 C -1.345826 -4.221518 0.238171 0
M  V30 27 S -0.623582 -2.523709 0.483747 0
M  V30 28 H 2.687325 -1.790941 5.726707 0
M  V30 29 H 2.593844 2.085758 3.302707 0
M  V30 30 H 0.478228 0.438306 0.642068 0
M  V30 31 H -0.305494 1.539167 -1.343019 0
M  V30 32 H -0.768845 3.621136 -2.405509 0
M  V30 33 H 0.016961 5.188915 -1.849999 0
M  V30 34 H 2.194059 4.333581 -2.787743 0
M  V30 35 H 0.842724 4.384668 -4.046187 0
M  V30 36 H 2.177635 2.237572 -2.982665 0
M  V30 37 H 1.638767 5.083769 -0.084257 0
M  V30 38 H 2.419068 3.966443 1.904586 0
M  V30 39 H -1.038037 -6.849979 2.300310 0
M  V30 40 H -2.381678 -7.795027 0.550849 0
M  V30 41 H -3.096338 -6.461940 -1.451687 0
M  V30 42 H -2.354766 -4.061189 -1.583548 0
M  V30 END ATOM
M  V30 BEGIN BOND
M  V30 1 3 1 2
M  V30 2 1 2 3
M  V30 3 2 3 4
M  V30 4 1 4 5
M  V30 5 2 5 6
M  V30 6 1 6 7
M  V30 7 1 7 8
M  V30 8 2 8 9
M  V30 9 1 9 10
M  V30 10 2 10 11
M  V30 11 1 11 12
M  V30 12 1 12 13
M  V30 13 1 13 14
M  V30 14 1 11 15
M  V30 15 2 15 16
M  V30 16 1 6 17
M  V30 17 2 17 18
M  V30 18 1 18 19
M  V30 19 2 19 20
M  V30 20 1 20 21
M  V30 21 2 21 22
M  V30 22 1 22 23
M  V30 23 2 23 24
M  V30 24 1 24 25
M  V30 25 2 25 26
M  V30 26 1 26 27
M  V30 27 1 18 3
M  V30 28 1 27 19
M  V30 29 1 16 8
M  V30 30 1 26 21
M  V30 31 1 4 28
M  V30 32 1 7 29
M  V30 33 1 9 30
M  V30 34 1 10 31
M  V30 35 1 12 32
M  V30 36 1 12 33
M  V30 37 1 13 34
M  V30 38 1 13 35
M  V30 39 1 14 36
M  V30 40 1 15 37
M  V30 41 1 16 38
M  V30 42 1 22 39
M  V30 43 1 23 40
M  V30 44 1 24 41
M  V30 45 1 25 42
M  V30 END BOND
M  V30 END CTAB
M  END
>  <Dataset>  (49) 
ChEMBL_Kinases

>  <Ligand_Instance>  (49) 
nan

>  <PDB_ID>  (49) 
nan

>  <Standardized_SMILES>  (49) 
N#Cc1cnc(Nc2ccc(CCO)cc2)nc1-c1nc2ccccc2s1

>  <Name>  (49) 
nan

>  <Pocket>  (49) 
nan

>  <ATP_Site>  (49) 
nan

>  <Peripheral>  (49) 
nan

>  <Num_H_Atoms_ProtBoundConf>  (49) 
nan

>  <Num_Resolved_Atoms>  (49) 
nan

>  <Num_Not_Resolved_Atoms>  (49) 
nan

$$$$
CHEMBL234482
     RDKit          3D

  0  0  0  0  0  0  0  0  0  0999 V3000
M  V30 BEGIN CTAB
M  V30 COUNTS 62 67 0 0 0
M  V30 BEGIN ATOM
M  V30 1 O 2.274438 2.473049 3.459059 0
M  V30 2 C 3.127740 3.039611 2.665150 0
M  V30 3 C 4.395112 2.999912 3.367872 0
M  V30 4 N 5.568990 3.486789 2.775609 0
M  V30 5 C 6.212648 2.779868 1.745534 0
M  V30 6 C 5.471208 2.533395 0.515929 0
M  V30 7 C 5.544053 3.458955 -0.519162 0
M  V30 8 C 4.904347 3.361191 -1.741541 0
M  V30 9 N 4.150914 2.265341 -1.921446 0
M  V30 10 C 4.009900 1.295751 -0.973290 0
M  V30 11 C 4.669575 1.421642 0.254623 0
M  V30 12 N 2.390367 3.412855 1.514195 0
M  V30 13 C 1.029189 3.021914 1.654975 0
M  V30 14 C 0.009511 3.757058 2.191343 0
M  V30 15 C -1.253570 3.181811 2.233172 0
M  V30 16 C -1.437840 1.908140 1.740665 0
M  V30 17 C -0.424512 1.138461 1.191201 0
M  V30 18 C 0.832158 1.735761 1.160033 0
M  V30 19 C -0.954747 -0.177126 0.759402 0
M  V30 20 C -2.395078 -0.092288 1.116179 0
M  V30 21 C -3.547198 -0.872146 1.046196 0
M  V30 22 C -3.722172 -2.230717 0.514258 0
M  V30 23 C -3.102917 -2.485563 -0.715661 0
M  V30 24 C -3.283662 -3.785732 -1.200917 0
M  V30 25 C -3.999320 -4.786586 -0.575487 0
M  V30 26 C -4.093118 -6.094012 -1.213196 0
M  V30 27 C -4.099363 -6.284582 -2.575118 0
M  V30 28 C -4.191558 -7.549812 -3.115545 0
M  V30 29 C -4.282197 -8.686888 -2.311138 0
M  V30 30 O -4.370694 -9.904054 -2.939466 0
M  V30 31 C -4.274807 -8.480067 -0.942021 0
M  V30 32 C -4.181518 -7.198170 -0.391414 0
M  V30 33 C -4.588860 -4.481955 0.633483 0
M  V30 34 C -4.443117 -3.214599 1.159422 0
M  V30 35 N -4.506814 -0.092123 1.587361 0
M  V30 36 N -3.995955 1.081040 1.965181 0
M  V30 37 C -2.674908 1.113232 1.684020 0
M  V30 38 H 4.319436 3.502466 4.385902 0
M  V30 39 H 4.618901 1.919056 3.684147 0
M  V30 40 H 6.165047 4.121303 3.337049 0
M  V30 41 H 7.172394 3.298193 1.427729 0
M  V30 42 H 6.583288 1.775203 2.137882 0
M  V30 43 H 6.159929 4.346973 -0.361658 0
M  V30 44 H 5.025027 4.134578 -2.480888 0
M  V30 45 H 3.411333 0.418520 -1.108215 0
M  V30 46 H 4.602013 0.693389 1.048497 0
M  V30 47 H 3.081991 3.886913 0.890438 0
M  V30 48 H 0.300944 4.737301 2.537492 0
M  V30 49 H -2.028827 3.789035 2.661398 0
M  V30 50 H 1.600524 1.091735 0.718591 0
M  V30 51 H -0.422958 -0.972449 1.338843 0
M  V30 52 H -0.880083 -0.313525 -0.324498 0
M  V30 53 H -2.520072 -1.778920 -1.290988 0
M  V30 54 H -2.817687 -4.008570 -2.146283 0
M  V30 55 H -4.030926 -5.426454 -3.225498 0
M  V30 56 H -4.194314 -7.666825 -4.183764 0
M  V30 57 H -3.555993 -10.456361 -3.198320 0
M  V30 58 H -4.346198 -9.382925 -0.318473 0
M  V30 59 H -4.188364 -7.197243 0.690505 0
M  V30 60 H -5.155602 -5.245174 1.146099 0
M  V30 61 H -4.908043 -2.984768 2.106467 0
M  V30 62 H -4.559167 1.846955 2.411790 0
M  V30 END ATOM
M  V30 BEGIN BOND
M  V30 1 2 1 2
M  V30 2 1 2 3
M  V30 3 1 3 4
M  V30 4 1 4 5
M  V30 5 1 5 6
M  V30 6 2 6 7
M  V30 7 1 7 8
M  V30 8 2 8 9
M  V30 9 1 9 10
M  V30 10 2 10 11
M  V30 11 1 2 12
M  V30 12 1 12 13
M  V30 13 2 13 14
M  V30 14 1 14 15
M  V30 15 2 15 16
M  V30 16 1 16 17
M  V30 17 2 17 18
M  V30 18 1 17 19
M  V30 19 1 19 20
M  V30 20 1 20 21
M  V30 21 1 21 22
M  V30 22 2 22 23
M  V30 23 1 23 24
M  V30 24 2 24 25
M  V30 25 1 25 26
M  V30 26 2 26 27
M  V30 27 1 27 28
M  V30 28 2 28 29
M  V30 29 1 29 30
M  V30 30 1 29 31
M  V30 31 2 31 32
M  V30 32 1 25 33
M  V30 33 2 33 34
M  V30 34 2 21 35
M  V30 35 1 35 36
M  V30 36 1 36 37
M  V30 37 1 11 6
M  V30 38 1 18 13
M  V30 39 2 37 20
M  V30 40 1 37 16
M  V30 41 1 34 22
M  V30 42 1 32 26
M  V30 43 1 3 38
M  V30 44 1 3 39
M  V30 45 1 4 40
M  V30 46 1 5 41
M  V30 47 1 5 42
M  V30 48 1 7 43
M  V30 49 1 8 44
M  V30 50 1 10 45
M  V30 51 1 11 46
M  V30 52 1 12 47
M  V30 53 1 14 48
M  V30 54 1 15 49
M  V30 55 1 18 50
M  V30 56 1 19 51
M  V30 57 1 19 52
M  V30 58 1 23 53
M  V30 59 1 24 54
M  V30 60 1 27 55
M  V30 61 1 28 56
M  V30 62 1 30 57
M  V30 63 1 31 58
M  V30 64 1 32 59
M  V30 65 1 33 60
M  V30 66 1 34 61
M  V30 67 1 36 62
M  V30 END BOND
M  V30 END CTAB
M  END
>  <Dataset>  (50) 
ChEMBL_Kinases

>  <Ligand_Instance>  (50) 
nan

>  <PDB_ID>  (50) 
nan

>  <Standardized_SMILES>  (50) 
O=C(CNCc1ccncc1)Nc1ccc2c(c1)Cc1c(-c3ccc(-c4ccc(O)cc4)cc3)n[nH]c1-2

>  <Name>  (50) 
nan

>  <Pocket>  (50) 
nan

>  <ATP_Site>  (50) 
nan

>  <Peripheral>  (50) 
nan

>  <Num_H_Atoms_ProtBoundConf>  (50) 
nan

>  <Num_Resolved_Atoms>  (50) 
nan

>  <Num_Not_Resolved_Atoms>  (50) 
nan

$$$$
CHEMBL234479
     RDKit          3D

  0  0  0  0  0  0  0  0  0  0999 V3000
M  V30 BEGIN CTAB
M  V30 COUNTS 57 62 0 0 0
M  V30 BEGIN ATOM
M  V30 1 O 3.044770 3.163569 4.160669 0
M  V30 2 C 2.588251 2.062286 3.776006 0
M  V30 3 N 3.047120 0.874711 4.399011 0
M  V30 4 C 4.020153 0.768898 5.467903 0
M  V30 5 C 5.374906 0.952632 4.866159 0
M  V30 6 C 6.091104 2.105211 4.710651 0
M  V30 7 C 7.349149 2.072128 4.113487 0
M  V30 8 C 7.913961 0.895296 3.662742 0
M  V30 9 C 7.147480 -0.231576 3.846371 0
M  V30 10 N 5.937581 -0.206733 4.419401 0
M  V30 11 C 1.605980 2.085406 2.701837 0
M  V30 12 C 1.234838 3.302059 2.175735 0
M  V30 13 C 0.324002 3.498916 1.158636 0
M  V30 14 C -0.283047 2.389264 0.602495 0
M  V30 15 C 0.068090 1.155042 1.108421 0
M  V30 16 C 0.997333 0.993498 2.142325 0
M  V30 17 C -0.661355 0.059476 0.416823 0
M  V30 18 C -1.485262 0.789083 -0.560397 0
M  V30 19 C -2.428941 0.636392 -1.582877 0
M  V30 20 C -2.918150 -0.681233 -1.994354 0
M  V30 21 C -3.291961 -1.640254 -1.057692 0
M  V30 22 C -3.756202 -2.895212 -1.470030 0
M  V30 23 C -3.847941 -3.195064 -2.834014 0
M  V30 24 C -4.343006 -4.533017 -3.211421 0
M  V30 25 C -4.009319 -5.530322 -2.296499 0
M  V30 26 C -4.397370 -6.852526 -2.498288 0
M  V30 27 C -5.123307 -7.145211 -3.633447 0
M  V30 28 O -5.601783 -8.416016 -4.006981 0
M  V30 29 C -5.443392 -6.145489 -4.526052 0
M  V30 30 C -5.073571 -4.830972 -4.352385 0
M  V30 31 C -3.471647 -2.229298 -3.767536 0
M  V30 32 C -3.017134 -0.999750 -3.335467 0
M  V30 33 N -2.742979 1.880276 -2.049908 0
M  V30 34 N -2.036906 2.783505 -1.362209 0
M  V30 35 C -1.265677 2.157290 -0.453216 0
M  V30 36 H 2.619823 0.000169 4.024311 0
M  V30 37 H 3.861947 1.590709 6.222417 0
M  V30 38 H 3.923180 -0.205048 5.946033 0
M  V30 39 H 5.608774 2.992583 5.080238 0
M  V30 40 H 7.833767 3.055241 4.040770 0
M  V30 41 H 8.891061 0.930031 3.208871 0
M  V30 42 H 7.565169 -1.182835 3.500633 0
M  V30 43 H 1.661441 4.243473 2.549565 0
M  V30 44 H 0.064533 4.477510 0.778489 0
M  V30 45 H 1.259070 0.017336 2.524644 0
M  V30 46 H 0.035765 -0.667650 -0.034676 0
M  V30 47 H -1.337467 -0.407270 1.186240 0
M  V30 48 H -3.209192 -1.377592 -0.000893 0
M  V30 49 H -4.024958 -3.578355 -0.674331 0
M  V30 50 H -3.443582 -5.401496 -1.378586 0
M  V30 51 H -4.186450 -7.682332 -1.850578 0
M  V30 52 H -4.931511 -9.142061 -4.291779 0
M  V30 53 H -6.015132 -6.317788 -5.441267 0
M  V30 54 H -5.277636 -4.000800 -4.989867 0
M  V30 55 H -3.558774 -2.504148 -4.823760 0
M  V30 56 H -2.732252 -0.271173 -4.098205 0
M  V30 57 H -2.091330 3.825478 -1.523078 0
M  V30 END ATOM
M  V30 BEGIN BOND
M  V30 1 2 1 2
M  V30 2 1 2 3
M  V30 3 1 3 4
M  V30 4 1 4 5
M  V30 5 2 5 6
M  V30 6 1 6 7
M  V30 7 2 7 8
M  V30 8 1 8 9
M  V30 9 2 9 10
M  V30 10 1 2 11
M  V30 11 2 11 12
M  V30 12 1 12 13
M  V30 13 2 13 14
M  V30 14 1 14 15
M  V30 15 2 15 16
M  V30 16 1 15 17
M  V30 17 1 17 18
M  V30 18 1 18 19
M  V30 19 1 19 20
M  V30 20 2 20 21
M  V30 21 1 21 22
M  V30 22 2 22 23
M  V30 23 1 23 24
M  V30 24 2 24 25
M  V30 25 1 25 26
M  V30 26 2 26 27
M  V30 27 1 27 28
M  V30 28 1 27 29
M  V30 29 2 29 30
M  V30 30 1 23 31
M  V30 31 2 31 32
M  V30 32 2 19 33
M  V30 33 1 33 34
M  V30 34 1 34 35
M  V30 35 1 10 5
M  V30 36 1 16 11
M  V30 37 2 35 18
M  V30 38 1 35 14
M  V30 39 1 32 20
M  V30 40 1 30 24
M  V30 41 1 3 36
M  V30 42 1 4 37
M  V30 43 1 4 38
M  V30 44 1 6 39
M  V30 45 1 7 40
M  V30 46 1 8 41
M  V30 47 1 9 42
M  V30 48 1 12 43
M  V30 49 1 13 44
M  V30 50 1 16 45
M  V30 51 1 17 46
M  V30 52 1 17 47
M  V30 53 1 21 48
M  V30 54 1 22 49
M  V30 55 1 25 50
M  V30 56 1 26 51
M  V30 57 1 28 52
M  V30 58 1 29 53
M  V30 59 1 30 54
M  V30 60 1 31 55
M  V30 61 1 32 56
M  V30 62 1 34 57
M  V30 END BOND
M  V30 END CTAB
M  END
>  <Dataset>  (51) 
ChEMBL_Kinases

>  <Ligand_Instance>  (51) 
nan

>  <PDB_ID>  (51) 
nan

>  <Standardized_SMILES>  (51) 
O=C(NCc1ccccn1)c1ccc2c(c1)Cc1c(-c3ccc(-c4ccc(O)cc4)cc3)n[nH]c1-2

>  <Name>  (51) 
nan

>  <Pocket>  (51) 
nan

>  <ATP_Site>  (51) 
nan

>  <Peripheral>  (51) 
nan

>  <Num_H_Atoms_ProtBoundConf>  (51) 
nan

>  <Num_Resolved_Atoms>  (51) 
nan

>  <Num_Not_Resolved_Atoms>  (51) 
nan

$$$$
CHEMBL234402
     RDKit          3D

  0  0  0  0  0  0  0  0  0  0999 V3000
M  V30 BEGIN CTAB
M  V30 COUNTS 64 69 0 0 0
M  V30 BEGIN ATOM
M  V30 1 C 3.385183 4.582242 -0.243070 0
M  V30 2 O 3.081152 3.739953 0.852805 0
M  V30 3 C 2.424617 2.545709 0.618046 0
M  V30 4 C 2.002067 2.028998 -0.589326 0
M  V30 5 C 1.354595 0.814699 -0.671224 0
M  V30 6 C 1.103288 0.065691 0.460720 0
M  V30 7 C 1.524810 0.580900 1.665929 0
M  V30 8 C 2.183239 1.807717 1.781572 0
M  V30 9 C 2.585599 2.256458 3.120043 0
M  V30 10 N 1.773549 3.276414 3.704935 0
M  V30 11 C 2.156839 3.708946 5.005994 0
M  V30 12 C 0.919023 3.940862 5.842959 0
M  V30 13 C 0.062487 4.972801 5.125665 0
M  V30 14 O 0.815419 6.110195 4.855309 0
M  V30 15 C -0.401017 4.399249 3.801961 0
M  V30 16 C 0.378684 3.140296 3.457835 0
M  V30 17 C 0.398094 -1.186479 0.080727 0
M  V30 18 C 0.248488 -1.118749 -1.402206 0
M  V30 19 C -0.210779 -1.719883 -2.555131 0
M  V30 20 C -0.886707 -3.018628 -2.510394 0
M  V30 21 C -2.047278 -3.263459 -3.220464 0
M  V30 22 C -2.729162 -4.464871 -3.219052 0
M  V30 23 C -2.197424 -5.500767 -2.439194 0
M  V30 24 C -2.859956 -6.800351 -2.385868 0
M  V30 25 C -2.244290 -8.022112 -2.210849 0
M  V30 26 C -3.004818 -9.166929 -2.181770 0
M  V30 27 C -4.375760 -9.171050 -2.319680 0
M  V30 28 O -5.050275 -10.373027 -2.276535 0
M  V30 29 C -4.980367 -7.942023 -2.494299 0
M  V30 30 C -4.246474 -6.783636 -2.527303 0
M  V30 31 C -1.038028 -5.243489 -1.734780 0
M  V30 32 C -0.354361 -4.041509 -1.735249 0
M  V30 33 N 0.083012 -0.913126 -3.591944 0
M  V30 34 N 0.708100 0.175444 -3.159745 0
M  V30 35 C 0.823313 0.075569 -1.816940 0
M  V30 36 H 2.561051 4.652788 -0.981016 0
M  V30 37 H 4.287830 4.263008 -0.811227 0
M  V30 38 H 3.649932 5.615620 0.119794 0
M  V30 39 H 2.223460 2.653252 -1.437559 0
M  V30 40 H 1.325777 -0.007461 2.542210 0
M  V30 41 H 3.659239 2.588629 3.044944 0
M  V30 42 H 2.618037 1.392250 3.813583 0
M  V30 43 H 2.753791 4.644079 5.035174 0
M  V30 44 H 2.714546 2.871461 5.499548 0
M  V30 45 H 0.287697 3.010601 5.870355 0
M  V30 46 H 1.123214 4.322992 6.849375 0
M  V30 47 H -0.825043 5.279158 5.697289 0
M  V30 48 H 0.252632 6.929374 4.892369 0
M  V30 49 H -1.460722 4.081707 3.891117 0
M  V30 50 H -0.294721 5.151591 3.016224 0
M  V30 51 H -0.099651 2.277316 3.969841 0
M  V30 52 H 0.230688 2.992409 2.372869 0
M  V30 53 H -0.557915 -1.317030 0.611517 0
M  V30 54 H 1.079057 -2.054960 0.271743 0
M  V30 55 H -2.483321 -2.466976 -3.838729 0
M  V30 56 H -3.634444 -4.603864 -3.793432 0
M  V30 57 H -1.183319 -7.986507 -2.107005 0
M  V30 58 H -2.409440 -10.078549 -2.037437 0
M  V30 59 H -6.040619 -10.426538 -2.062354 0
M  V30 60 H -6.059685 -7.910191 -2.606021 0
M  V30 61 H -4.786187 -5.860544 -2.667081 0
M  V30 62 H -0.675691 -6.095585 -1.145546 0
M  V30 63 H 0.539507 -3.939028 -1.154330 0
M  V30 64 H 1.029903 0.943564 -3.811978 0
M  V30 END ATOM
M  V30 BEGIN BOND
M  V30 1 1 1 2
M  V30 2 1 2 3
M  V30 3 2 3 4
M  V30 4 1 4 5
M  V30 5 2 5 6
M  V30 6 1 6 7
M  V30 7 2 7 8
M  V30 8 1 8 9
M  V30 9 1 9 10
M  V30 10 1 10 11
M  V30 11 1 11 12
M  V30 12 1 12 13
M  V30 13 1 13 14
M  V30 14 1 13 15
M  V30 15 1 15 16
M  V30 16 1 6 17
M  V30 17 1 17 18
M  V30 18 1 18 19
M  V30 19 1 19 20
M  V30 20 2 20 21
M  V30 21 1 21 22
M  V30 22 2 22 23
M  V30 23 1 23 24
M  V30 24 2 24 25
M  V30 25 1 25 26
M  V30 26 2 26 27
M  V30 27 1 27 28
M  V30 28 1 27 29
M  V30 29 2 29 30
M  V30 30 1 23 31
M  V30 31 2 31 32
M  V30 32 2 19 33
M  V30 33 1 33 34
M  V30 34 1 34 35
M  V30 35 1 8 3
M  V30 36 1 16 10
M  V30 37 2 35 18
M  V30 38 1 35 5
M  V30 39 1 32 20
M  V30 40 1 30 24
M  V30 41 1 1 36
M  V30 42 1 1 37
M  V30 43 1 1 38
M  V30 44 1 4 39
M  V30 45 1 7 40
M  V30 46 1 9 41
M  V30 47 1 9 42
M  V30 48 1 11 43
M  V30 49 1 11 44
M  V30 50 1 12 45
M  V30 51 1 12 46
M  V30 52 1 13 47
M  V30 53 1 14 48
M  V30 54 1 15 49
M  V30 55 1 15 50
M  V30 56 1 16 51
M  V30 57 1 16 52
M  V30 58 1 17 53
M  V30 59 1 17 54
M  V30 60 1 21 55
M  V30 61 1 22 56
M  V30 62 1 25 57
M  V30 63 1 26 58
M  V30 64 1 28 59
M  V30 65 1 29 60
M  V30 66 1 30 61
M  V30 67 1 31 62
M  V30 68 1 32 63
M  V30 69 1 34 64
M  V30 END BOND
M  V30 END CTAB
M  END
>  <Dataset>  (52) 
ChEMBL_Kinases

>  <Ligand_Instance>  (52) 
nan

>  <PDB_ID>  (52) 
nan

>  <Standardized_SMILES>  (52) 
COc1cc2c(cc1CN1CCC(O)CC1)Cc1c(-c3ccc(-c4ccc(O)cc4)cc3)n[nH]c1-2

>  <Name>  (52) 
nan

>  <Pocket>  (52) 
nan

>  <ATP_Site>  (52) 
nan

>  <Peripheral>  (52) 
nan

>  <Num_H_Atoms_ProtBoundConf>  (52) 
nan

>  <Num_Resolved_Atoms>  (52) 
nan

>  <Num_Not_Resolved_Atoms>  (52) 
nan

$$$$
CHEMBL234275
     RDKit          3D

  0  0  0  0  0  0  0  0  0  0999 V3000
M  V30 BEGIN CTAB
M  V30 COUNTS 45 47 0 0 0
M  V30 BEGIN ATOM
M  V30 1 N 0.056709 -5.858015 3.412875 0
M  V30 2 C 0.416858 -4.753798 3.391113 0
M  V30 3 C 0.885730 -3.396841 3.365631 0
M  V30 4 C 1.776671 -2.876520 4.263641 0
M  V30 5 N 2.171260 -1.601606 4.180797 0
M  V30 6 C 1.737067 -0.751502 3.235350 0
M  V30 7 N 2.199185 0.589182 3.208579 0
M  V30 8 C 1.853740 1.614592 2.295562 0
M  V30 9 C 0.985411 1.506588 1.235102 0
M  V30 10 C 0.652690 2.505466 0.350670 0
M  V30 11 C 1.242664 3.736838 0.538995 0
M  V30 12 C 0.921706 4.851090 -0.383473 0
M  V30 13 C 1.887478 4.862157 -1.559125 0
M  V30 14 O 3.172350 5.024830 -1.043277 0
M  V30 15 C 2.123041 3.910514 1.584687 0
M  V30 16 C 2.406694 2.866734 2.427024 0
M  V30 17 N 0.867956 -1.301572 2.378893 0
M  V30 18 C 0.418635 -2.553812 2.381442 0
M  V30 19 C -0.534148 -2.950984 1.347641 0
M  V30 20 C -0.310517 -2.586209 0.033566 0
M  V30 21 C -1.167258 -2.924793 -1.001896 0
M  V30 22 C -2.302731 -3.661340 -0.724511 0
M  V30 23 S -3.507293 -4.189647 -1.881024 0
M  V30 24 N -3.004468 -5.749652 -2.462046 0
M  V30 25 O -4.863603 -4.227103 -1.277055 0
M  V30 26 O -3.428388 -3.265828 -3.068835 0
M  V30 27 C -2.522224 -4.023566 0.589324 0
M  V30 28 C -1.672545 -3.689475 1.626029 0
M  V30 29 H 2.153637 -3.523261 5.042451 0
M  V30 30 H 2.880265 0.849976 3.958363 0
M  V30 31 H 0.498922 0.562664 1.046945 0
M  V30 32 H -0.040471 2.346081 -0.462260 0
M  V30 33 H -0.134571 4.799866 -0.745227 0
M  V30 34 H 1.070203 5.811209 0.154135 0
M  V30 35 H 1.771906 3.900267 -2.112261 0
M  V30 36 H 1.632168 5.693149 -2.230273 0
M  V30 37 H 3.428817 4.277454 -0.474743 0
M  V30 38 H 2.577547 4.883117 1.718744 0
M  V30 39 H 3.117378 3.095717 3.230338 0
M  V30 40 H 0.567755 -2.007994 -0.229895 0
M  V30 41 H -1.030715 -2.662099 -2.033262 0
M  V30 42 H -2.449244 -5.673169 -3.342628 0
M  V30 43 H -2.390192 -6.229068 -1.766109 0
M  V30 44 H -3.402574 -4.607796 0.879958 0
M  V30 45 H -1.884668 -3.994844 2.640191 0
M  V30 END ATOM
M  V30 BEGIN BOND
M  V30 1 3 1 2
M  V30 2 1 2 3
M  V30 3 2 3 4
M  V30 4 1 4 5
M  V30 5 2 5 6
M  V30 6 1 6 7
M  V30 7 1 7 8
M  V30 8 2 8 9
M  V30 9 1 9 10
M  V30 10 2 10 11
M  V30 11 1 11 12
M  V30 12 1 12 13
M  V30 13 1 13 14
M  V30 14 1 11 15
M  V30 15 2 15 16
M  V30 16 1 6 17
M  V30 17 2 17 18
M  V30 18 1 18 19
M  V30 19 2 19 20
M  V30 20 1 20 21
M  V30 21 2 21 22
M  V30 22 1 22 23
M  V30 23 1 23 24
M  V30 24 2 23 25
M  V30 25 2 23 26
M  V30 26 1 22 27
M  V30 27 2 27 28
M  V30 28 1 18 3
M  V30 29 1 28 19
M  V30 30 1 16 8
M  V30 31 1 4 29
M  V30 32 1 7 30
M  V30 33 1 9 31
M  V30 34 1 10 32
M  V30 35 1 12 33
M  V30 36 1 12 34
M  V30 37 1 13 35
M  V30 38 1 13 36
M  V30 39 1 14 37
M  V30 40 1 15 38
M  V30 41 1 16 39
M  V30 42 1 20 40
M  V30 43 1 21 41
M  V30 44 1 24 42
M  V30 45 1 24 43
M  V30 46 1 27 44
M  V30 47 1 28 45
M  V30 END BOND
M  V30 END CTAB
M  END
>  <Dataset>  (53) 
ChEMBL_Kinases

>  <Ligand_Instance>  (53) 
nan

>  <PDB_ID>  (53) 
nan

>  <Standardized_SMILES>  (53) 
N#Cc1cnc(Nc2ccc(CCO)cc2)nc1-c1ccc(S(N)(=O)=O)cc1

>  <Name>  (53) 
nan

>  <Pocket>  (53) 
nan

>  <ATP_Site>  (53) 
nan

>  <Peripheral>  (53) 
nan

>  <Num_H_Atoms_ProtBoundConf>  (53) 
nan

>  <Num_Resolved_Atoms>  (53) 
nan

>  <Num_Not_Resolved_Atoms>  (53) 
nan

$$$$
CHEMBL234200
     RDKit          3D

  0  0  0  0  0  0  0  0  0  0999 V3000
M  V30 BEGIN CTAB
M  V30 COUNTS 73 78 0 0 0
M  V30 BEGIN ATOM
M  V30 1 C 3.611411 -0.689239 4.802696 0
M  V30 2 C 3.249833 0.272636 3.667374 0 CFG=2
M  V30 3 N 1.930757 0.816931 3.822774 0
M  V30 4 C 1.587173 1.718968 2.756247 0
M  V30 5 N 1.893588 3.030863 2.877504 0
M  V30 6 C 1.538346 3.822205 1.831756 0
M  V30 7 C 0.907124 3.370698 0.700947 0
M  V30 8 C 0.610132 2.032894 0.609330 0
M  V30 9 C -0.056180 1.454845 -0.545624 0
M  V30 10 C 0.541086 1.475551 -1.765252 0
M  V30 11 C 1.797829 1.964484 -2.314123 0
M  V30 12 C 3.020202 1.475648 -1.899124 0
M  V30 13 C 4.157395 2.001486 -2.478706 0
M  V30 14 C 4.045198 2.985420 -3.441544 0
M  V30 15 F 5.198177 3.472081 -3.982715 0
M  V30 16 C 2.819824 3.490418 -3.872279 0
M  V30 17 C 1.670789 2.956255 -3.283825 0
M  V30 18 N -0.314697 0.872477 -2.619989 0
M  V30 19 C -1.419860 0.480933 -1.966491 0
M  V30 20 C -2.594456 -0.160989 -2.298625 0
M  V30 21 C -3.607598 -0.453355 -1.399836 0
M  V30 22 C -4.821129 -1.147429 -1.887144 0
M  V30 23 N -4.655953 -2.584430 -1.788655 0
M  V30 24 C -5.829223 -3.291152 -2.266425 0
M  V30 25 C -4.296300 -2.995388 -0.445857 0
M  V30 26 C -4.149570 -4.492025 -0.474665 0
M  V30 27 O -4.306786 -5.257982 -1.480138 0
M  V30 28 N -3.791765 -5.042839 0.810333 0
M  V30 29 C -3.511746 -4.627765 2.189008 0
M  V30 30 C -2.620875 -5.844644 2.309882 0
M  V30 31 C -3.545414 -6.419876 1.259337 0
M  V30 32 C -3.354680 -0.046016 -0.107163 0
M  V30 33 C -2.192962 0.596039 0.254025 0
M  V30 34 N -1.254729 0.844915 -0.677790 0
M  V30 35 N 0.963436 1.231189 1.655143 0
M  V30 36 C 3.449181 -0.474555 2.399415 0
M  V30 37 C 2.529196 -1.378472 1.927131 0
M  V30 38 C 2.760763 -2.053890 0.734605 0
M  V30 39 C 3.923422 -1.820561 0.011335 0
M  V30 40 C 4.850897 -0.916624 0.476772 0
M  V30 41 C 4.614784 -0.251807 1.657979 0
M  V30 42 H 4.684578 -0.949951 4.657285 0
M  V30 43 H 3.405754 -0.220409 5.770329 0
M  V30 44 H 3.013746 -1.612132 4.610502 0
M  V30 45 H 3.999399 1.096328 3.731496 0
M  V30 46 H 1.282070 0.590325 4.618656 0
M  V30 47 H 1.763244 4.890692 1.879263 0
M  V30 48 H 0.635944 4.000407 -0.107658 0
M  V30 49 H 3.029190 0.706386 -1.142128 0
M  V30 50 H 5.118797 1.619010 -2.154321 0
M  V30 51 H 2.739100 4.261604 -4.627184 0
M  V30 52 H 0.695110 3.327476 -3.596240 0
M  V30 53 H -2.723840 -0.450830 -3.330242 0
M  V30 54 H -5.749206 -0.798645 -1.391362 0
M  V30 55 H -4.943686 -0.893778 -2.958716 0
M  V30 56 H -6.208956 -3.903825 -1.424580 0
M  V30 57 H -5.483719 -3.997009 -3.049558 0
M  V30 58 H -6.619130 -2.615666 -2.656368 0
M  V30 59 H -5.135634 -2.779500 0.244765 0
M  V30 60 H -3.399162 -2.506785 -0.071888 0
M  V30 61 H -4.433295 -4.722446 2.811769 0
M  V30 62 H -2.950968 -3.688853 2.292682 0
M  V30 63 H -1.608066 -5.639694 1.918373 0
M  V30 64 H -2.656400 -6.350912 3.296614 0
M  V30 65 H -4.419213 -6.935393 1.691499 0
M  V30 66 H -2.964358 -7.034931 0.535640 0
M  V30 67 H -4.147471 -0.269514 0.620534 0
M  V30 68 H -2.041437 0.897675 1.290374 0
M  V30 69 H 1.624776 -1.581234 2.458741 0
M  V30 70 H 2.090023 -2.780110 0.292450 0
M  V30 71 H 4.142750 -2.328235 -0.926304 0
M  V30 72 H 5.771326 -0.712998 -0.068021 0
M  V30 73 H 5.382851 0.459424 1.989104 0
M  V30 END ATOM
M  V30 BEGIN BOND
M  V30 1 1 1 2
M  V30 2 1 2 3
M  V30 3 1 3 4
M  V30 4 2 4 5
M  V30 5 1 5 6
M  V30 6 2 6 7
M  V30 7 1 7 8
M  V30 8 1 8 9
M  V30 9 2 9 10
M  V30 10 1 10 11
M  V30 11 2 11 12
M  V30 12 1 12 13
M  V30 13 2 13 14
M  V30 14 1 14 15
M  V30 15 1 14 16
M  V30 16 2 16 17
M  V30 17 1 10 18
M  V30 18 2 18 19
M  V30 19 1 19 20
M  V30 20 2 20 21
M  V30 21 1 21 22
M  V30 22 1 22 23
M  V30 23 1 23 24
M  V30 24 1 23 25
M  V30 25 1 25 26
M  V30 26 2 26 27
M  V30 27 1 26 28
M  V30 28 1 28 29
M  V30 29 1 29 30
M  V30 30 1 30 31
M  V30 31 1 21 32
M  V30 32 2 32 33
M  V30 33 1 33 34
M  V30 34 2 8 35
M  V30 35 1 2 36
M  V30 36 2 36 37
M  V30 37 1 37 38
M  V30 38 2 38 39
M  V30 39 1 39 40
M  V30 40 2 40 41
M  V30 41 1 35 4
M  V30 42 1 41 36
M  V30 43 1 34 9
M  V30 44 1 17 11
M  V30 45 1 34 19
M  V30 46 1 31 28
M  V30 47 1 1 42
M  V30 48 1 1 43
M  V30 49 1 1 44
M  V30 50 1 2 45 CFG=3
M  V30 51 1 3 46
M  V30 52 1 6 47
M  V30 53 1 7 48
M  V30 54 1 12 49
M  V30 55 1 13 50
M  V30 56 1 16 51
M  V30 57 1 17 52
M  V30 58 1 20 53
M  V30 59 1 22 54
M  V30 60 1 22 55
M  V30 61 1 24 56
M  V30 62 1 24 57
M  V30 63 1 24 58
M  V30 64 1 25 59
M  V30 65 1 25 60
M  V30 66 1 29 61
M  V30 67 1 29 62
M  V30 68 1 30 63
M  V30 69 1 30 64
M  V30 70 1 31 65
M  V30 71 1 31 66
M  V30 72 1 32 67
M  V30 73 1 33 68
M  V30 74 1 37 69
M  V30 75 1 38 70
M  V30 76 1 39 71
M  V30 77 1 40 72
M  V30 78 1 41 73
M  V30 END BOND
M  V30 END CTAB
M  END
>  <Dataset>  (54) 
ChEMBL_Kinases

>  <Ligand_Instance>  (54) 
nan

>  <PDB_ID>  (54) 
nan

>  <Standardized_SMILES>  (54) 
C[C@H](Nc1nccc(-c2c(-c3ccc(F)cc3)nc3cc(CN(C)CC(=O)N4CCC4)ccn23)n1)c1ccccc1

>  <Name>  (54) 
nan

>  <Pocket>  (54) 
nan

>  <ATP_Site>  (54) 
nan

>  <Peripheral>  (54) 
nan

>  <Num_H_Atoms_ProtBoundConf>  (54) 
nan

>  <Num_Resolved_Atoms>  (54) 
nan

>  <Num_Not_Resolved_Atoms>  (54) 
nan

$$$$
CHEMBL234067
     RDKit          3D

  0  0  0  0  0  0  0  0  0  0999 V3000
M  V30 BEGIN CTAB
M  V30 COUNTS 40 42 0 0 0
M  V30 BEGIN ATOM
M  V30 1 N -0.902545 -5.833698 3.995885 0
M  V30 2 C -0.270221 -5.048652 3.425367 0
M  V30 3 C 0.533651 -4.089185 2.724054 0
M  V30 4 C 1.906836 -4.139241 2.632879 0
M  V30 5 N 2.586104 -3.202612 1.957776 0
M  V30 6 C 1.992870 -2.169904 1.334597 0
M  V30 7 N 2.780975 -1.217365 0.639257 0
M  V30 8 C 2.340143 -0.074224 -0.069967 0
M  V30 9 C 1.040136 0.345806 -0.227940 0
M  V30 10 C 0.634452 1.460949 -0.921953 0
M  V30 11 C 1.581337 2.234266 -1.513966 0
M  V30 12 C 1.171891 3.446058 -2.270967 0
M  V30 13 C 1.156673 4.611298 -1.286198 0
M  V30 14 O 2.394017 4.831360 -0.712032 0
M  V30 15 C 2.905905 1.872786 -1.396566 0
M  V30 16 C 3.255712 0.745750 -0.689725 0
M  V30 17 N 0.664573 -2.154641 1.444520 0
M  V30 18 C -0.098661 -3.040750 2.094101 0
M  V30 19 C -1.553182 -2.852232 2.101905 0
M  V30 20 C -1.964695 -1.544273 2.358483 0
M  V30 21 C -3.306157 -1.168616 2.406604 0
M  V30 22 C -4.243416 -2.169861 2.184017 0
M  V30 23 Br -6.070711 -1.654365 2.250338 0
M  V30 24 C -3.855310 -3.450535 1.932480 0
M  V30 25 C -2.524268 -3.810598 1.887302 0
M  V30 26 H 2.426316 -4.957103 3.121924 0
M  V30 27 H 3.815763 -1.377431 0.650674 0
M  V30 28 H 0.246054 -0.230082 0.220955 0
M  V30 29 H -0.403733 1.730075 -1.004675 0
M  V30 30 H 1.892232 3.689464 -3.077770 0
M  V30 31 H 0.142591 3.315017 -2.630506 0
M  V30 32 H 0.461497 4.280744 -0.473367 0
M  V30 33 H 0.694461 5.518609 -1.709716 0
M  V30 34 H 2.316148 5.165588 0.227658 0
M  V30 35 H 3.678532 2.477896 -1.862666 0
M  V30 36 H 4.328395 0.518347 -0.637456 0
M  V30 37 H -1.248285 -0.737403 2.537041 0
M  V30 38 H -3.569339 -0.128938 2.611896 0
M  V30 39 H -4.594967 -4.240041 1.756954 0
M  V30 40 H -2.138296 -4.800713 1.694629 0
M  V30 END ATOM
M  V30 BEGIN BOND
M  V30 1 3 1 2
M  V30 2 1 2 3
M  V30 3 2 3 4
M  V30 4 1 4 5
M  V30 5 2 5 6
M  V30 6 1 6 7
M  V30 7 1 7 8
M  V30 8 2 8 9
M  V30 9 1 9 10
M  V30 10 2 10 11
M  V30 11 1 11 12
M  V30 12 1 12 13
M  V30 13 1 13 14
M  V30 14 1 11 15
M  V30 15 2 15 16
M  V30 16 1 6 17
M  V30 17 2 17 18
M  V30 18 1 18 19
M  V30 19 2 19 20
M  V30 20 1 20 21
M  V30 21 2 21 22
M  V30 22 1 22 23
M  V30 23 1 22 24
M  V30 24 2 24 25
M  V30 25 1 18 3
M  V30 26 1 25 19
M  V30 27 1 16 8
M  V30 28 1 4 26
M  V30 29 1 7 27
M  V30 30 1 9 28
M  V30 31 1 10 29
M  V30 32 1 12 30
M  V30 33 1 12 31
M  V30 34 1 13 32
M  V30 35 1 13 33
M  V30 36 1 14 34
M  V30 37 1 15 35
M  V30 38 1 16 36
M  V30 39 1 20 37
M  V30 40 1 21 38
M  V30 41 1 24 39
M  V30 42 1 25 40
M  V30 END BOND
M  V30 END CTAB
M  END
>  <Dataset>  (55) 
ChEMBL_Kinases

>  <Ligand_Instance>  (55) 
nan

>  <PDB_ID>  (55) 
nan

>  <Standardized_SMILES>  (55) 
N#Cc1cnc(Nc2ccc(CCO)cc2)nc1-c1ccc(Br)cc1

>  <Name>  (55) 
nan

>  <Pocket>  (55) 
nan

>  <ATP_Site>  (55) 
nan

>  <Peripheral>  (55) 
nan

>  <Num_H_Atoms_ProtBoundConf>  (55) 
nan

>  <Num_Resolved_Atoms>  (55) 
nan

>  <Num_Not_Resolved_Atoms>  (55) 
nan

$$$$
CHEMBL234065
     RDKit          3D

  0  0  0  0  0  0  0  0  0  0999 V3000
M  V30 BEGIN CTAB
M  V30 COUNTS 44 46 0 0 0
M  V30 BEGIN ATOM
M  V30 1 C -0.512222 -6.928560 3.643571 0
M  V30 2 O -1.366324 -6.051179 2.909441 0
M  V30 3 C -0.877219 -5.155220 1.968932 0
M  V30 4 C -1.788586 -4.354516 1.317434 0
M  V30 5 C -1.326099 -3.462106 0.384119 0
M  V30 6 C 0.015855 -3.314078 0.051957 0
M  V30 7 C 0.326637 -2.307316 -0.971410 0
M  V30 8 N -0.321387 -1.118734 -0.804686 0
M  V30 9 C -0.106081 -0.110624 -1.699587 0
M  V30 10 N -0.812932 1.105188 -1.469416 0
M  V30 11 C -0.287092 2.165292 -0.674415 0
M  V30 12 C -0.938137 3.363300 -0.424046 0
M  V30 13 C -0.360560 4.340422 0.357049 0
M  V30 14 C 0.887072 4.167327 0.921170 0
M  V30 15 C 1.560624 5.174125 1.766834 0
M  V30 16 C 1.228875 5.003832 3.233150 0
M  V30 17 O 1.905491 5.991598 3.946198 0
M  V30 18 C 1.566741 2.968734 0.685406 0
M  V30 19 C 0.959214 2.011637 -0.101425 0
M  V30 20 N 0.740745 -0.308349 -2.728523 0
M  V30 21 C 1.392150 -1.474377 -2.913317 0
M  V30 22 C 1.194611 -2.511937 -2.024870 0
M  V30 23 C 1.836874 -3.794856 -2.127338 0
M  V30 24 N 2.349972 -4.822297 -2.229327 0
M  V30 25 C 0.915947 -4.120634 0.710726 0
M  V30 26 C 0.476781 -5.026042 1.653420 0
M  V30 27 H 0.431916 -6.389058 3.917358 0
M  V30 28 H -0.214903 -7.822282 3.080721 0
M  V30 29 H -0.976446 -7.210911 4.608437 0
M  V30 30 H -2.846716 -4.441542 1.550466 0
M  V30 31 H -2.082325 -2.846144 -0.109343 0
M  V30 32 H -1.766348 1.298394 -1.870446 0
M  V30 33 H -1.913034 3.461045 -0.883305 0
M  V30 34 H -0.888532 5.266402 0.537676 0
M  V30 35 H 1.174507 6.175909 1.470503 0
M  V30 36 H 2.657276 5.075456 1.638525 0
M  V30 37 H 0.156105 5.101879 3.419556 0
M  V30 38 H 1.567747 4.019305 3.621522 0
M  V30 39 H 2.191093 5.674270 4.840722 0
M  V30 40 H 2.557077 2.740665 1.088583 0
M  V30 41 H 1.491425 1.074645 -0.285264 0
M  V30 42 H 2.071227 -1.628335 -3.741168 0
M  V30 43 H 1.939901 -3.993242 0.443206 0
M  V30 44 H 1.186963 -5.657904 2.168792 0
M  V30 END ATOM
M  V30 BEGIN BOND
M  V30 1 1 1 2
M  V30 2 1 2 3
M  V30 3 2 3 4
M  V30 4 1 4 5
M  V30 5 2 5 6
M  V30 6 1 6 7
M  V30 7 2 7 8
M  V30 8 1 8 9
M  V30 9 1 9 10
M  V30 10 1 10 11
M  V30 11 2 11 12
M  V30 12 1 12 13
M  V30 13 2 13 14
M  V30 14 1 14 15
M  V30 15 1 15 16
M  V30 16 1 16 17
M  V30 17 1 14 18
M  V30 18 2 18 19
M  V30 19 2 9 20
M  V30 20 1 20 21
M  V30 21 2 21 22
M  V30 22 1 22 23
M  V30 23 3 23 24
M  V30 24 1 6 25
M  V30 25 2 25 26
M  V30 26 1 26 3
M  V30 27 1 22 7
M  V30 28 1 19 11
M  V30 29 1 1 27
M  V30 30 1 1 28
M  V30 31 1 1 29
M  V30 32 1 4 30
M  V30 33 1 5 31
M  V30 34 1 10 32
M  V30 35 1 12 33
M  V30 36 1 13 34
M  V30 37 1 15 35
M  V30 38 1 15 36
M  V30 39 1 16 37
M  V30 40 1 16 38
M  V30 41 1 17 39
M  V30 42 1 18 40
M  V30 43 1 19 41
M  V30 44 1 21 42
M  V30 45 1 25 43
M  V30 46 1 26 44
M  V30 END BOND
M  V30 END CTAB
M  END
>  <Dataset>  (56) 
ChEMBL_Kinases

>  <Ligand_Instance>  (56) 
nan

>  <PDB_ID>  (56) 
nan

>  <Standardized_SMILES>  (56) 
COc1ccc(-c2nc(Nc3ccc(CCO)cc3)ncc2C#N)cc1

>  <Name>  (56) 
nan

>  <Pocket>  (56) 
nan

>  <ATP_Site>  (56) 
nan

>  <Peripheral>  (56) 
nan

>  <Num_H_Atoms_ProtBoundConf>  (56) 
nan

>  <Num_Resolved_Atoms>  (56) 
nan

>  <Num_Not_Resolved_Atoms>  (56) 
nan

$$$$
CHEMBL234060
     RDKit          3D

  0  0  0  0  0  0  0  0  0  0999 V3000
M  V30 BEGIN CTAB
M  V30 COUNTS 76 80 0 0 0
M  V30 BEGIN ATOM
M  V30 1 C 3.970295 0.042625 4.392718 0
M  V30 2 C 3.718447 1.467595 3.979847 0 CFG=2
M  V30 3 N 2.579147 1.551745 3.088416 0
M  V30 4 C 2.601798 0.859801 1.845365 0
M  V30 5 N 3.685758 0.139843 1.503190 0
M  V30 6 C 3.661241 -0.497629 0.320178 0
M  V30 7 C 2.586025 -0.432676 -0.523148 0
M  V30 8 C 1.479625 0.310108 -0.159653 0
M  V30 9 C 0.357078 0.348704 -1.091328 0
M  V30 10 C 0.223544 0.842749 -2.388278 0
M  V30 11 C 1.337343 1.477277 -3.089020 0
M  V30 12 C 1.809222 2.653674 -2.497877 0
M  V30 13 C 2.854068 3.387465 -3.020404 0
M  V30 14 C 3.444702 2.907476 -4.192013 0
M  V30 15 F 4.474808 3.609394 -4.728441 0
M  V30 16 C 2.996730 1.738771 -4.804215 0
M  V30 17 C 1.938803 1.033660 -4.237688 0
M  V30 18 N -1.050011 0.606572 -2.772006 0
M  V30 19 C -1.721154 -0.012882 -1.774966 0
M  V30 20 C -3.031201 -0.441715 -1.720035 0
M  V30 21 C -3.512104 -1.065723 -0.570571 0
M  V30 22 C -4.933845 -1.497950 -0.585003 0
M  V30 23 N -5.088220 -2.836738 -1.093326 0
M  V30 24 C -4.618380 -2.997538 -2.430354 0
M  V30 25 C -6.353384 -3.419888 -0.817633 0
M  V30 26 C -6.662345 -3.740527 0.586360 0
M  V30 27 C -5.873267 -4.741762 1.322478 0
M  V30 28 N -4.459856 -4.561080 1.467764 0
M  V30 29 C -3.962239 -5.500327 2.522947 0
M  V30 30 C -3.752983 -5.083741 0.271128 0
M  V30 31 C -2.612384 -1.218008 0.473034 0
M  V30 32 C -1.320798 -0.770691 0.359695 0
M  V30 33 N -0.854022 -0.164115 -0.757996 0
M  V30 34 N 1.517857 0.943621 1.028552 0
M  V30 35 C 4.908789 2.030124 3.309457 0
M  V30 36 C 6.097171 1.347945 3.386692 0
M  V30 37 C 7.246877 1.816200 2.784257 0
M  V30 38 C 7.225938 3.001519 2.078576 0
M  V30 39 C 6.035153 3.731328 1.973320 0
M  V30 40 C 4.903710 3.204232 2.606101 0
M  V30 41 H 2.991963 -0.432666 4.644861 0
M  V30 42 H 4.474130 -0.565641 3.630572 0
M  V30 43 H 4.630910 0.054301 5.305222 0
M  V30 44 H 3.506458 2.035149 4.918968 0
M  V30 45 H 1.750872 2.120068 3.366307 0
M  V30 46 H 4.513698 -1.098747 -0.011807 0
M  V30 47 H 2.578177 -0.960246 -1.490734 0
M  V30 48 H 1.378911 3.072063 -1.576666 0
M  V30 49 H 3.203540 4.296459 -2.546342 0
M  V30 50 H 3.448247 1.355385 -5.716065 0
M  V30 51 H 1.530950 0.105091 -4.663038 0
M  V30 52 H -3.700305 -0.298756 -2.569017 0
M  V30 53 H -5.543591 -0.788038 -1.181159 0
M  V30 54 H -5.361937 -1.427427 0.450156 0
M  V30 55 H -3.500888 -2.986347 -2.500774 0
M  V30 56 H -5.050359 -2.225186 -3.124384 0
M  V30 57 H -4.930448 -3.993315 -2.803528 0
M  V30 58 H -7.146744 -2.767364 -1.297477 0
M  V30 59 H -6.407773 -4.365480 -1.434943 0
M  V30 60 H -7.754979 -4.089250 0.587014 0
M  V30 61 H -6.765805 -2.783835 1.215739 0
M  V30 62 H -6.101852 -5.772074 0.883373 0
M  V30 63 H -6.263636 -4.813922 2.392271 0
M  V30 64 H -2.970108 -5.099370 2.812838 0
M  V30 65 H -4.606417 -5.457189 3.407791 0
M  V30 66 H -3.801409 -6.506804 2.106671 0
M  V30 67 H -3.070901 -5.930312 0.572566 0
M  V30 68 H -4.430602 -5.384485 -0.521685 0
M  V30 69 H -3.065789 -4.278054 -0.040006 0
M  V30 70 H -3.013521 -1.705806 1.352504 0
M  V30 71 H -0.666714 -0.916557 1.203608 0
M  V30 72 H 6.255588 0.415640 3.902035 0
M  V30 73 H 8.215406 1.306495 2.819301 0
M  V30 74 H 8.108075 3.400825 1.592453 0
M  V30 75 H 5.981688 4.677837 1.419807 0
M  V30 76 H 3.969836 3.758292 2.534900 0
M  V30 END ATOM
M  V30 BEGIN BOND
M  V30 1 1 1 2
M  V30 2 1 2 3
M  V30 3 1 3 4
M  V30 4 2 4 5
M  V30 5 1 5 6
M  V30 6 2 6 7
M  V30 7 1 7 8
M  V30 8 1 8 9
M  V30 9 2 9 10
M  V30 10 1 10 11
M  V30 11 2 11 12
M  V30 12 1 12 13
M  V30 13 2 13 14
M  V30 14 1 14 15
M  V30 15 1 14 16
M  V30 16 2 16 17
M  V30 17 1 10 18
M  V30 18 2 18 19
M  V30 19 1 19 20
M  V30 20 2 20 21
M  V30 21 1 21 22
M  V30 22 1 22 23
M  V30 23 1 23 24
M  V30 24 1 23 25
M  V30 25 1 25 26
M  V30 26 1 26 27
M  V30 27 1 27 28
M  V30 28 1 28 29
M  V30 29 1 28 30
M  V30 30 1 21 31
M  V30 31 2 31 32
M  V30 32 1 32 33
M  V30 33 2 8 34
M  V30 34 1 2 35
M  V30 35 2 35 36
M  V30 36 1 36 37
M  V30 37 2 37 38
M  V30 38 1 38 39
M  V30 39 2 39 40
M  V30 40 1 34 4
M  V30 41 1 40 35
M  V30 42 1 33 9
M  V30 43 1 17 11
M  V30 44 1 33 19
M  V30 45 1 1 41
M  V30 46 1 1 42
M  V30 47 1 1 43
M  V30 48 1 2 44 CFG=1
M  V30 49 1 3 45
M  V30 50 1 6 46
M  V30 51 1 7 47
M  V30 52 1 12 48
M  V30 53 1 13 49
M  V30 54 1 16 50
M  V30 55 1 17 51
M  V30 56 1 20 52
M  V30 57 1 22 53
M  V30 58 1 22 54
M  V30 59 1 24 55
M  V30 60 1 24 56
M  V30 61 1 24 57
M  V30 62 1 25 58
M  V30 63 1 25 59
M  V30 64 1 26 60
M  V30 65 1 26 61
M  V30 66 1 27 62
M  V30 67 1 27 63
M  V30 68 1 29 64
M  V30 69 1 29 65
M  V30 70 1 29 66
M  V30 71 1 30 67
M  V30 72 1 30 68
M  V30 73 1 30 69
M  V30 74 1 31 70
M  V30 75 1 32 71
M  V30 76 1 36 72
M  V30 77 1 37 73
M  V30 78 1 38 74
M  V30 79 1 39 75
M  V30 80 1 40 76
M  V30 END BOND
M  V30 END CTAB
M  END
>  <Dataset>  (57) 
ChEMBL_Kinases

>  <Ligand_Instance>  (57) 
nan

>  <PDB_ID>  (57) 
nan

>  <Standardized_SMILES>  (57) 
C[C@H](Nc1nccc(-c2c(-c3ccc(F)cc3)nc3cc(CN(C)CCCN(C)C)ccn23)n1)c1ccccc1

>  <Name>  (57) 
nan

>  <Pocket>  (57) 
nan

>  <ATP_Site>  (57) 
nan

>  <Peripheral>  (57) 
nan

>  <Num_H_Atoms_ProtBoundConf>  (57) 
nan

>  <Num_Resolved_Atoms>  (57) 
nan

>  <Num_Not_Resolved_Atoms>  (57) 
nan

$$$$
CHEMBL2335068
     RDKit          3D

  0  0  0  0  0  0  0  0  0  0999 V3000
M  V30 BEGIN CTAB
M  V30 COUNTS 59 64 0 0 0
M  V30 BEGIN ATOM
M  V30 1 O 2.971400 0.448009 5.485372 0
M  V30 2 C 2.595725 -0.638226 4.927789 0
M  V30 3 C 2.505688 -1.411137 6.174412 0
M  V30 4 C 2.861203 -2.850877 6.239727 0
M  V30 5 C 1.437165 -2.493052 6.314599 0
M  V30 6 N 2.384073 -0.858328 3.558980 0
M  V30 7 C 1.958315 -2.040790 2.824094 0
M  V30 8 C 0.609139 -1.843844 2.151589 0
M  V30 9 C 0.440799 -0.350143 1.940971 0
M  V30 10 C 1.787776 0.160493 1.475996 0 CFG=1
M  V30 11 N 1.640129 1.426203 0.780866 0
M  V30 12 C 0.868396 1.561350 -0.400311 0
M  V30 13 N 0.770780 2.768647 -0.994666 0
M  V30 14 C 0.039738 2.896108 -2.116175 0
M  V30 15 C -0.636961 1.858266 -2.722517 0
M  V30 16 C -0.526830 0.630375 -2.102127 0
M  V30 17 N -1.195912 -0.492786 -2.665618 0
M  V30 18 C -2.253291 -1.250340 -2.266604 0
M  V30 19 C -2.913048 -0.930052 -1.012387 0
M  V30 20 C -3.390804 0.315137 -0.695027 0
M  V30 21 C -4.002483 0.501829 0.531940 0
M  V30 22 C -4.134048 -0.542544 1.428185 0
M  V30 23 Cl -4.910182 -0.287081 2.973919 0
M  V30 24 C -3.658653 -1.797908 1.121912 0
M  V30 25 Cl -3.843954 -3.096835 2.283881 0
M  V30 26 C -3.043863 -1.977379 -0.116063 0
M  V30 27 N -2.464876 -2.207447 -3.208074 0
M  V30 28 C -1.540610 -2.043372 -4.188422 0
M  V30 29 C -1.376111 -2.788617 -5.345125 0
M  V30 30 C -0.356480 -2.413497 -6.180712 0
M  V30 31 C 0.481336 -1.350867 -5.910591 0
M  V30 32 C 0.260584 -0.657952 -4.747926 0
M  V30 33 C -0.748596 -0.968044 -3.843298 0
M  V30 34 N 0.219353 0.569655 -0.983322 0
M  V30 35 C 2.633171 0.292484 2.712469 0
M  V30 36 H 2.757783 -0.848459 7.103863 0
M  V30 37 H 3.338632 -3.284029 5.344961 0
M  V30 38 H 3.353719 -3.247470 7.174560 0
M  V30 39 H 0.955175 -2.576331 7.322526 0
M  V30 40 H 0.736111 -2.650856 5.470813 0
M  V30 41 H 2.721144 -2.191702 2.017698 0
M  V30 42 H 1.951334 -2.960800 3.424582 0
M  V30 43 H 0.628770 -2.293712 1.122833 0
M  V30 44 H -0.228166 -2.290334 2.706294 0
M  V30 45 H -0.330523 -0.188188 1.194982 0
M  V30 46 H 0.176315 0.167260 2.886993 0
M  V30 47 H 2.298725 -0.597821 0.821075 0
M  V30 48 H 2.127267 2.241325 1.185760 0
M  V30 49 H 0.017966 3.916025 -2.529149 0
M  V30 50 H -1.205265 2.038953 -3.624864 0
M  V30 51 H -3.236100 1.054078 -1.463859 0
M  V30 52 H -4.357709 1.488088 0.732708 0
M  V30 53 H -2.694926 -2.980861 -0.293059 0
M  V30 54 H -2.019774 -3.631140 -5.585987 0
M  V30 55 H -0.175813 -2.967539 -7.115442 0
M  V30 56 H 1.297997 -1.021954 -6.543699 0
M  V30 57 H 0.904875 0.186077 -4.506239 0
M  V30 58 H 2.458465 1.233774 3.252038 0
M  V30 59 H 3.724800 0.253241 2.482423 0
M  V30 END ATOM
M  V30 BEGIN BOND
M  V30 1 2 1 2
M  V30 2 1 2 3
M  V30 3 1 3 4
M  V30 4 1 4 5
M  V30 5 1 2 6
M  V30 6 1 6 7
M  V30 7 1 7 8
M  V30 8 1 8 9
M  V30 9 1 9 10
M  V30 10 1 10 11
M  V30 11 1 11 12
M  V30 12 2 12 13
M  V30 13 1 13 14
M  V30 14 2 14 15
M  V30 15 1 15 16
M  V30 16 1 16 17
M  V30 17 1 17 18
M  V30 18 1 18 19
M  V30 19 2 19 20
M  V30 20 1 20 21
M  V30 21 2 21 22
M  V30 22 1 22 23
M  V30 23 1 22 24
M  V30 24 1 24 25
M  V30 25 2 24 26
M  V30 26 2 18 27
M  V30 27 1 27 28
M  V30 28 2 28 29
M  V30 29 1 29 30
M  V30 30 2 30 31
M  V30 31 1 31 32
M  V30 32 2 32 33
M  V30 33 2 16 34
M  V30 34 1 10 35
M  V30 35 1 5 3
M  V30 36 1 35 6
M  V30 37 1 34 12
M  V30 38 1 33 17
M  V30 39 1 26 19
M  V30 40 1 33 28
M  V30 41 1 3 36
M  V30 42 1 4 37
M  V30 43 1 4 38
M  V30 44 1 5 39
M  V30 45 1 5 40
M  V30 46 1 7 41
M  V30 47 1 7 42
M  V30 48 1 8 43
M  V30 49 1 8 44
M  V30 50 1 9 45
M  V30 51 1 9 46
M  V30 52 1 10 47 CFG=3
M  V30 53 1 11 48
M  V30 54 1 14 49
M  V30 55 1 15 50
M  V30 56 1 20 51
M  V30 57 1 21 52
M  V30 58 1 26 53
M  V30 59 1 29 54
M  V30 60 1 30 55
M  V30 61 1 31 56
M  V30 62 1 32 57
M  V30 63 1 35 58
M  V30 64 1 35 59
M  V30 END BOND
M  V30 END CTAB
M  END
>  <Dataset>  (58) 
ChEMBL_Kinases

>  <Ligand_Instance>  (58) 
nan

>  <PDB_ID>  (58) 
nan

>  <Standardized_SMILES>  (58) 
O=C(C1CC1)N1CCC[C@@H](Nc2nccc(-n3c(-c4ccc(Cl)c(Cl)c4)nc4ccccc43)n2)C1

>  <Name>  (58) 
nan

>  <Pocket>  (58) 
nan

>  <ATP_Site>  (58) 
nan

>  <Peripheral>  (58) 
nan

>  <Num_H_Atoms_ProtBoundConf>  (58) 
nan

>  <Num_Resolved_Atoms>  (58) 
nan

>  <Num_Not_Resolved_Atoms>  (58) 
nan

$$$$
CHEMBL2335069
     RDKit          3D

  0  0  0  0  0  0  0  0  0  0999 V3000
M  V30 BEGIN CTAB
M  V30 COUNTS 58 63 0 0 0
M  V30 BEGIN ATOM
M  V30 1 O 4.532541 -4.797570 3.691961 0
M  V30 2 C 3.538323 -3.885139 3.367869 0
M  V30 3 C 2.268693 -4.423240 3.202109 0
M  V30 4 C 1.231184 -3.599368 2.882598 0
M  V30 5 C 1.378322 -2.234010 2.712012 0
M  V30 6 C 2.634203 -1.721334 2.878830 0
M  V30 7 C 3.729387 -2.523178 3.206223 0
M  V30 8 N 2.535723 -0.407133 2.668468 0
M  V30 9 C 1.264318 -0.080722 2.376447 0
M  V30 10 C 0.711798 1.236440 2.078355 0
M  V30 11 C -0.393885 1.853586 2.627527 0
M  V30 12 C -0.750651 3.116691 2.200882 0
M  V30 13 C -0.030028 3.799208 1.227331 0
M  V30 14 C -0.487715 5.057634 0.885436 0
M  V30 15 C 0.243070 5.738072 -0.095199 0
M  V30 16 C 1.356528 5.164084 -0.675186 0
M  V30 17 C 1.769707 3.889659 -0.288008 0
M  V30 18 C 1.074684 3.176886 0.681886 0
M  V30 19 C 1.445757 1.913869 1.096844 0
M  V30 20 N 0.546548 -1.202540 2.401830 0
M  V30 21 C -0.837252 -1.445001 2.171047 0
M  V30 22 C -1.809013 -1.476506 3.172715 0
M  V30 23 C -3.136304 -1.716951 2.885167 0
M  V30 24 N -3.496384 -1.925955 1.601321 0
M  V30 25 C -2.574703 -1.901772 0.603470 0
M  V30 26 N -2.955317 -2.122660 -0.753239 0
M  V30 27 C -2.036018 -2.112639 -1.866779 0
M  V30 28 C -2.704136 -2.372889 -3.179060 0
M  V30 29 C -1.712236 -2.032939 -4.269571 0
M  V30 30 C -0.418036 -2.779242 -4.144123 0
M  V30 31 C 0.134365 -2.772235 -2.743420 0
M  V30 32 C -0.929943 -3.147194 -1.721240 0
M  V30 33 N -1.296839 -1.663840 0.934334 0
M  V30 34 H 4.520516 -5.177051 4.620829 0
M  V30 35 H 2.066079 -5.462909 3.314589 0
M  V30 36 H 0.242171 -4.004568 2.751437 0
M  V30 37 H 4.734705 -2.141089 3.343871 0
M  V30 38 H -0.892144 1.268018 3.365174 0
M  V30 39 H -1.613244 3.566442 2.647311 0
M  V30 40 H -1.365143 5.475216 1.362195 0
M  V30 41 H -0.101846 6.724019 -0.374191 0
M  V30 42 H 1.932885 5.690880 -1.442993 0
M  V30 43 H 2.644447 3.427493 -0.737270 0
M  V30 44 H 2.329208 1.538341 0.591327 0
M  V30 45 H -1.448057 -1.298566 4.194878 0
M  V30 46 H -3.856894 -1.732670 3.692030 0
M  V30 47 H -3.965710 -2.304290 -0.960272 0
M  V30 48 H -1.529671 -1.123500 -1.919982 0
M  V30 49 H -3.604765 -1.749638 -3.368498 0
M  V30 50 H -2.936712 -3.467476 -3.286858 0
M  V30 51 H -1.592884 -0.919937 -4.297934 0
M  V30 52 H -2.159723 -2.354335 -5.255412 0
M  V30 53 H 0.334870 -2.230475 -4.764537 0
M  V30 54 H -0.542089 -3.793151 -4.531054 0
M  V30 55 H 0.971056 -3.511731 -2.722969 0
M  V30 56 H 0.473995 -1.747299 -2.481898 0
M  V30 57 H -1.282128 -4.180682 -1.936972 0
M  V30 58 H -0.441006 -3.130967 -0.734372 0
M  V30 END ATOM
M  V30 BEGIN BOND
M  V30 1 1 1 2
M  V30 2 2 2 3
M  V30 3 1 3 4
M  V30 4 2 4 5
M  V30 5 1 5 6
M  V30 6 2 6 7
M  V30 7 1 6 8
M  V30 8 2 8 9
M  V30 9 1 9 10
M  V30 10 2 10 11
M  V30 11 1 11 12
M  V30 12 2 12 13
M  V30 13 1 13 14
M  V30 14 2 14 15
M  V30 15 1 15 16
M  V30 16 2 16 17
M  V30 17 1 17 18
M  V30 18 2 18 19
M  V30 19 1 9 20
M  V30 20 1 20 21
M  V30 21 2 21 22
M  V30 22 1 22 23
M  V30 23 2 23 24
M  V30 24 1 24 25
M  V30 25 1 25 26
M  V30 26 1 26 27
M  V30 27 1 27 28
M  V30 28 1 28 29
M  V30 29 1 29 30
M  V30 30 1 30 31
M  V30 31 1 31 32
M  V30 32 2 25 33
M  V30 33 1 7 2
M  V30 34 1 19 10
M  V30 35 1 33 21
M  V30 36 1 20 5
M  V30 37 1 32 27
M  V30 38 1 18 13
M  V30 39 1 1 34
M  V30 40 1 3 35
M  V30 41 1 4 36
M  V30 42 1 7 37
M  V30 43 1 11 38
M  V30 44 1 12 39
M  V30 45 1 14 40
M  V30 46 1 15 41
M  V30 47 1 16 42
M  V30 48 1 17 43
M  V30 49 1 19 44
M  V30 50 1 22 45
M  V30 51 1 23 46
M  V30 52 1 26 47
M  V30 53 1 27 48
M  V30 54 1 28 49
M  V30 55 1 28 50
M  V30 56 1 29 51
M  V30 57 1 29 52
M  V30 58 1 30 53
M  V30 59 1 30 54
M  V30 60 1 31 55
M  V30 61 1 31 56
M  V30 62 1 32 57
M  V30 63 1 32 58
M  V30 END BOND
M  V30 END CTAB
M  END
>  <Dataset>  (59) 
ChEMBL_Kinases

>  <Ligand_Instance>  (59) 
nan

>  <PDB_ID>  (59) 
nan

>  <Standardized_SMILES>  (59) 
Oc1ccc2c(c1)nc(-c1ccc3ccccc3c1)n2-c1ccnc(NC2CCCCC2)n1

>  <Name>  (59) 
nan

>  <Pocket>  (59) 
nan

>  <ATP_Site>  (59) 
nan

>  <Peripheral>  (59) 
nan

>  <Num_H_Atoms_ProtBoundConf>  (59) 
nan

>  <Num_Resolved_Atoms>  (59) 
nan

>  <Num_Not_Resolved_Atoms>  (59) 
nan

$$$$
CHEMBL2335185
     RDKit          3D

  0  0  0  0  0  0  0  0  0  0999 V3000
M  V30 BEGIN CTAB
M  V30 COUNTS 36 37 0 0 0
M  V30 BEGIN ATOM
M  V30 1 O 0.063166 -1.396116 1.116880 0
M  V30 2 C -0.942570 -0.702223 0.848551 0
M  V30 3 N -1.941939 -1.127332 1.742451 0
M  V30 4 O -1.576549 -2.106926 2.597303 0
M  V30 5 C -1.801688 -3.376598 2.117765 0
M  V30 6 C -1.356820 -4.412357 3.153465 0
M  V30 7 O -1.616226 -5.672268 2.595910 0
M  V30 8 C -1.219675 0.344133 -0.115723 0
M  V30 9 C -2.464064 0.914222 -0.174941 0
M  V30 10 C -2.680397 1.898899 -1.114553 0
M  V30 11 C -1.663291 2.308889 -1.985787 0
M  V30 12 F -2.027198 3.294077 -2.862222 0
M  V30 13 C -0.407005 1.704785 -1.896143 0
M  V30 14 F 0.408832 2.243637 -2.833390 0
M  V30 15 C -0.187236 0.707775 -0.944107 0
M  V30 16 N 1.133356 0.215741 -1.007722 0
M  V30 17 C 2.382856 0.399956 -0.359776 0
M  V30 18 C 3.054138 -0.634696 0.256154 0
M  V30 19 C 4.250837 -0.518637 0.906786 0
M  V30 20 C 4.823894 0.711966 0.949922 0
M  V30 21 Cl 6.362259 0.897286 1.779061 0
M  V30 22 C 4.243537 1.811092 0.370397 0
M  V30 23 C 3.040413 1.607619 -0.263691 0
M  V30 24 F 2.504774 2.721400 -0.815442 0
M  V30 25 H -2.931014 -0.758515 1.805309 0
M  V30 26 H -2.923584 -3.483363 2.054852 0
M  V30 27 H -1.364021 -3.609689 1.147463 0
M  V30 28 H -1.928531 -4.297716 4.089905 0
M  V30 29 H -0.263056 -4.355339 3.324992 0
M  V30 30 H -1.210745 -5.741810 1.705465 0
M  V30 31 H -3.283436 0.659177 0.447522 0
M  V30 32 H -3.677557 2.364885 -1.170880 0
M  V30 33 H 1.296925 -0.497034 -1.725981 0
M  V30 34 H 2.638829 -1.655512 0.250184 0
M  V30 35 H 4.747171 -1.361903 1.380276 0
M  V30 36 H 4.729279 2.775625 0.424730 0
M  V30 END ATOM
M  V30 BEGIN BOND
M  V30 1 2 1 2
M  V30 2 1 2 3
M  V30 3 1 3 4
M  V30 4 1 4 5
M  V30 5 1 5 6
M  V30 6 1 6 7
M  V30 7 1 2 8
M  V30 8 2 8 9
M  V30 9 1 9 10
M  V30 10 2 10 11
M  V30 11 1 11 12
M  V30 12 1 11 13
M  V30 13 1 13 14
M  V30 14 2 13 15
M  V30 15 1 15 16
M  V30 16 1 16 17
M  V30 17 2 17 18
M  V30 18 1 18 19
M  V30 19 2 19 20
M  V30 20 1 20 21
M  V30 21 1 20 22
M  V30 22 2 22 23
M  V30 23 1 23 24
M  V30 24 1 15 8
M  V30 25 1 23 17
M  V30 26 1 3 25
M  V30 27 1 5 26
M  V30 28 1 5 27
M  V30 29 1 6 28
M  V30 30 1 6 29
M  V30 31 1 7 30
M  V30 32 1 9 31
M  V30 33 1 10 32
M  V30 34 1 16 33
M  V30 35 1 18 34
M  V30 36 1 19 35
M  V30 37 1 22 36
M  V30 END BOND
M  V30 END CTAB
M  END
>  <Dataset>  (60) 
ChEMBL_Kinases

>  <Ligand_Instance>  (60) 
nan

>  <PDB_ID>  (60) 
nan

>  <Standardized_SMILES>  (60) 
O=C(NOCCO)c1ccc(F)c(F)c1Nc1ccc(Cl)cc1F

>  <Name>  (60) 
nan

>  <Pocket>  (60) 
nan

>  <ATP_Site>  (60) 
nan

>  <Peripheral>  (60) 
nan

>  <Num_H_Atoms_ProtBoundConf>  (60) 
nan

>  <Num_Resolved_Atoms>  (60) 
nan

>  <Num_Not_Resolved_Atoms>  (60) 
nan

$$$$
CHEMBL2335186
     RDKit          3D

  0  0  0  0  0  0  0  0  0  0999 V3000
M  V30 BEGIN CTAB
M  V30 COUNTS 36 37 0 0 0
M  V30 BEGIN ATOM
M  V30 1 O 1.665604 -0.375235 0.488614 0
M  V30 2 C 1.270620 0.438778 1.363374 0
M  V30 3 N 1.809873 0.243433 2.646946 0
M  V30 4 O 2.661327 -0.827191 2.611904 0
M  V30 5 C 1.974288 -2.012291 2.895026 0
M  V30 6 C 2.959279 -3.155006 2.841436 0
M  V30 7 O 2.322097 -4.382285 3.119916 0
M  V30 8 C 0.320136 1.474662 0.971684 0
M  V30 9 C -0.149981 2.396198 1.885132 0
M  V30 10 C -1.054570 3.349039 1.422729 0
M  V30 11 C -1.493831 3.407467 0.104184 0
M  V30 12 F -2.367105 4.353949 -0.270169 0
M  V30 13 C -0.986837 2.458895 -0.758436 0
M  V30 14 F -1.409667 2.504075 -2.057634 0
M  V30 15 C -0.075098 1.476892 -0.350921 0
M  V30 16 N 0.399112 0.533275 -1.310216 0
M  V30 17 C -0.326842 -0.677870 -1.481447 0
M  V30 18 C -1.449015 -0.863495 -0.704920 0
M  V30 19 C -2.215281 -2.019370 -0.809960 0
M  V30 20 C -1.761710 -2.948019 -1.743402 0
M  V30 21 Br -2.781045 -4.563447 -1.931159 0
M  V30 22 C -0.640050 -2.798851 -2.542029 0
M  V30 23 C 0.090673 -1.625561 -2.398013 0
M  V30 24 F 1.195860 -1.438684 -3.160254 0
M  V30 25 H 1.492329 0.917863 3.404309 0
M  V30 26 H 1.624115 -1.951009 3.959376 0
M  V30 27 H 1.121705 -2.180195 2.207339 0
M  V30 28 H 3.773192 -2.960331 3.556477 0
M  V30 29 H 3.391581 -3.266676 1.829375 0
M  V30 30 H 2.168516 -4.907331 2.304911 0
M  V30 31 H 0.164166 2.388376 2.920089 0
M  V30 32 H -1.457432 4.098344 2.096233 0
M  V30 33 H 1.261817 0.720774 -1.879663 0
M  V30 34 H -1.805436 -0.128424 0.031867 0
M  V30 35 H -3.101568 -2.216471 -0.227833 0
M  V30 36 H -0.377155 -3.591145 -3.239880 0
M  V30 END ATOM
M  V30 BEGIN BOND
M  V30 1 2 1 2
M  V30 2 1 2 3
M  V30 3 1 3 4
M  V30 4 1 4 5
M  V30 5 1 5 6
M  V30 6 1 6 7
M  V30 7 1 2 8
M  V30 8 2 8 9
M  V30 9 1 9 10
M  V30 10 2 10 11
M  V30 11 1 11 12
M  V30 12 1 11 13
M  V30 13 1 13 14
M  V30 14 2 13 15
M  V30 15 1 15 16
M  V30 16 1 16 17
M  V30 17 2 17 18
M  V30 18 1 18 19
M  V30 19 2 19 20
M  V30 20 1 20 21
M  V30 21 1 20 22
M  V30 22 2 22 23
M  V30 23 1 23 24
M  V30 24 1 15 8
M  V30 25 1 23 17
M  V30 26 1 3 25
M  V30 27 1 5 26
M  V30 28 1 5 27
M  V30 29 1 6 28
M  V30 30 1 6 29
M  V30 31 1 7 30
M  V30 32 1 9 31
M  V30 33 1 10 32
M  V30 34 1 16 33
M  V30 35 1 18 34
M  V30 36 1 19 35
M  V30 37 1 22 36
M  V30 END BOND
M  V30 END CTAB
M  END
>  <Dataset>  (61) 
ChEMBL_Kinases

>  <Ligand_Instance>  (61) 
nan

>  <PDB_ID>  (61) 
nan

>  <Standardized_SMILES>  (61) 
O=C(NOCCO)c1ccc(F)c(F)c1Nc1ccc(Br)cc1F

>  <Name>  (61) 
nan

>  <Pocket>  (61) 
nan

>  <ATP_Site>  (61) 
nan

>  <Peripheral>  (61) 
nan

>  <Num_H_Atoms_ProtBoundConf>  (61) 
nan

>  <Num_Resolved_Atoms>  (61) 
nan

>  <Num_Not_Resolved_Atoms>  (61) 
nan

$$$$
CHEMBL233529
     RDKit          3D

  0  0  0  0  0  0  0  0  0  0999 V3000
M  V30 BEGIN CTAB
M  V30 COUNTS 76 81 0 0 0
M  V30 BEGIN ATOM
M  V30 1 C 2.819780 -1.370214 5.091812 0
M  V30 2 C 3.032192 -0.741621 3.743789 0 CFG=2
M  V30 3 N 3.237039 -1.812964 2.778575 0
M  V30 4 C 3.456767 -1.417438 1.417991 0
M  V30 5 N 4.712513 -1.206531 1.015375 0
M  V30 6 C 4.942084 -0.837325 -0.247301 0
M  V30 7 C 3.931889 -0.660534 -1.168641 0
M  V30 8 C 2.633560 -0.878288 -0.753030 0
M  V30 9 C 1.351376 -0.785141 -1.439174 0
M  V30 10 C 0.934996 0.435564 -1.884717 0
M  V30 11 C 1.381585 1.812918 -1.914088 0
M  V30 12 C 2.474518 2.346270 -2.562634 0
M  V30 13 C 2.788929 3.687287 -2.506967 0
M  V30 14 C 1.982043 4.525492 -1.777167 0
M  V30 15 F 2.281187 5.842162 -1.716697 0
M  V30 16 C 0.869104 4.086071 -1.096099 0
M  V30 17 C 0.614477 2.725111 -1.196788 0
M  V30 18 N -0.280513 0.221151 -2.474055 0
M  V30 19 C -0.565182 -1.096692 -2.374221 0
M  V30 20 C -1.616802 -1.895828 -2.769740 0
M  V30 21 C -1.647553 -3.272770 -2.527723 0
M  V30 22 C -2.865998 -3.901067 -3.039760 0
M  V30 23 N -3.957619 -3.961594 -2.092321 0
M  V30 24 C -3.622444 -4.757898 -0.929059 0
M  V30 25 C -4.432940 -2.644395 -1.724470 0
M  V30 26 C -5.561504 -2.711240 -0.762159 0
M  V30 27 O -6.307206 -3.474470 -0.111489 0
M  V30 28 N -6.154153 -1.513055 -0.280951 0
M  V30 29 C -7.277680 -1.487634 0.669028 0
M  V30 30 C -6.838710 -0.479758 1.728337 0
M  V30 31 C -5.851910 0.426090 1.005467 0
M  V30 32 C -5.993389 -0.077962 -0.435054 0
M  V30 33 C -0.597845 -3.873594 -1.871019 0
M  V30 34 C 0.443951 -3.052879 -1.484469 0
M  V30 35 N 0.440966 -1.730992 -1.733575 0
M  V30 36 N 2.436687 -1.254427 0.543554 0
M  V30 37 C 4.221719 0.150972 3.732179 0
M  V30 38 C 4.016086 1.513652 3.726301 0
M  V30 39 C 5.119344 2.359464 3.715641 0
M  V30 40 C 6.392803 1.823014 3.710951 0
M  V30 41 C 6.574749 0.434859 3.716821 0
M  V30 42 C 5.482819 -0.405618 3.727571 0
M  V30 43 H 3.752293 -1.904375 5.347451 0
M  V30 44 H 2.554855 -0.593128 5.841605 0
M  V30 45 H 2.022971 -2.135556 4.996167 0
M  V30 46 H 2.110243 -0.175632 3.496933 0
M  V30 47 H 3.281318 -2.845742 2.737828 0
M  V30 48 H 5.932926 -0.645363 -0.657618 0
M  V30 49 H 3.957582 -0.373535 -2.201310 0
M  V30 50 H 3.066924 1.636801 -3.120770 0
M  V30 51 H 3.683030 4.011217 -3.060121 0
M  V30 52 H 0.236172 4.742967 -0.524363 0
M  V30 53 H -0.280703 2.402016 -0.642405 0
M  V30 54 H -2.411292 -1.332706 -3.287062 0
M  V30 55 H -3.239233 -3.451902 -3.973572 0
M  V30 56 H -2.624109 -4.978745 -3.266560 0
M  V30 57 H -4.591220 -5.077488 -0.484679 0
M  V30 58 H -2.924748 -4.294631 -0.234565 0
M  V30 59 H -3.157486 -5.705265 -1.318352 0
M  V30 60 H -3.583429 -2.087750 -1.301005 0
M  V30 61 H -4.757159 -2.127974 -2.647443 0
M  V30 62 H -7.395825 -2.464461 1.139184 0
M  V30 63 H -8.204237 -1.158701 0.163954 0
M  V30 64 H -7.716473 0.106299 2.055372 0
M  V30 65 H -6.407168 -0.987311 2.599513 0
M  V30 66 H -6.188969 1.479633 1.091246 0
M  V30 67 H -4.834330 0.327950 1.396273 0
M  V30 68 H -5.069972 0.205260 -0.956356 0
M  V30 69 H -6.901278 0.403404 -0.850190 0
M  V30 70 H -0.686217 -4.938880 -1.717538 0
M  V30 71 H 1.263022 -3.513947 -0.973297 0
M  V30 72 H 3.016466 1.977707 3.729965 0
M  V30 73 H 4.934185 3.445523 3.711233 0
M  V30 74 H 7.262474 2.474521 3.702756 0
M  V30 75 H 7.574006 0.003702 3.712837 0
M  V30 76 H 5.556271 -1.491882 3.732316 0
M  V30 END ATOM
M  V30 BEGIN BOND
M  V30 1 1 1 2
M  V30 2 1 2 3
M  V30 3 1 3 4
M  V30 4 2 4 5
M  V30 5 1 5 6
M  V30 6 2 6 7
M  V30 7 1 7 8
M  V30 8 1 8 9
M  V30 9 2 9 10
M  V30 10 1 10 11
M  V30 11 2 11 12
M  V30 12 1 12 13
M  V30 13 2 13 14
M  V30 14 1 14 15
M  V30 15 1 14 16
M  V30 16 2 16 17
M  V30 17 1 10 18
M  V30 18 2 18 19
M  V30 19 1 19 20
M  V30 20 2 20 21
M  V30 21 1 21 22
M  V30 22 1 22 23
M  V30 23 1 23 24
M  V30 24 1 23 25
M  V30 25 1 25 26
M  V30 26 2 26 27
M  V30 27 1 26 28
M  V30 28 1 28 29
M  V30 29 1 29 30
M  V30 30 1 30 31
M  V30 31 1 31 32
M  V30 32 1 21 33
M  V30 33 2 33 34
M  V30 34 1 34 35
M  V30 35 2 8 36
M  V30 36 1 2 37
M  V30 37 2 37 38
M  V30 38 1 38 39
M  V30 39 2 39 40
M  V30 40 1 40 41
M  V30 41 2 41 42
M  V30 42 1 36 4
M  V30 43 1 42 37
M  V30 44 1 35 9
M  V30 45 1 17 11
M  V30 46 1 35 19
M  V30 47 1 32 28
M  V30 48 1 1 43
M  V30 49 1 1 44
M  V30 50 1 1 45
M  V30 51 1 2 46 CFG=3
M  V30 52 1 3 47
M  V30 53 1 6 48
M  V30 54 1 7 49
M  V30 55 1 12 50
M  V30 56 1 13 51
M  V30 57 1 16 52
M  V30 58 1 17 53
M  V30 59 1 20 54
M  V30 60 1 22 55
M  V30 61 1 22 56
M  V30 62 1 24 57
M  V30 63 1 24 58
M  V30 64 1 24 59
M  V30 65 1 25 60
M  V30 66 1 25 61
M  V30 67 1 29 62
M  V30 68 1 29 63
M  V30 69 1 30 64
M  V30 70 1 30 65
M  V30 71 1 31 66
M  V30 72 1 31 67
M  V30 73 1 32 68
M  V30 74 1 32 69
M  V30 75 1 33 70
M  V30 76 1 34 71
M  V30 77 1 38 72
M  V30 78 1 39 73
M  V30 79 1 40 74
M  V30 80 1 41 75
M  V30 81 1 42 76
M  V30 END BOND
M  V30 END CTAB
M  END
>  <Dataset>  (62) 
ChEMBL_Kinases

>  <Ligand_Instance>  (62) 
nan

>  <PDB_ID>  (62) 
nan

>  <Standardized_SMILES>  (62) 
C[C@H](Nc1nccc(-c2c(-c3ccc(F)cc3)nc3cc(CN(C)CC(=O)N4CCCC4)ccn23)n1)c1ccccc1

>  <Name>  (62) 
nan

>  <Pocket>  (62) 
nan

>  <ATP_Site>  (62) 
nan

>  <Peripheral>  (62) 
nan

>  <Num_H_Atoms_ProtBoundConf>  (62) 
nan

>  <Num_Resolved_Atoms>  (62) 
nan

>  <Num_Not_Resolved_Atoms>  (62) 
nan

$$$$
CHEMBL2335864
     RDKit          3D

  0  0  0  0  0  0  0  0  0  0999 V3000
M  V30 BEGIN CTAB
M  V30 COUNTS 51 54 0 0 0
M  V30 BEGIN ATOM
M  V30 1 C 1.610429 -1.662546 6.775551 0
M  V30 2 O 2.695433 -1.772992 5.929374 0
M  V30 3 C 3.713181 -0.871047 6.192423 0
M  V30 4 C 4.821515 -1.118724 5.157468 0
M  V30 5 N 4.271338 -0.915645 3.843893 0
M  V30 6 C 4.911374 -1.024150 2.570716 0
M  V30 7 O 6.130082 -1.340834 2.668955 0
M  V30 8 C 4.218378 -0.792717 1.315280 0
M  V30 9 C 2.880776 -0.498450 1.157327 0
M  V30 10 C 2.296667 -0.299450 -0.062649 0
M  V30 11 C 3.023430 -0.383780 -1.226951 0
M  V30 12 N 2.354676 -0.175864 -2.464610 0
M  V30 13 C 0.987512 0.202575 -2.424920 0
M  V30 14 N 0.351101 1.384081 -2.612597 0
M  V30 15 C -0.975799 1.503163 -2.503137 0
M  V30 16 C -1.793992 0.415563 -2.186605 0
M  V30 17 C -3.151891 0.572696 -2.078177 0
M  V30 18 C -3.910591 -0.528551 -1.760354 0
M  V30 19 C -5.357336 -0.469958 -1.621600 0
M  V30 20 C -6.088584 0.425536 -2.396225 0
M  V30 21 C -7.456172 0.453281 -2.237614 0
M  V30 22 N -8.176079 -0.322449 -1.382657 0
M  V30 23 C -7.463235 -1.201021 -0.621747 0
M  V30 24 C -6.110912 -1.247300 -0.760650 0
M  V30 25 C -3.326433 -1.756979 -1.555837 0
M  V30 26 C -1.961121 -1.845967 -1.680532 0
M  V30 27 C -1.127090 -0.800224 -1.993897 0
M  V30 28 N 0.194010 -0.834034 -2.122311 0
M  V30 29 C 4.366776 -0.677048 -1.091753 0
M  V30 30 C 4.978988 -0.882557 0.147257 0
M  V30 31 H 1.885247 -1.839435 7.832911 0
M  V30 32 H 0.806558 -2.328598 6.404220 0
M  V30 33 H 1.230614 -0.603163 6.674662 0
M  V30 34 H 3.358817 0.163781 6.115462 0
M  V30 35 H 4.092634 -1.074905 7.210092 0
M  V30 36 H 5.135094 -2.178571 5.330204 0
M  V30 37 H 5.671950 -0.467894 5.406148 0
M  V30 38 H 3.253626 -0.644829 3.768041 0
M  V30 39 H 2.274708 -0.429061 2.045302 0
M  V30 40 H 1.236449 -0.073932 -0.085398 0
M  V30 41 H 2.876597 -0.304070 -3.379539 0
M  V30 42 H -1.379876 2.489926 -2.673527 0
M  V30 43 H -3.609239 1.520826 -2.234884 0
M  V30 44 H -5.587818 1.072935 -3.094956 0
M  V30 45 H -8.033471 1.142341 -2.835337 0
M  V30 46 H -7.974996 -1.839074 0.074121 0
M  V30 47 H -5.547594 -1.946022 -0.156909 0
M  V30 48 H -3.886803 -2.652574 -1.300465 0
M  V30 49 H -1.477358 -2.810082 -1.521806 0
M  V30 50 H 4.964576 -0.745571 -2.009183 0
M  V30 51 H 6.051556 -1.113342 0.182084 0
M  V30 END ATOM
M  V30 BEGIN BOND
M  V30 1 1 1 2
M  V30 2 1 2 3
M  V30 3 1 3 4
M  V30 4 1 4 5
M  V30 5 1 5 6
M  V30 6 2 6 7
M  V30 7 1 6 8
M  V30 8 2 8 9
M  V30 9 1 9 10
M  V30 10 2 10 11
M  V30 11 1 11 12
M  V30 12 1 12 13
M  V30 13 2 13 14
M  V30 14 1 14 15
M  V30 15 2 15 16
M  V30 16 1 16 17
M  V30 17 2 17 18
M  V30 18 1 18 19
M  V30 19 2 19 20
M  V30 20 1 20 21
M  V30 21 2 21 22
M  V30 22 1 22 23
M  V30 23 2 23 24
M  V30 24 1 18 25
M  V30 25 2 25 26
M  V30 26 1 26 27
M  V30 27 2 27 28
M  V30 28 1 11 29
M  V30 29 2 29 30
M  V30 30 1 30 8
M  V30 31 1 28 13
M  V30 32 1 27 16
M  V30 33 1 24 19
M  V30 34 1 1 31
M  V30 35 1 1 32
M  V30 36 1 1 33
M  V30 37 1 3 34
M  V30 38 1 3 35
M  V30 39 1 4 36
M  V30 40 1 4 37
M  V30 41 1 5 38
M  V30 42 1 9 39
M  V30 43 1 10 40
M  V30 44 1 12 41
M  V30 45 1 15 42
M  V30 46 1 17 43
M  V30 47 1 20 44
M  V30 48 1 21 45
M  V30 49 1 23 46
M  V30 50 1 24 47
M  V30 51 1 25 48
M  V30 52 1 26 49
M  V30 53 1 29 50
M  V30 54 1 30 51
M  V30 END BOND
M  V30 END CTAB
M  END
>  <Dataset>  (63) 
ChEMBL_Kinases

>  <Ligand_Instance>  (63) 
nan

>  <PDB_ID>  (63) 
nan

>  <Standardized_SMILES>  (63) 
COCCNC(=O)c1ccc(Nc2ncc3cc(-c4ccncc4)ccc3n2)cc1

>  <Name>  (63) 
nan

>  <Pocket>  (63) 
nan

>  <ATP_Site>  (63) 
nan

>  <Peripheral>  (63) 
nan

>  <Num_H_Atoms_ProtBoundConf>  (63) 
nan

>  <Num_Resolved_Atoms>  (63) 
nan

>  <Num_Not_Resolved_Atoms>  (63) 
nan

$$$$
CHEMBL233640
     RDKit          3D

  0  0  0  0  0  0  0  0  0  0999 V3000
M  V30 BEGIN CTAB
M  V30 COUNTS 72 77 0 0 0
M  V30 BEGIN ATOM
M  V30 1 C 5.961022 0.568545 2.391680 0
M  V30 2 O 4.931810 1.228895 1.699785 0
M  V30 3 C 3.734371 0.439854 1.523864 0
M  V30 4 C 3.520309 -0.793181 1.935644 0
M  V30 5 C 2.274819 -1.239475 1.601444 0
M  V30 6 C 1.375853 -0.425970 0.898403 0
M  V30 7 C 1.910074 0.882053 0.589576 0
M  V30 8 C 3.246114 1.524383 0.882109 0
M  V30 9 C 2.742651 2.617197 0.231946 0
M  V30 10 O 3.984006 2.946266 0.385377 0
M  V30 11 N 1.893879 3.497640 -0.408563 0
M  V30 12 C 2.291701 4.756657 -0.944789 0 CFG=1
M  V30 13 C 1.789045 4.955780 -2.355734 0
M  V30 14 C 0.354010 5.430720 -2.302886 0
M  V30 15 C 0.268176 6.786227 -1.670651 0 CFG=2
M  V30 16 O -0.047009 7.787095 -2.586930 0
M  V30 17 C 1.530669 7.103195 -0.923853 0
M  V30 18 C 1.904231 5.933630 -0.057033 0
M  V30 19 C 0.118732 -1.258998 0.705351 0
M  V30 20 C -0.143730 -1.434189 -0.773425 0
M  V30 21 C -0.978848 -0.562829 1.441866 0
M  V30 22 C 0.494419 -2.504282 1.370332 0
M  V30 23 C -0.059183 -3.723030 1.627043 0
M  V30 24 C -1.340357 -4.314675 1.311745 0
M  V30 25 C -2.613424 -3.817061 1.464240 0
M  V30 26 C -3.719814 -4.551452 1.087363 0
M  V30 27 C -3.621688 -5.809514 0.543274 0
M  V30 28 C -4.766230 -6.610409 0.130315 0
M  V30 29 C -5.917781 -6.039409 -0.367336 0
M  V30 30 C -7.042761 -6.772926 -0.767087 0
M  V30 31 C -6.988794 -8.163500 -0.652272 0
M  V30 32 O -8.038434 -8.980599 -1.015909 0
M  V30 33 C -5.828040 -8.702287 -0.153293 0
M  V30 34 C -4.712274 -7.999550 0.244493 0
M  V30 35 C -2.377733 -6.375322 0.359792 0
M  V30 36 C -1.292227 -5.604966 0.751225 0
M  V30 37 N 0.878869 -4.445083 2.308196 0
M  V30 38 N 1.979278 -3.744826 2.487009 0
M  V30 39 C 1.756597 -2.557412 1.918003 0
M  V30 40 H 6.162807 -0.455454 1.955992 0
M  V30 41 H 6.898390 1.164478 2.395626 0
M  V30 42 H 5.617662 0.359244 3.432494 0
M  V30 43 H 4.352950 -1.206268 2.447853 0
M  V30 44 H 0.923719 1.161211 0.066203 0
M  V30 45 H 1.001795 2.983040 -0.355307 0
M  V30 46 H 3.400197 4.798003 -0.995973 0
M  V30 47 H 2.436663 5.704442 -2.841072 0
M  V30 48 H 1.890300 4.003903 -2.896869 0
M  V30 49 H 0.011592 5.492859 -3.376909 0
M  V30 50 H -0.269200 4.650206 -1.800323 0
M  V30 51 H -0.546426 6.753735 -0.903629 0
M  V30 52 H 0.584414 8.549654 -2.399276 0
M  V30 53 H 2.378349 7.349076 -1.610396 0
M  V30 54 H 1.393042 8.010266 -0.278605 0
M  V30 55 H 1.125021 5.651117 0.665994 0
M  V30 56 H 2.772067 6.276750 0.568630 0
M  V30 57 H 0.745419 -1.946003 -1.189908 0
M  V30 58 H -0.191608 -0.428438 -1.227313 0
M  V30 59 H -1.075797 -1.974360 -0.900144 0
M  V30 60 H -1.983109 -0.734423 1.024576 0
M  V30 61 H -0.991042 -0.973617 2.494668 0
M  V30 62 H -0.826028 0.533915 1.554514 0
M  V30 63 H -2.663132 -2.834703 1.899853 0
M  V30 64 H -4.701440 -4.110057 1.230496 0
M  V30 65 H -5.908743 -4.958311 -0.436921 0
M  V30 66 H -7.929594 -6.296594 -1.153175 0
M  V30 67 H -8.865987 -8.691921 -1.481509 0
M  V30 68 H -5.788814 -9.790264 -0.062576 0
M  V30 69 H -3.842153 -8.514731 0.626239 0
M  V30 70 H -2.220168 -7.355626 -0.059856 0
M  V30 71 H -0.315641 -6.074947 0.596208 0
M  V30 72 H 2.854459 -4.041510 2.970737 0
M  V30 END ATOM
M  V30 BEGIN BOND
M  V30 1 1 1 2
M  V30 2 1 2 3
M  V30 3 2 3 4
M  V30 4 1 4 5
M  V30 5 2 5 6
M  V30 6 1 6 7
M  V30 7 2 7 8
M  V30 8 1 8 9
M  V30 9 2 9 10
M  V30 10 1 9 11
M  V30 11 1 11 12
M  V30 12 1 12 13
M  V30 13 1 13 14
M  V30 14 1 14 15
M  V30 15 1 15 16
M  V30 16 1 15 17
M  V30 17 1 17 18
M  V30 18 1 6 19
M  V30 19 1 19 20
M  V30 20 1 19 21
M  V30 21 1 19 22
M  V30 22 1 22 23
M  V30 23 1 23 24
M  V30 24 2 24 25
M  V30 25 1 25 26
M  V30 26 2 26 27
M  V30 27 1 27 28
M  V30 28 2 28 29
M  V30 29 1 29 30
M  V30 30 2 30 31
M  V30 31 1 31 32
M  V30 32 1 31 33
M  V30 33 2 33 34
M  V30 34 1 27 35
M  V30 35 2 35 36
M  V30 36 2 23 37
M  V30 37 1 37 38
M  V30 38 1 38 39
M  V30 39 1 8 3
M  V30 40 1 18 12
M  V30 41 2 39 22
M  V30 42 1 39 5
M  V30 43 1 36 24
M  V30 44 1 34 28
M  V30 45 1 1 40
M  V30 46 1 1 41
M  V30 47 1 1 42
M  V30 48 1 4 43
M  V30 49 1 7 44
M  V30 50 1 11 45
M  V30 51 1 12 46 CFG=3
M  V30 52 1 13 47
M  V30 53 1 13 48
M  V30 54 1 14 49
M  V30 55 1 14 50
M  V30 56 1 15 51 CFG=1
M  V30 57 1 16 52
M  V30 58 1 17 53
M  V30 59 1 17 54
M  V30 60 1 18 55
M  V30 61 1 18 56
M  V30 62 1 20 57
M  V30 63 1 20 58
M  V30 64 1 20 59
M  V30 65 1 21 60
M  V30 66 1 21 61
M  V30 67 1 21 62
M  V30 68 1 25 63
M  V30 69 1 26 64
M  V30 70 1 29 65
M  V30 71 1 30 66
M  V30 72 1 32 67
M  V30 73 1 33 68
M  V30 74 1 34 69
M  V30 75 1 35 70
M  V30 76 1 36 71
M  V30 77 1 38 72
M  V30 END BOND
M  V30 END CTAB
M  END
>  <Dataset>  (64) 
ChEMBL_Kinases

>  <Ligand_Instance>  (64) 
nan

>  <PDB_ID>  (64) 
nan

>  <Standardized_SMILES>  (64) 
COc1cc2c(cc1C(=O)N[C@H]1CC[C@H](O)CC1)C(C)(C)c1c(-c3ccc(-c4ccc(O)cc4)cc3)n[nH]c1-2

>  <Name>  (64) 
nan

>  <Pocket>  (64) 
nan

>  <ATP_Site>  (64) 
nan

>  <Peripheral>  (64) 
nan

>  <Num_H_Atoms_ProtBoundConf>  (64) 
nan

>  <Num_Resolved_Atoms>  (64) 
nan

>  <Num_Not_Resolved_Atoms>  (64) 
nan

$$$$
CHEMBL233641
     RDKit          3D

  0  0  0  0  0  0  0  0  0  0999 V3000
M  V30 BEGIN CTAB
M  V30 COUNTS 61 66 0 0 0
M  V30 BEGIN ATOM
M  V30 1 C -0.092701 3.472626 4.862954 0
M  V30 2 O 0.518365 3.385768 3.600759 0
M  V30 3 C 0.355133 2.390962 2.686102 0
M  V30 4 C -0.492614 1.356440 3.015027 0
M  V30 5 C -0.686238 0.327954 2.116818 0
M  V30 6 C -0.008313 0.391934 0.915843 0
M  V30 7 C 0.833554 1.442350 0.617584 0
M  V30 8 C 1.042642 2.481565 1.499708 0
M  V30 9 C 1.948538 3.534261 1.077425 0
M  V30 10 O 2.509390 3.469009 -0.050072 0
M  V30 11 N 2.342017 4.703876 1.755252 0
M  V30 12 C 3.257116 5.675503 1.222185 0
M  V30 13 C 4.676701 5.265368 1.272503 0
M  V30 14 C 5.401121 5.600070 2.419610 0
M  V30 15 C 6.731121 5.288403 2.618442 0
M  V30 16 C 7.385839 4.593650 1.601542 0
M  V30 17 C 6.603515 4.292542 0.487282 0
M  V30 18 N 5.311113 4.598260 0.299960 0
M  V30 19 C -0.377698 -0.817679 0.129979 0
M  V30 20 C -1.327455 -1.548544 1.014860 0
M  V30 21 C -2.114738 -2.678915 1.105531 0
M  V30 22 C -2.309919 -3.759448 0.141440 0
M  V30 23 C -3.648766 -4.141083 -0.023355 0
M  V30 24 C -3.997883 -5.143521 -0.892820 0
M  V30 25 C -3.014175 -5.802227 -1.631345 0
M  V30 26 C -3.427295 -6.856511 -2.535287 0
M  V30 27 C -2.643150 -7.962719 -2.842582 0
M  V30 28 C -3.051944 -8.960578 -3.704283 0
M  V30 29 C -4.291835 -8.884006 -4.303884 0
M  V30 30 O -4.781050 -9.846092 -5.184421 0
M  V30 31 C -5.095399 -7.801332 -4.022091 0
M  V30 32 F -6.325177 -7.713053 -4.608342 0
M  V30 33 C -4.654063 -6.820091 -3.154213 0
M  V30 34 C -1.684264 -5.422692 -1.467332 0
M  V30 35 C -1.341110 -4.413339 -0.590785 0
M  V30 36 N -2.743496 -2.658150 2.317671 0
M  V30 37 N -2.376143 -1.563740 2.974458 0
M  V30 38 C -1.516006 -0.872251 2.204452 0
M  V30 39 H -1.127240 3.123960 4.914639 0
M  V30 40 H 0.003579 4.541764 5.205666 0
M  V30 41 H 0.487698 2.900638 5.643840 0
M  V30 42 H -1.009945 1.330581 3.961028 0
M  V30 43 H 1.329454 1.417977 -0.347531 0
M  V30 44 H 1.941737 4.868859 2.701414 0
M  V30 45 H 3.165106 6.630560 1.776595 0
M  V30 46 H 2.943024 5.911778 0.183140 0
M  V30 47 H 4.915622 6.142279 3.228710 0
M  V30 48 H 7.243343 5.571709 3.525450 0
M  V30 49 H 8.407603 4.317023 1.678161 0
M  V30 50 H 7.156445 3.747255 -0.285139 0
M  V30 51 H -0.872384 -0.502479 -0.818157 0
M  V30 52 H 0.521602 -1.457116 -0.100760 0
M  V30 53 H -4.455436 -3.669395 0.519353 0
M  V30 54 H -5.036629 -5.425639 -1.008642 0
M  V30 55 H -1.672940 -8.009689 -2.365396 0
M  V30 56 H -2.413652 -9.817462 -3.926454 0
M  V30 57 H -4.209279 -10.617301 -5.520989 0
M  V30 58 H -5.312322 -5.989097 -2.959818 0
M  V30 59 H -0.911781 -5.924338 -2.033206 0
M  V30 60 H -0.333357 -4.073290 -0.420340 0
M  V30 61 H -2.702796 -1.283764 3.937290 0
M  V30 END ATOM
M  V30 BEGIN BOND
M  V30 1 1 1 2
M  V30 2 1 2 3
M  V30 3 2 3 4
M  V30 4 1 4 5
M  V30 5 2 5 6
M  V30 6 1 6 7
M  V30 7 2 7 8
M  V30 8 1 8 9
M  V30 9 2 9 10
M  V30 10 1 9 11
M  V30 11 1 11 12
M  V30 12 1 12 13
M  V30 13 2 13 14
M  V30 14 1 14 15
M  V30 15 2 15 16
M  V30 16 1 16 17
M  V30 17 2 17 18
M  V30 18 1 6 19
M  V30 19 1 19 20
M  V30 20 1 20 21
M  V30 21 1 21 22
M  V30 22 2 22 23
M  V30 23 1 23 24
M  V30 24 2 24 25
M  V30 25 1 25 26
M  V30 26 2 26 27
M  V30 27 1 27 28
M  V30 28 2 28 29
M  V30 29 1 29 30
M  V30 30 1 29 31
M  V30 31 1 31 32
M  V30 32 2 31 33
M  V30 33 1 25 34
M  V30 34 2 34 35
M  V30 35 2 21 36
M  V30 36 1 36 37
M  V30 37 1 37 38
M  V30 38 1 8 3
M  V30 39 1 18 13
M  V30 40 2 38 20
M  V30 41 1 38 5
M  V30 42 1 35 22
M  V30 43 1 33 26
M  V30 44 1 1 39
M  V30 45 1 1 40
M  V30 46 1 1 41
M  V30 47 1 4 42
M  V30 48 1 7 43
M  V30 49 1 11 44
M  V30 50 1 12 45
M  V30 51 1 12 46
M  V30 52 1 14 47
M  V30 53 1 15 48
M  V30 54 1 16 49
M  V30 55 1 17 50
M  V30 56 1 19 51
M  V30 57 1 19 52
M  V30 58 1 23 53
M  V30 59 1 24 54
M  V30 60 1 27 55
M  V30 61 1 28 56
M  V30 62 1 30 57
M  V30 63 1 33 58
M  V30 64 1 34 59
M  V30 65 1 35 60
M  V30 66 1 37 61
M  V30 END BOND
M  V30 END CTAB
M  END
>  <Dataset>  (65) 
ChEMBL_Kinases

>  <Ligand_Instance>  (65) 
nan

>  <PDB_ID>  (65) 
nan

>  <Standardized_SMILES>  (65) 
COc1cc2c(cc1C(=O)NCc1ccccn1)Cc1c(-c3ccc(-c4ccc(O)c(F)c4)cc3)n[nH]c1-2

>  <Name>  (65) 
nan

>  <Pocket>  (65) 
nan

>  <ATP_Site>  (65) 
nan

>  <Peripheral>  (65) 
nan

>  <Num_H_Atoms_ProtBoundConf>  (65) 
nan

>  <Num_Resolved_Atoms>  (65) 
nan

>  <Num_Not_Resolved_Atoms>  (65) 
nan

$$$$
CHEMBL234059
     RDKit          3D

  0  0  0  0  0  0  0  0  0  0999 V3000
M  V30 BEGIN CTAB
M  V30 COUNTS 74 79 0 0 0
M  V30 BEGIN ATOM
M  V30 1 C 3.364665 -1.193231 3.969518 0
M  V30 2 C 3.153314 0.019406 3.086455 0 CFG=2
M  V30 3 N 1.763012 0.396026 3.229721 0
M  V30 4 C 1.141011 1.493158 2.565960 0
M  V30 5 N 1.035033 2.747936 3.052729 0
M  V30 6 C 0.430734 3.730971 2.359774 0
M  V30 7 C -0.103254 3.471789 1.115718 0
M  V30 8 C -0.006938 2.207941 0.603086 0
M  V30 9 C -0.511188 1.714178 -0.697038 0
M  V30 10 C -0.287493 2.040673 -2.040271 0
M  V30 11 C 0.656251 3.126136 -2.292639 0
M  V30 12 C 0.256624 4.316223 -2.906535 0
M  V30 13 C 1.179065 5.326730 -3.132580 0
M  V30 14 C 2.513861 5.167121 -2.749464 0
M  V30 15 F 3.416484 6.172665 -2.978356 0
M  V30 16 C 2.950570 3.999089 -2.135942 0
M  V30 17 C 1.999287 3.002857 -1.923573 0
M  V30 18 N -1.045075 1.217992 -2.772168 0
M  V30 19 C -1.740424 0.382737 -1.953258 0
M  V30 20 C -2.620580 -0.602966 -2.348352 0
M  V30 21 C -3.223045 -1.347463 -1.347571 0
M  V30 22 C -4.186502 -2.447247 -1.538109 0
M  V30 23 N -3.554094 -3.738017 -1.655190 0
M  V30 24 C -2.655894 -3.786804 -2.798311 0
M  V30 25 C -2.931729 -4.219345 -0.459339 0
M  V30 26 C -3.880027 -4.566243 0.624016 0
M  V30 27 N -3.337739 -5.051306 1.840858 0
M  V30 28 C -2.582068 -4.250450 2.710707 0
M  V30 29 C -1.677516 -5.441728 2.956652 0
M  V30 30 C -2.422184 -6.138572 1.821467 0
M  V30 31 C -2.906598 -1.057425 -0.024204 0
M  V30 32 C -2.011090 -0.049112 0.269298 0
M  V30 33 N -1.412404 0.687835 -0.685999 0
M  V30 34 N 0.615858 1.259269 1.352856 0
M  V30 35 C 3.458621 -0.368812 1.670413 0
M  V30 36 C 2.456636 -1.206306 1.180813 0
M  V30 37 C 2.519821 -1.698840 -0.120392 0
M  V30 38 C 3.597720 -1.333591 -0.902643 0
M  V30 39 C 4.584633 -0.505927 -0.412801 0
M  V30 40 C 4.524726 -0.016708 0.873127 0
M  V30 41 H 2.728476 -2.041250 3.588460 0
M  V30 42 H 2.945347 -0.940024 4.959736 0
M  V30 43 H 4.423560 -1.509599 3.996130 0
M  V30 44 H 3.812693 0.836342 3.426140 0
M  V30 45 H 0.998764 -0.035241 3.808314 0
M  V30 46 H 0.351792 4.734189 2.752424 0
M  V30 47 H -0.604613 4.178256 0.483156 0
M  V30 48 H -0.785267 4.457981 -3.212580 0
M  V30 49 H 0.904559 6.280748 -3.613165 0
M  V30 50 H 3.978639 3.839702 -1.826408 0
M  V30 51 H 2.331997 2.086726 -1.444455 0
M  V30 52 H -2.879793 -0.843214 -3.348741 0
M  V30 53 H -4.902011 -2.492938 -0.694233 0
M  V30 54 H -4.733936 -2.244493 -2.480970 0
M  V30 55 H -1.865818 -3.024407 -2.770389 0
M  V30 56 H -3.233517 -3.628779 -3.731553 0
M  V30 57 H -2.151976 -4.775205 -2.804500 0
M  V30 58 H -2.156659 -3.483036 -0.185343 0
M  V30 59 H -2.391405 -5.157182 -0.747682 0
M  V30 60 H -4.558562 -5.356843 0.227692 0
M  V30 61 H -4.584159 -3.731977 0.886144 0
M  V30 62 H -1.987960 -3.422083 2.342996 0
M  V30 63 H -3.162566 -3.915816 3.610765 0
M  V30 64 H -0.620209 -5.316986 2.735092 0
M  V30 65 H -1.904047 -5.867713 3.962118 0
M  V30 66 H -1.861321 -6.232954 0.894074 0
M  V30 67 H -2.922219 -7.053746 2.214024 0
M  V30 68 H -3.346637 -1.606272 0.807448 0
M  V30 69 H -1.786632 0.148172 1.309137 0
M  V30 70 H 1.570561 -1.553655 1.704817 0
M  V30 71 H 1.767362 -2.352831 -0.555859 0
M  V30 72 H 3.670166 -1.703349 -1.919460 0
M  V30 73 H 5.451320 -0.186316 -0.979785 0
M  V30 74 H 5.218199 0.637947 1.389486 0
M  V30 END ATOM
M  V30 BEGIN BOND
M  V30 1 1 1 2
M  V30 2 1 2 3
M  V30 3 1 3 4
M  V30 4 2 4 5
M  V30 5 1 5 6
M  V30 6 2 6 7
M  V30 7 1 7 8
M  V30 8 1 8 9
M  V30 9 2 9 10
M  V30 10 1 10 11
M  V30 11 2 11 12
M  V30 12 1 12 13
M  V30 13 2 13 14
M  V30 14 1 14 15
M  V30 15 1 14 16
M  V30 16 2 16 17
M  V30 17 1 10 18
M  V30 18 2 18 19
M  V30 19 1 19 20
M  V30 20 2 20 21
M  V30 21 1 21 22
M  V30 22 1 22 23
M  V30 23 1 23 24
M  V30 24 1 23 25
M  V30 25 1 25 26
M  V30 26 1 26 27
M  V30 27 1 27 28
M  V30 28 1 28 29
M  V30 29 1 29 30
M  V30 30 1 21 31
M  V30 31 2 31 32
M  V30 32 1 32 33
M  V30 33 2 8 34
M  V30 34 1 2 35
M  V30 35 2 35 36
M  V30 36 1 36 37
M  V30 37 2 37 38
M  V30 38 1 38 39
M  V30 39 2 39 40
M  V30 40 1 34 4
M  V30 41 1 40 35
M  V30 42 1 33 9
M  V30 43 1 17 11
M  V30 44 1 33 19
M  V30 45 1 30 27
M  V30 46 1 1 41
M  V30 47 1 1 42
M  V30 48 1 1 43
M  V30 49 1 2 44 CFG=1
M  V30 50 1 3 45
M  V30 51 1 6 46
M  V30 52 1 7 47
M  V30 53 1 12 48
M  V30 54 1 13 49
M  V30 55 1 16 50
M  V30 56 1 17 51
M  V30 57 1 20 52
M  V30 58 1 22 53
M  V30 59 1 22 54
M  V30 60 1 24 55
M  V30 61 1 24 56
M  V30 62 1 24 57
M  V30 63 1 25 58
M  V30 64 1 25 59
M  V30 65 1 26 60
M  V30 66 1 26 61
M  V30 67 1 28 62
M  V30 68 1 28 63
M  V30 69 1 29 64
M  V30 70 1 29 65
M  V30 71 1 30 66
M  V30 72 1 30 67
M  V30 73 1 31 68
M  V30 74 1 32 69
M  V30 75 1 36 70
M  V30 76 1 37 71
M  V30 77 1 38 72
M  V30 78 1 39 73
M  V30 79 1 40 74
M  V30 END BOND
M  V30 END CTAB
M  END
>  <Dataset>  (66) 
ChEMBL_Kinases

>  <Ligand_Instance>  (66) 
nan

>  <PDB_ID>  (66) 
nan

>  <Standardized_SMILES>  (66) 
C[C@H](Nc1nccc(-c2c(-c3ccc(F)cc3)nc3cc(CN(C)CCN4CCC4)ccn23)n1)c1ccccc1

>  <Name>  (66) 
nan

>  <Pocket>  (66) 
nan

>  <ATP_Site>  (66) 
nan

>  <Peripheral>  (66) 
nan

>  <Num_H_Atoms_ProtBoundConf>  (66) 
nan

>  <Num_Resolved_Atoms>  (66) 
nan

>  <Num_Not_Resolved_Atoms>  (66) 
nan

$$$$
CHEMBL233668
     RDKit          3D

  0  0  0  0  0  0  0  0  0  0999 V3000
M  V30 BEGIN CTAB
M  V30 COUNTS 37 39 0 0 0
M  V30 BEGIN ATOM
M  V30 1 C 0.065281 -5.725491 4.454181 0
M  V30 2 O 1.049949 -5.349935 3.538291 0
M  V30 3 C 1.212049 -4.135419 2.935334 0
M  V30 4 C 2.295129 -4.089630 2.072200 0
M  V30 5 C 2.633802 -2.957968 1.363963 0
M  V30 6 C 1.855679 -1.821897 1.525441 0
M  V30 7 C 0.779652 -1.877923 2.387035 0
M  V30 8 N -0.019846 -0.711139 2.551432 0
M  V30 9 C 0.350165 0.444316 1.809967 0
M  V30 10 N 1.191121 1.428659 2.220453 0
M  V30 11 C 1.468559 2.482953 1.421519 0
M  V30 12 C 0.885107 2.555408 0.169316 0
M  V30 13 C 1.167631 3.669167 -0.693625 0
M  V30 14 N 1.410757 4.567724 -1.381482 0
M  V30 15 C 0.019695 1.552218 -0.265914 0
M  V30 16 C -0.621892 1.578192 -1.576669 0
M  V30 17 C -1.981361 1.269512 -1.642519 0
M  V30 18 C -2.703293 1.259188 -2.828432 0
M  V30 19 C -2.032286 1.571917 -3.997177 0
M  V30 20 C -0.689118 1.879730 -3.953323 0
M  V30 21 C 0.024670 1.889178 -2.775300 0
M  V30 22 N -0.203034 0.537871 0.590704 0
M  V30 23 C 0.435556 -3.009604 3.099582 0
M  V30 24 H -0.742324 -4.993938 4.452330 0
M  V30 25 H 0.470934 -5.793418 5.504567 0
M  V30 26 H -0.263527 -6.757151 4.198480 0
M  V30 27 H 2.959999 -4.920708 1.879355 0
M  V30 28 H 3.471015 -2.882404 0.681188 0
M  V30 29 H 2.104890 -0.924857 0.978922 0
M  V30 30 H -0.846242 -0.692704 3.187464 0
M  V30 31 H 2.144613 3.237483 1.798681 0
M  V30 32 H -2.498437 1.023451 -0.705011 0
M  V30 33 H -3.760437 1.012956 -2.833448 0
M  V30 34 H -2.568473 1.572979 -4.943784 0
M  V30 35 H -0.153437 2.125304 -4.855175 0
M  V30 36 H 1.077245 2.125146 -2.704743 0
M  V30 37 H -0.392145 -3.095587 3.779165 0
M  V30 END ATOM
M  V30 BEGIN BOND
M  V30 1 1 1 2
M  V30 2 1 2 3
M  V30 3 2 3 4
M  V30 4 1 4 5
M  V30 5 2 5 6
M  V30 6 1 6 7
M  V30 7 1 7 8
M  V30 8 1 8 9
M  V30 9 2 9 10
M  V30 10 1 10 11
M  V30 11 2 11 12
M  V30 12 1 12 13
M  V30 13 3 13 14
M  V30 14 1 12 15
M  V30 15 1 15 16
M  V30 16 2 16 17
M  V30 17 1 17 18
M  V30 18 2 18 19
M  V30 19 1 19 20
M  V30 20 2 20 21
M  V30 21 2 15 22
M  V30 22 2 7 23
M  V30 23 1 23 3
M  V30 24 1 22 9
M  V30 25 1 21 16
M  V30 26 1 1 24
M  V30 27 1 1 25
M  V30 28 1 1 26
M  V30 29 1 4 27
M  V30 30 1 5 28
M  V30 31 1 6 29
M  V30 32 1 8 30
M  V30 33 1 11 31
M  V30 34 1 17 32
M  V30 35 1 18 33
M  V30 36 1 19 34
M  V30 37 1 20 35
M  V30 38 1 21 36
M  V30 39 1 23 37
M  V30 END BOND
M  V30 END CTAB
M  END
>  <Dataset>  (67) 
ChEMBL_Kinases

>  <Ligand_Instance>  (67) 
nan

>  <PDB_ID>  (67) 
nan

>  <Standardized_SMILES>  (67) 
COc1cccc(Nc2ncc(C#N)c(-c3ccccc3)n2)c1

>  <Name>  (67) 
nan

>  <Pocket>  (67) 
nan

>  <ATP_Site>  (67) 
nan

>  <Peripheral>  (67) 
nan

>  <Num_H_Atoms_ProtBoundConf>  (67) 
nan

>  <Num_Resolved_Atoms>  (67) 
nan

>  <Num_Not_Resolved_Atoms>  (67) 
nan

$$$$
CHEMBL233669
     RDKit          3D

  0  0  0  0  0  0  0  0  0  0999 V3000
M  V30 BEGIN CTAB
M  V30 COUNTS 40 43 0 0 0
M  V30 BEGIN ATOM
M  V30 1 C -0.557761 -5.071430 3.947298 0
M  V30 2 C 0.088776 -3.741184 3.792626 0
M  V30 3 C -0.033328 -2.913638 2.686953 0
M  V30 4 C 0.716803 -1.780964 2.939575 0
M  V30 5 C 0.970422 -0.638742 2.226235 0
M  V30 6 C 1.759603 0.398609 2.654327 0
M  V30 7 N 2.047150 1.594796 1.949595 0
M  V30 8 C 1.585359 1.974008 0.661900 0
M  V30 9 N 1.954954 3.153501 0.132820 0
M  V30 10 C 1.551423 3.564931 -1.076609 0
M  V30 11 C 0.723122 2.790796 -1.856775 0
M  V30 12 C 0.278894 3.197076 -3.139084 0
M  V30 13 N -0.093254 3.538133 -4.180850 0
M  V30 14 C 0.333164 1.579436 -1.333383 0
M  V30 15 C -0.544779 0.658595 -2.054814 0
M  V30 16 C -1.588299 0.061712 -1.377045 0
M  V30 17 C -2.469345 -0.819984 -1.970241 0
M  V30 18 C -2.324453 -1.140964 -3.310341 0
M  V30 19 C -1.278389 -0.540816 -3.984179 0
M  V30 20 C -0.400981 0.338615 -3.389189 0
M  V30 21 N 0.792414 1.263886 -0.117542 0
M  V30 22 C 2.296196 0.191319 3.905492 0
M  V30 23 C 2.078554 -0.922611 4.658334 0
M  V30 24 C 1.282233 -1.921857 4.176408 0
M  V30 25 N 0.887744 -3.119514 4.676858 0
M  V30 26 H -1.654380 -5.023686 3.766216 0
M  V30 27 H -0.138149 -5.796714 3.220524 0
M  V30 28 H -0.440022 -5.438881 4.976803 0
M  V30 29 H -0.598099 -3.108847 1.804962 0
M  V30 30 H 0.503439 -0.580169 1.265539 0
M  V30 31 H 2.672602 2.277087 2.435759 0
M  V30 32 H 1.898560 4.538189 -1.432004 0
M  V30 33 H -1.731008 0.287715 -0.335227 0
M  V30 34 H -3.291736 -1.295021 -1.450401 0
M  V30 35 H -2.993057 -1.827526 -3.814393 0
M  V30 36 H -1.124892 -0.764958 -5.046299 0
M  V30 37 H 0.405953 0.793911 -3.932596 0
M  V30 38 H 2.949864 0.939922 4.376427 0
M  V30 39 H 2.513713 -1.056210 5.636693 0
M  V30 40 H 1.174471 -3.486964 5.615460 0
M  V30 END ATOM
M  V30 BEGIN BOND
M  V30 1 1 1 2
M  V30 2 2 2 3
M  V30 3 1 3 4
M  V30 4 2 4 5
M  V30 5 1 5 6
M  V30 6 1 6 7
M  V30 7 1 7 8
M  V30 8 2 8 9
M  V30 9 1 9 10
M  V30 10 2 10 11
M  V30 11 1 11 12
M  V30 12 3 12 13
M  V30 13 1 11 14
M  V30 14 1 14 15
M  V30 15 2 15 16
M  V30 16 1 16 17
M  V30 17 2 17 18
M  V30 18 1 18 19
M  V30 19 2 19 20
M  V30 20 2 14 21
M  V30 21 2 6 22
M  V30 22 1 22 23
M  V30 23 2 23 24
M  V30 24 1 24 25
M  V30 25 1 25 2
M  V30 26 1 24 4
M  V30 27 1 21 8
M  V30 28 1 20 15
M  V30 29 1 1 26
M  V30 30 1 1 27
M  V30 31 1 1 28
M  V30 32 1 3 29
M  V30 33 1 5 30
M  V30 34 1 7 31
M  V30 35 1 10 32
M  V30 36 1 16 33
M  V30 37 1 17 34
M  V30 38 1 18 35
M  V30 39 1 19 36
M  V30 40 1 20 37
M  V30 41 1 22 38
M  V30 42 1 23 39
M  V30 43 1 25 40
M  V30 END BOND
M  V30 END CTAB
M  END
>  <Dataset>  (68) 
ChEMBL_Kinases

>  <Ligand_Instance>  (68) 
nan

>  <PDB_ID>  (68) 
nan

>  <Standardized_SMILES>  (68) 
Cc1cc2cc(Nc3ncc(C#N)c(-c4ccccc4)n3)ccc2[nH]1

>  <Name>  (68) 
nan

>  <Pocket>  (68) 
nan

>  <ATP_Site>  (68) 
nan

>  <Peripheral>  (68) 
nan

>  <Num_H_Atoms_ProtBoundConf>  (68) 
nan

>  <Num_Resolved_Atoms>  (68) 
nan

>  <Num_Not_Resolved_Atoms>  (68) 
nan

$$$$
CHEMBL233794
     RDKit          3D

  0  0  0  0  0  0  0  0  0  0999 V3000
M  V30 BEGIN CTAB
M  V30 COUNTS 52 56 0 0 0
M  V30 BEGIN ATOM
M  V30 1 N -0.633835 -5.664388 -1.168294 0
M  V30 2 C -0.314472 -4.543757 -1.381179 0
M  V30 3 C 0.088817 -3.166343 -1.619979 0
M  V30 4 C -0.890328 -2.290657 -1.687848 0
M  V30 5 N -2.302299 -2.095785 -1.613973 0
M  V30 6 C -2.972186 -1.755832 -0.411753 0
M  V30 7 O -2.160638 -1.647315 0.570005 0
M  V30 8 C -4.349926 -1.504549 -0.054738 0
M  V30 9 C -5.349914 -2.453538 -0.080051 0
M  V30 10 C -6.628441 -2.118994 0.282733 0
M  V30 11 C -6.988649 -0.850008 0.684001 0
M  V30 12 C -6.017300 0.132664 0.724062 0
M  V30 13 C -6.312823 1.422520 1.117652 0
M  V30 14 C -5.313303 2.371412 1.143701 0
M  V30 15 C -4.002319 2.107869 0.793161 0
M  V30 16 C -3.795636 0.797701 0.413425 0
M  V30 17 C -4.722848 -0.216322 0.354626 0
M  V30 18 S -0.036544 -0.714337 -1.989680 0
M  V30 19 C 1.633739 -1.475396 -1.987049 0
M  V30 20 C 1.362039 -2.764697 -1.769133 0
M  V30 21 C 2.681313 -3.438707 -1.768511 0
M  V30 22 C 3.750895 -2.740444 -1.006826 0
M  V30 23 C 3.930255 -1.292537 -1.325421 0
M  V30 24 N 2.879298 -0.768552 -2.175983 0
M  V30 25 S 3.040981 0.542153 -3.280639 0
M  V30 26 O 4.133549 0.180687 -4.256774 0
M  V30 27 O 1.785539 0.682748 -4.078671 0
M  V30 28 C 3.462561 2.036445 -2.433966 0
M  V30 29 C 4.700641 2.592879 -2.189504 0
M  V30 30 C 4.712728 3.783700 -1.488912 0
M  V30 31 C 3.584987 4.445998 -1.023788 0
M  V30 32 C 2.375587 3.860452 -1.288576 0
M  V30 33 C 2.290002 2.664153 -1.986176 0
M  V30 34 H -2.973887 -2.185813 -2.420289 0
M  V30 35 H -5.076834 -3.441448 -0.389588 0
M  V30 36 H -7.446955 -2.853202 0.272236 0
M  V30 37 H -7.975900 -0.528302 0.979681 0
M  V30 38 H -7.327239 1.660186 1.398715 0
M  V30 39 H -5.550744 3.401494 1.460097 0
M  V30 40 H -3.181258 2.825438 0.800951 0
M  V30 41 H -2.776693 0.549797 0.125511 0
M  V30 42 H 2.585510 -4.479701 -1.384097 0
M  V30 43 H 3.023430 -3.459906 -2.847156 0
M  V30 44 H 4.718978 -3.236777 -1.364753 0
M  V30 45 H 3.771072 -2.971827 0.083471 0
M  V30 46 H 3.841558 -0.749187 -0.345507 0
M  V30 47 H 4.936335 -1.021162 -1.723949 0
M  V30 48 H 5.466171 1.990252 -2.594745 0
M  V30 49 H 5.736981 4.161614 -1.336886 0
M  V30 50 H 3.747008 5.378614 -0.487085 0
M  V30 51 H 1.480635 4.386373 -0.919973 0
M  V30 52 H 1.258048 2.322021 -2.116682 0
M  V30 END ATOM
M  V30 BEGIN BOND
M  V30 1 3 1 2
M  V30 2 1 2 3
M  V30 3 2 3 4
M  V30 4 1 4 5
M  V30 5 1 5 6
M  V30 6 2 6 7
M  V30 7 1 6 8
M  V30 8 2 8 9
M  V30 9 1 9 10
M  V30 10 2 10 11
M  V30 11 1 11 12
M  V30 12 2 12 13
M  V30 13 1 13 14
M  V30 14 2 14 15
M  V30 15 1 15 16
M  V30 16 2 16 17
M  V30 17 1 4 18
M  V30 18 1 18 19
M  V30 19 2 19 20
M  V30 20 1 20 21
M  V30 21 1 21 22
M  V30 22 1 22 23
M  V30 23 1 23 24
M  V30 24 1 24 25
M  V30 25 2 25 26
M  V30 26 2 25 27
M  V30 27 1 25 28
M  V30 28 2 28 29
M  V30 29 1 29 30
M  V30 30 2 30 31
M  V30 31 1 31 32
M  V30 32 2 32 33
M  V30 33 1 20 3
M  V30 34 1 33 28
M  V30 35 1 17 8
M  V30 36 1 24 19
M  V30 37 1 17 12
M  V30 38 1 5 34
M  V30 39 1 9 35
M  V30 40 1 10 36
M  V30 41 1 11 37
M  V30 42 1 13 38
M  V30 43 1 14 39
M  V30 44 1 15 40
M  V30 45 1 16 41
M  V30 46 1 21 42
M  V30 47 1 21 43
M  V30 48 1 22 44
M  V30 49 1 22 45
M  V30 50 1 23 46
M  V30 51 1 23 47
M  V30 52 1 29 48
M  V30 53 1 30 49
M  V30 54 1 31 50
M  V30 55 1 32 51
M  V30 56 1 33 52
M  V30 END BOND
M  V30 END CTAB
M  END
>  <Dataset>  (69) 
ChEMBL_Kinases

>  <Ligand_Instance>  (69) 
nan

>  <PDB_ID>  (69) 
nan

>  <Standardized_SMILES>  (69) 
N#Cc1c(NC(=O)c2cccc3ccccc23)sc2c1CCCN2S(=O)(=O)c1ccccc1

>  <Name>  (69) 
nan

>  <Pocket>  (69) 
nan

>  <ATP_Site>  (69) 
nan

>  <Peripheral>  (69) 
nan

>  <Num_H_Atoms_ProtBoundConf>  (69) 
nan

>  <Num_Resolved_Atoms>  (69) 
nan

>  <Num_Not_Resolved_Atoms>  (69) 
nan

$$$$
CHEMBL233830
     RDKit          3D

  0  0  0  0  0  0  0  0  0  0999 V3000
M  V30 BEGIN CTAB
M  V30 COUNTS 62 67 0 0 0
M  V30 BEGIN ATOM
M  V30 1 C -1.036562 3.536233 5.203874 0
M  V30 2 O -0.626332 3.607849 3.865911 0
M  V30 3 C -0.623052 2.531091 2.998479 0
M  V30 4 C -1.056844 1.332390 3.520872 0
M  V30 5 C -1.060862 0.247954 2.672548 0
M  V30 6 C -0.642477 0.398816 1.370480 0
M  V30 7 C -0.222122 1.626182 0.916693 0
M  V30 8 C -0.193047 2.752638 1.712565 0
M  V30 9 C 0.265270 3.975918 1.124143 0
M  V30 10 O 0.623717 3.990452 -0.085135 0
M  V30 11 N 0.408467 5.272819 1.666658 0
M  V30 12 C 0.877673 6.456665 1.014894 0
M  V30 13 C 2.355324 6.472667 0.871945 0
M  V30 14 C 3.090297 6.027572 -0.203481 0
M  V30 15 C 4.465172 6.066773 -0.264086 0
M  V30 16 C 5.100214 6.591776 0.841447 0
M  V30 17 C 4.399202 7.044677 1.929955 0
M  V30 18 N 3.062465 6.971672 1.911190 0
M  V30 19 C -0.753212 -0.920190 0.701513 0
M  V30 20 C -1.275803 -1.820395 1.758750 0
M  V30 21 C -1.648282 -3.136296 1.976478 0
M  V30 22 C -1.593839 -4.194600 0.951761 0
M  V30 23 C -2.051137 -3.990065 -0.333815 0
M  V30 24 C -2.016056 -4.954683 -1.321528 0
M  V30 25 C -1.486112 -6.209509 -0.997456 0
M  V30 26 C -1.428066 -7.259616 -2.016610 0
M  V30 27 C -1.525451 -8.623692 -1.802940 0
M  V30 28 C -1.449788 -9.490747 -2.875668 0
M  V30 29 C -1.278079 -9.066011 -4.184575 0
M  V30 30 O -1.203972 -9.951563 -5.252525 0
M  V30 31 C -1.179437 -7.704939 -4.411205 0
M  V30 32 C -0.999566 -7.170995 -5.737928 0
M  V30 33 N -0.862215 -6.739326 -6.817407 0
M  V30 34 C -1.254906 -6.825065 -3.333621 0
M  V30 35 C -1.018855 -6.428387 0.304516 0
M  V30 36 C -1.068930 -5.441441 1.268404 0
M  V30 37 N -2.047129 -3.219949 3.263311 0
M  V30 38 N -1.933202 -2.013478 3.836572 0
M  V30 39 C -1.461109 -1.128760 2.938066 0
M  V30 40 H -0.993711 4.526314 5.696648 0
M  V30 41 H -0.352364 2.866177 5.784612 0
M  V30 42 H -2.097078 3.191761 5.314425 0
M  V30 43 H -1.375879 1.247252 4.539065 0
M  V30 44 H 0.097838 1.669659 -0.136493 0
M  V30 45 H 0.130710 5.364943 2.685052 0
M  V30 46 H 0.373892 6.609529 0.031564 0
M  V30 47 H 0.595405 7.355337 1.620769 0
M  V30 48 H 2.553679 5.634906 -1.038307 0
M  V30 49 H 4.973282 5.693219 -1.153612 0
M  V30 50 H 6.197460 6.624595 0.796287 0
M  V30 51 H 4.980905 7.442316 2.755530 0
M  V30 52 H -1.439861 -0.881410 -0.180337 0
M  V30 53 H 0.250910 -1.227665 0.357051 0
M  V30 54 H -2.467274 -3.025172 -0.610483 0
M  V30 55 H -2.391853 -4.723694 -2.306124 0
M  V30 56 H -1.658025 -8.925760 -0.779690 0
M  V30 57 H -1.527006 -10.552884 -2.696148 0
M  V30 58 H -0.649113 -9.677703 -6.079469 0
M  V30 59 H -1.171736 -5.765353 -3.564851 0
M  V30 60 H -0.608041 -7.390310 0.568923 0
M  V30 61 H -0.691931 -5.670383 2.259863 0
M  V30 62 H -2.182750 -1.822351 4.836389 0
M  V30 END ATOM
M  V30 BEGIN BOND
M  V30 1 1 1 2
M  V30 2 1 2 3
M  V30 3 2 3 4
M  V30 4 1 4 5
M  V30 5 2 5 6
M  V30 6 1 6 7
M  V30 7 2 7 8
M  V30 8 1 8 9
M  V30 9 2 9 10
M  V30 10 1 9 11
M  V30 11 1 11 12
M  V30 12 1 12 13
M  V30 13 2 13 14
M  V30 14 1 14 15
M  V30 15 2 15 16
M  V30 16 1 16 17
M  V30 17 2 17 18
M  V30 18 1 6 19
M  V30 19 1 19 20
M  V30 20 1 20 21
M  V30 21 1 21 22
M  V30 22 2 22 23
M  V30 23 1 23 24
M  V30 24 2 24 25
M  V30 25 1 25 26
M  V30 26 2 26 27
M  V30 27 1 27 28
M  V30 28 2 28 29
M  V30 29 1 29 30
M  V30 30 1 29 31
M  V30 31 1 31 32
M  V30 32 3 32 33
M  V30 33 2 31 34
M  V30 34 1 25 35
M  V30 35 2 35 36
M  V30 36 2 21 37
M  V30 37 1 37 38
M  V30 38 1 38 39
M  V30 39 1 8 3
M  V30 40 1 18 13
M  V30 41 2 39 20
M  V30 42 1 39 5
M  V30 43 1 36 22
M  V30 44 1 34 26
M  V30 45 1 1 40
M  V30 46 1 1 41
M  V30 47 1 1 42
M  V30 48 1 4 43
M  V30 49 1 7 44
M  V30 50 1 11 45
M  V30 51 1 12 46
M  V30 52 1 12 47
M  V30 53 1 14 48
M  V30 54 1 15 49
M  V30 55 1 16 50
M  V30 56 1 17 51
M  V30 57 1 19 52
M  V30 58 1 19 53
M  V30 59 1 23 54
M  V30 60 1 24 55
M  V30 61 1 27 56
M  V30 62 1 28 57
M  V30 63 1 30 58
M  V30 64 1 34 59
M  V30 65 1 35 60
M  V30 66 1 36 61
M  V30 67 1 38 62
M  V30 END BOND
M  V30 END CTAB
M  END
>  <Dataset>  (70) 
ChEMBL_Kinases

>  <Ligand_Instance>  (70) 
nan

>  <PDB_ID>  (70) 
nan

>  <Standardized_SMILES>  (70) 
COc1cc2c(cc1C(=O)NCc1ccccn1)Cc1c(-c3ccc(-c4ccc(O)c(C#N)c4)cc3)n[nH]c1-2

>  <Name>  (70) 
nan

>  <Pocket>  (70) 
nan

>  <ATP_Site>  (70) 
nan

>  <Peripheral>  (70) 
nan

>  <Num_H_Atoms_ProtBoundConf>  (70) 
nan

>  <Num_Resolved_Atoms>  (70) 
nan

>  <Num_Not_Resolved_Atoms>  (70) 
nan

$$$$
CHEMBL233831
     RDKit          3D

  0  0  0  0  0  0  0  0  0  0999 V3000
M  V30 BEGIN CTAB
M  V30 COUNTS 65 70 0 0 0
M  V30 BEGIN ATOM
M  V30 1 C 5.813544 1.741630 0.699094 0
M  V30 2 O 5.258032 0.451623 0.629370 0
M  V30 3 C 3.960967 0.096630 0.823035 0
M  V30 4 C 3.013371 1.038036 1.128240 0
M  V30 5 C 1.715726 0.675965 1.324283 0
M  V30 6 C 1.353061 -0.656669 1.213978 0
M  V30 7 C 2.346449 -1.563929 0.904514 0
M  V30 8 C 3.695213 -1.239022 0.693101 0
M  V30 9 C 4.527310 -2.386652 0.352099 0
M  V30 10 N 4.817817 -2.634461 -1.002108 0
M  V30 11 C 5.594658 -1.743229 -1.754227 0
M  V30 12 C 4.830426 -0.745912 -2.569555 0
M  V30 13 N 3.673256 -1.253780 -3.217935 0
M  V30 14 C 3.746307 -1.404332 -4.634631 0
M  V30 15 C 2.936839 -2.251774 -2.531810 0
M  V30 16 C 3.730048 -3.242121 -1.739613 0
M  V30 17 C -0.104582 -0.773604 1.473334 0
M  V30 18 C -0.493247 0.637598 1.727154 0
M  V30 19 C -1.588577 1.421704 2.029563 0
M  V30 20 C -2.979972 1.028676 2.227662 0
M  V30 21 C -3.853123 1.429180 3.218492 0
M  V30 22 C -5.137457 0.923237 3.203104 0
M  V30 23 C -5.570265 0.038541 2.237130 0
M  V30 24 C -6.934752 -0.476684 2.249023 0
M  V30 25 C -7.490247 -0.769974 1.014095 0
M  V30 26 C -8.768168 -1.264219 0.852419 0
M  V30 27 C -9.552939 -1.485995 1.966950 0
M  V30 28 O -10.854664 -1.985733 1.855374 0
M  V30 29 C -9.006238 -1.196779 3.192982 0
M  V30 30 F -9.758211 -1.406747 4.297660 0
M  V30 31 C -7.728054 -0.702387 3.355077 0
M  V30 32 C -4.692633 -0.359103 1.248040 0
M  V30 33 C -3.403999 0.134682 1.244972 0
M  V30 34 N -1.160613 2.693890 2.117724 0
M  V30 35 N 0.141614 2.762842 1.888804 0
M  V30 36 C 0.562357 1.500534 1.646849 0
M  V30 37 H 6.062877 2.028103 1.752914 0
M  V30 38 H 6.776955 1.790613 0.126815 0
M  V30 39 H 5.089290 2.465362 0.306414 0
M  V30 40 H 3.307412 2.068227 1.210744 0
M  V30 41 H 1.982116 -2.582545 0.836978 0
M  V30 42 H 4.128093 -3.345530 0.791199 0
M  V30 43 H 5.515594 -2.266812 0.899082 0
M  V30 44 H 6.331964 -1.216147 -1.135926 0
M  V30 45 H 6.235210 -2.367605 -2.460668 0
M  V30 46 H 4.582201 0.158161 -2.001426 0
M  V30 47 H 5.532641 -0.411070 -3.393760 0
M  V30 48 H 4.504221 -0.793842 -5.121779 0
M  V30 49 H 2.737824 -1.084604 -5.031064 0
M  V30 50 H 3.842044 -2.471096 -4.951530 0
M  V30 51 H 2.117649 -1.755461 -1.975886 0
M  V30 52 H 2.404623 -2.853096 -3.327376 0
M  V30 53 H 3.057652 -3.739051 -1.023226 0
M  V30 54 H 4.144347 -4.008671 -2.409809 0
M  V30 55 H -0.311083 -1.356371 2.396050 0
M  V30 56 H -0.612619 -1.228933 0.607300 0
M  V30 57 H -3.424412 2.121336 3.927547 0
M  V30 58 H -5.792089 1.261789 3.997840 0
M  V30 59 H -6.992755 -0.646922 0.043439 0
M  V30 60 H -9.226866 -1.502177 -0.097975 0
M  V30 61 H -10.966583 -2.750538 1.172460 0
M  V30 62 H -7.270719 -0.465614 4.300677 0
M  V30 63 H -5.049687 -1.058232 0.492556 0
M  V30 64 H -2.794604 -0.241574 0.423678 0
M  V30 65 H 0.768390 3.612825 1.885278 0
M  V30 END ATOM
M  V30 BEGIN BOND
M  V30 1 1 1 2
M  V30 2 1 2 3
M  V30 3 2 3 4
M  V30 4 1 4 5
M  V30 5 2 5 6
M  V30 6 1 6 7
M  V30 7 2 7 8
M  V30 8 1 8 9
M  V30 9 1 9 10
M  V30 10 1 10 11
M  V30 11 1 11 12
M  V30 12 1 12 13
M  V30 13 1 13 14
M  V30 14 1 13 15
M  V30 15 1 15 16
M  V30 16 1 6 17
M  V30 17 1 17 18
M  V30 18 1 18 19
M  V30 19 1 19 20
M  V30 20 2 20 21
M  V30 21 1 21 22
M  V30 22 2 22 23
M  V30 23 1 23 24
M  V30 24 2 24 25
M  V30 25 1 25 26
M  V30 26 2 26 27
M  V30 27 1 27 28
M  V30 28 1 27 29
M  V30 29 1 29 30
M  V30 30 2 29 31
M  V30 31 1 23 32
M  V30 32 2 32 33
M  V30 33 2 19 34
M  V30 34 1 34 35
M  V30 35 1 35 36
M  V30 36 1 8 3
M  V30 37 1 16 10
M  V30 38 2 36 18
M  V30 39 1 36 5
M  V30 40 1 33 20
M  V30 41 1 31 24
M  V30 42 1 1 37
M  V30 43 1 1 38
M  V30 44 1 1 39
M  V30 45 1 4 40
M  V30 46 1 7 41
M  V30 47 1 9 42
M  V30 48 1 9 43
M  V30 49 1 11 44
M  V30 50 1 11 45
M  V30 51 1 12 46
M  V30 52 1 12 47
M  V30 53 1 14 48
M  V30 54 1 14 49
M  V30 55 1 14 50
M  V30 56 1 15 51
M  V30 57 1 15 52
M  V30 58 1 16 53
M  V30 59 1 16 54
M  V30 60 1 17 55
M  V30 61 1 17 56
M  V30 62 1 21 57
M  V30 63 1 22 58
M  V30 64 1 25 59
M  V30 65 1 26 60
M  V30 66 1 28 61
M  V30 67 1 31 62
M  V30 68 1 32 63
M  V30 69 1 33 64
M  V30 70 1 35 65
M  V30 END BOND
M  V30 END CTAB
M  END
>  <Dataset>  (71) 
ChEMBL_Kinases

>  <Ligand_Instance>  (71) 
nan

>  <PDB_ID>  (71) 
nan

>  <Standardized_SMILES>  (71) 
COc1cc2c(cc1CN1CCN(C)CC1)Cc1c(-c3ccc(-c4ccc(O)c(F)c4)cc3)n[nH]c1-2

>  <Name>  (71) 
nan

>  <Pocket>  (71) 
nan

>  <ATP_Site>  (71) 
nan

>  <Peripheral>  (71) 
nan

>  <Num_H_Atoms_ProtBoundConf>  (71) 
nan

>  <Num_Resolved_Atoms>  (71) 
nan

>  <Num_Not_Resolved_Atoms>  (71) 
nan

$$$$
CHEMBL2338334
     RDKit          3D

  0  0  0  0  0  0  0  0  0  0999 V3000
M  V30 BEGIN CTAB
M  V30 COUNTS 41 43 0 0 0
M  V30 BEGIN ATOM
M  V30 1 C 1.662940 -2.923374 2.345267 0
M  V30 2 N 2.426728 -1.789400 1.849466 0
M  V30 3 C 2.106712 -1.473490 0.484651 0
M  V30 4 C 1.292727 -0.285223 0.263758 0
M  V30 5 C 0.919513 0.009446 -0.997037 0
M  V30 6 C 1.259046 -0.767513 -2.179118 0
M  V30 7 C 0.222544 -0.847476 -3.122917 0
M  V30 8 C 0.288773 -1.527061 -4.318046 0
M  V30 9 C 1.475690 -2.193211 -4.627820 0
M  V30 10 C 2.468498 -2.092758 -3.681838 0
M  V30 11 N 2.399481 -1.427813 -2.514165 0
M  V30 12 C 0.858315 0.583409 1.384168 0
M  V30 13 O 0.585277 1.758038 1.024581 0
M  V30 14 C 0.857177 -0.169503 2.665523 0 CFG=2
M  V30 15 C 0.350239 0.594316 3.838710 0
M  V30 16 C -1.070824 0.968759 3.467279 0
M  V30 17 C -2.123910 0.122092 3.733676 0
M  V30 18 C -3.428714 0.471782 3.365272 0
M  V30 19 C -3.680191 1.669360 2.730366 0
M  V30 20 C -2.592314 2.483264 2.486198 0
M  V30 21 N -1.319017 2.155259 2.838755 0
M  V30 22 C 2.261717 -0.700132 2.782899 0
M  V30 23 H 0.713211 -3.019884 1.777087 0
M  V30 24 H 2.245731 -3.853789 2.359928 0
M  V30 25 H 1.373457 -2.719512 3.392781 0
M  V30 26 H 1.626686 -2.378214 0.023514 0
M  V30 27 H 3.073442 -1.341162 -0.044877 0
M  V30 28 H 0.312725 0.916924 -1.136311 0
M  V30 29 H -0.746169 -0.350376 -2.957902 0
M  V30 30 H -0.528016 -1.557660 -5.008097 0
M  V30 31 H 1.543460 -2.730097 -5.561053 0
M  V30 32 H 3.387797 -2.604028 -3.910187 0
M  V30 33 H 0.222928 -1.091234 2.486500 0
M  V30 34 H 0.875644 1.528524 4.035313 0
M  V30 35 H 0.330661 -0.001901 4.753758 0
M  V30 36 H -1.945058 -0.802897 4.221606 0
M  V30 37 H -4.282203 -0.149170 3.547285 0
M  V30 38 H -4.662681 2.001908 2.415517 0
M  V30 39 H -2.633486 3.447126 2.001756 0
M  V30 40 H 2.411521 -1.069079 3.809370 0
M  V30 41 H 3.012779 0.059699 2.529465 0
M  V30 END ATOM
M  V30 BEGIN BOND
M  V30 1 1 1 2
M  V30 2 1 2 3
M  V30 3 1 3 4
M  V30 4 2 4 5
M  V30 5 1 5 6
M  V30 6 2 6 7
M  V30 7 1 7 8
M  V30 8 2 8 9
M  V30 9 1 9 10
M  V30 10 2 10 11
M  V30 11 1 4 12
M  V30 12 2 12 13
M  V30 13 1 12 14
M  V30 14 1 14 15
M  V30 15 1 15 16
M  V30 16 2 16 17
M  V30 17 1 17 18
M  V30 18 2 18 19
M  V30 19 1 19 20
M  V30 20 2 20 21
M  V30 21 1 14 22
M  V30 22 1 22 2
M  V30 23 1 11 6
M  V30 24 1 21 16
M  V30 25 1 1 23
M  V30 26 1 1 24
M  V30 27 1 1 25
M  V30 28 1 3 26
M  V30 29 1 3 27
M  V30 30 1 5 28
M  V30 31 1 7 29
M  V30 32 1 8 30
M  V30 33 1 9 31
M  V30 34 1 10 32
M  V30 35 1 14 33 CFG=3
M  V30 36 1 15 34
M  V30 37 1 15 35
M  V30 38 1 17 36
M  V30 39 1 18 37
M  V30 40 1 19 38
M  V30 41 1 20 39
M  V30 42 1 22 40
M  V30 43 1 22 41
M  V30 END BOND
M  V30 END CTAB
M  END
>  <Dataset>  (72) 
ChEMBL_Kinases

>  <Ligand_Instance>  (72) 
nan

>  <PDB_ID>  (72) 
nan

>  <Standardized_SMILES>  (72) 
CN1C/C(=C\c2ccccn2)C(=O)[C@H](Cc2ccccn2)C1

>  <Name>  (72) 
nan

>  <Pocket>  (72) 
nan

>  <ATP_Site>  (72) 
nan

>  <Peripheral>  (72) 
nan

>  <Num_H_Atoms_ProtBoundConf>  (72) 
nan

>  <Num_Resolved_Atoms>  (72) 
nan

>  <Num_Not_Resolved_Atoms>  (72) 
nan

$$$$
CHEMBL2338335
     RDKit          3D

  0  0  0  0  0  0  0  0  0  0999 V3000
M  V30 BEGIN CTAB
M  V30 COUNTS 41 43 0 0 0
M  V30 BEGIN ATOM
M  V30 1 C 1.107509 -3.240190 2.496143 0
M  V30 2 N 1.676177 -1.948268 2.089957 0
M  V30 3 C 0.895929 -1.494316 0.957549 0
M  V30 4 C 1.507454 -0.221477 0.480036 0
M  V30 5 C 1.606007 0.214710 -0.765552 0
M  V30 6 C 1.104248 -0.525084 -1.916313 0
M  V30 7 C -0.063205 -1.251617 -2.001584 0
M  V30 8 C -0.406970 -1.912084 -3.160795 0
M  V30 9 C 0.394854 -1.887249 -4.308220 0
M  V30 10 C 1.569174 -1.133695 -4.166249 0
M  V30 11 N 1.864163 -0.508444 -3.021764 0
M  V30 12 C 2.045317 0.600357 1.558426 0
M  V30 13 O 2.710782 1.635894 1.230221 0
M  V30 14 C 1.888252 0.340097 3.017345 0 CFG=1
M  V30 15 C 0.822527 1.307563 3.513463 0
M  V30 16 C -0.480758 1.130943 2.838705 0
M  V30 17 C -1.546061 0.342107 3.213432 0
M  V30 18 C -2.715315 0.279295 2.492640 0
M  V30 19 C -2.862971 1.027048 1.337855 0
M  V30 20 C -1.787178 1.809767 0.979272 0
M  V30 21 N -0.658166 1.844304 1.711426 0
M  V30 22 C 1.575120 -1.090586 3.249913 0
M  V30 23 H 0.370117 -3.609314 1.752672 0
M  V30 24 H 1.895479 -4.015360 2.539078 0
M  V30 25 H 0.552002 -3.171626 3.452454 0
M  V30 26 H -0.158474 -1.420989 1.219199 0
M  V30 27 H 1.078330 -2.250655 0.157530 0
M  V30 28 H 2.079632 1.169167 -0.961597 0
M  V30 29 H -0.681698 -1.264951 -1.114519 0
M  V30 30 H -1.352479 -2.474006 -3.165495 0
M  V30 31 H 0.112814 -2.408626 -5.205955 0
M  V30 32 H 2.230928 -1.078279 -5.026181 0
M  V30 33 H 2.875316 0.643682 3.477363 0
M  V30 34 H 0.693697 1.123838 4.624242 0
M  V30 35 H 1.165896 2.353857 3.456951 0
M  V30 36 H -1.416359 -0.227027 4.119996 0
M  V30 37 H -3.508705 -0.376945 2.864763 0
M  V30 38 H -3.767411 0.987268 0.769743 0
M  V30 39 H -1.865443 2.409693 0.081380 0
M  V30 40 H 0.627874 -1.324640 3.736770 0
M  V30 41 H 2.374432 -1.480212 3.950782 0
M  V30 END ATOM
M  V30 BEGIN BOND
M  V30 1 1 1 2
M  V30 2 1 2 3
M  V30 3 1 3 4
M  V30 4 2 4 5
M  V30 5 1 5 6
M  V30 6 2 6 7
M  V30 7 1 7 8
M  V30 8 2 8 9
M  V30 9 1 9 10
M  V30 10 2 10 11
M  V30 11 1 4 12
M  V30 12 2 12 13
M  V30 13 1 12 14
M  V30 14 1 14 15
M  V30 15 1 15 16
M  V30 16 2 16 17
M  V30 17 1 17 18
M  V30 18 2 18 19
M  V30 19 1 19 20
M  V30 20 2 20 21
M  V30 21 1 14 22
M  V30 22 1 22 2
M  V30 23 1 11 6
M  V30 24 1 21 16
M  V30 25 1 1 23
M  V30 26 1 1 24
M  V30 27 1 1 25
M  V30 28 1 3 26
M  V30 29 1 3 27
M  V30 30 1 5 28
M  V30 31 1 7 29
M  V30 32 1 8 30
M  V30 33 1 9 31
M  V30 34 1 10 32
M  V30 35 1 14 33 CFG=1
M  V30 36 1 15 34
M  V30 37 1 15 35
M  V30 38 1 17 36
M  V30 39 1 18 37
M  V30 40 1 19 38
M  V30 41 1 20 39
M  V30 42 1 22 40
M  V30 43 1 22 41
M  V30 END BOND
M  V30 END CTAB
M  END
>  <Dataset>  (73) 
ChEMBL_Kinases

>  <Ligand_Instance>  (73) 
nan

>  <PDB_ID>  (73) 
nan

>  <Standardized_SMILES>  (73) 
CN1C/C(=C\c2ccccn2)C(=O)[C@@H](Cc2ccccn2)C1

>  <Name>  (73) 
nan

>  <Pocket>  (73) 
nan

>  <ATP_Site>  (73) 
nan

>  <Peripheral>  (73) 
nan

>  <Num_H_Atoms_ProtBoundConf>  (73) 
nan

>  <Num_Resolved_Atoms>  (73) 
nan

>  <Num_Not_Resolved_Atoms>  (73) 
nan

$$$$
CHEMBL233874
     RDKit          3D

  0  0  0  0  0  0  0  0  0  0999 V3000
M  V30 BEGIN CTAB
M  V30 COUNTS 36 38 0 0 0
M  V30 BEGIN ATOM
M  V30 1 C -0.597601 -5.439762 3.074372 0
M  V30 2 C 0.254057 -4.405367 2.429439 0
M  V30 3 C 1.607268 -4.572863 2.296452 0
M  V30 4 C 2.388862 -3.613687 1.699715 0
M  V30 5 C 1.868487 -2.437342 1.203350 0
M  V30 6 N 2.698023 -1.460343 0.590196 0
M  V30 7 C 2.353906 -0.203010 0.025922 0
M  V30 8 N 3.294575 0.572949 -0.505985 0
M  V30 9 C 3.026505 1.765125 -1.050286 0
M  V30 10 C 1.742209 2.243558 -1.081279 0
M  V30 11 C 1.476002 3.510622 -1.662742 0
M  V30 12 N 1.258913 4.536864 -2.141571 0
M  V30 13 C 0.756271 1.479516 -0.548028 0
M  V30 14 C -0.639631 1.909159 -0.537212 0
M  V30 15 C -1.032651 3.182372 -0.181466 0
M  V30 16 C -2.361186 3.494682 -0.200740 0
M  V30 17 C -3.356323 2.622940 -0.553624 0
M  V30 18 C -2.970206 1.337101 -0.913831 0
M  V30 19 C -1.637706 1.005073 -0.900250 0
M  V30 20 N 1.120172 0.301460 -0.025944 0
M  V30 21 C 0.506075 -2.323558 1.364249 0
M  V30 22 C -0.323519 -3.247159 1.951110 0
M  V30 23 H -1.639830 -5.412623 2.706575 0
M  V30 24 H -0.641103 -5.265252 4.174456 0
M  V30 25 H -0.164041 -6.450975 2.911596 0
M  V30 26 H 2.101569 -5.473033 2.660982 0
M  V30 27 H 3.470157 -3.796843 1.617734 0
M  V30 28 H 3.727745 -1.721245 0.554676 0
M  V30 29 H 3.851593 2.341649 -1.465584 0
M  V30 30 H -0.293441 3.911113 0.105514 0
M  V30 31 H -2.655838 4.498764 0.081127 0
M  V30 32 H -4.408960 2.899369 -0.560029 0
M  V30 33 H -3.754051 0.650313 -1.191829 0
M  V30 34 H -1.412994 -0.020521 -1.194752 0
M  V30 35 H -0.008343 -1.442550 1.012352 0
M  V30 36 H -1.391300 -3.103365 2.050319 0
M  V30 END ATOM
M  V30 BEGIN BOND
M  V30 1 1 1 2
M  V30 2 2 2 3
M  V30 3 1 3 4
M  V30 4 2 4 5
M  V30 5 1 5 6
M  V30 6 1 6 7
M  V30 7 2 7 8
M  V30 8 1 8 9
M  V30 9 2 9 10
M  V30 10 1 10 11
M  V30 11 3 11 12
M  V30 12 1 10 13
M  V30 13 1 13 14
M  V30 14 2 14 15
M  V30 15 1 15 16
M  V30 16 2 16 17
M  V30 17 1 17 18
M  V30 18 2 18 19
M  V30 19 2 13 20
M  V30 20 1 5 21
M  V30 21 2 21 22
M  V30 22 1 22 2
M  V30 23 1 20 7
M  V30 24 1 19 14
M  V30 25 1 1 23
M  V30 26 1 1 24
M  V30 27 1 1 25
M  V30 28 1 3 26
M  V30 29 1 4 27
M  V30 30 1 6 28
M  V30 31 1 9 29
M  V30 32 1 15 30
M  V30 33 1 16 31
M  V30 34 1 17 32
M  V30 35 1 18 33
M  V30 36 1 19 34
M  V30 37 1 21 35
M  V30 38 1 22 36
M  V30 END BOND
M  V30 END CTAB
M  END
>  <Dataset>  (74) 
ChEMBL_Kinases

>  <Ligand_Instance>  (74) 
nan

>  <PDB_ID>  (74) 
nan

>  <Standardized_SMILES>  (74) 
Cc1ccc(Nc2ncc(C#N)c(-c3ccccc3)n2)cc1

>  <Name>  (74) 
nan

>  <Pocket>  (74) 
nan

>  <ATP_Site>  (74) 
nan

>  <Peripheral>  (74) 
nan

>  <Num_H_Atoms_ProtBoundConf>  (74) 
nan

>  <Num_Resolved_Atoms>  (74) 
nan

>  <Num_Not_Resolved_Atoms>  (74) 
nan

$$$$
CHEMBL233667
     RDKit          3D

  0  0  0  0  0  0  0  0  0  0999 V3000
M  V30 BEGIN CTAB
M  V30 COUNTS 49 52 0 0 0
M  V30 BEGIN ATOM
M  V30 1 N 0.691057 -5.131636 3.962967 0
M  V30 2 C 0.749336 -4.563243 2.979530 0
M  V30 3 C 0.843464 -3.859829 1.737098 0
M  V30 4 C 2.091338 -3.465017 1.233922 0
M  V30 5 N 2.233795 -2.801105 0.066893 0
M  V30 6 C 1.127051 -2.491519 -0.669756 0
M  V30 7 N 0.969444 -1.826608 -1.914951 0
M  V30 8 C 0.937592 -0.404586 -2.076424 0
M  V30 9 C 0.651391 0.190115 -3.285089 0
M  V30 10 C 0.630253 1.563427 -3.460338 0
M  V30 11 C 0.914764 2.326357 -2.347520 0
M  V30 12 C 1.214400 1.809432 -1.089639 0
M  V30 13 C 1.516407 2.697562 0.059860 0
M  V30 14 N 0.365043 3.053554 0.820188 0
M  V30 15 C 0.638659 3.924153 1.948363 0
M  V30 16 C 1.563914 3.291124 2.967246 0
M  V30 17 O 1.612754 1.926684 2.828519 0
M  V30 18 C 0.415085 1.315511 2.528865 0
M  V30 19 C -0.320952 1.896848 1.363410 0
M  V30 20 C 1.210414 0.438016 -1.015989 0
M  V30 21 N -0.082211 -2.872059 -0.185385 0
M  V30 22 C -0.247907 -3.533978 0.973519 0
M  V30 23 C -1.566038 -3.944888 1.464716 0
M  V30 24 C -2.116898 -3.835663 2.718954 0
M  V30 25 C -3.395093 -4.310247 2.941362 0
M  V30 26 C -4.112739 -4.888918 1.913240 0
M  V30 27 C -3.573215 -5.011134 0.627232 0
M  V30 28 C -2.275867 -4.528126 0.406509 0
M  V30 29 H 2.999996 -3.672562 1.755898 0
M  V30 30 H 0.867024 -2.404541 -2.798110 0
M  V30 31 H 0.430008 -0.463500 -4.144933 0
M  V30 32 H 0.405000 2.021817 -4.410752 0
M  V30 33 H 0.912434 3.409987 -2.430742 0
M  V30 34 H 1.899251 3.655934 -0.403089 0
M  V30 35 H 2.326017 2.213791 0.635630 0
M  V30 36 H 0.980573 4.936231 1.633254 0
M  V30 37 H -0.355564 4.082010 2.457829 0
M  V30 38 H 1.286057 3.588226 4.020792 0
M  V30 39 H 2.589972 3.711095 2.812540 0
M  V30 40 H 0.673691 0.250483 2.260936 0
M  V30 41 H -0.231043 1.200582 3.444626 0
M  V30 42 H -0.545447 1.155323 0.553756 0
M  V30 43 H -1.322781 2.240026 1.725993 0
M  V30 44 H 1.430735 -0.045566 -0.081450 0
M  V30 45 H -1.440588 -3.358592 3.434438 0
M  V30 46 H -3.767530 -4.191923 3.953130 0
M  V30 47 H -5.119023 -5.253004 2.129008 0
M  V30 48 H -4.161618 -5.477042 -0.179585 0
M  V30 49 H -1.949505 -4.670452 -0.620871 0
M  V30 END ATOM
M  V30 BEGIN BOND
M  V30 1 3 1 2
M  V30 2 1 2 3
M  V30 3 2 3 4
M  V30 4 1 4 5
M  V30 5 2 5 6
M  V30 6 1 6 7
M  V30 7 1 7 8
M  V30 8 2 8 9
M  V30 9 1 9 10
M  V30 10 2 10 11
M  V30 11 1 11 12
M  V30 12 1 12 13
M  V30 13 1 13 14
M  V30 14 1 14 15
M  V30 15 1 15 16
M  V30 16 1 16 17
M  V30 17 1 17 18
M  V30 18 1 18 19
M  V30 19 2 12 20
M  V30 20 1 6 21
M  V30 21 2 21 22
M  V30 22 1 22 23
M  V30 23 2 23 24
M  V30 24 1 24 25
M  V30 25 2 25 26
M  V30 26 1 26 27
M  V30 27 2 27 28
M  V30 28 1 22 3
M  V30 29 1 28 23
M  V30 30 1 20 8
M  V30 31 1 19 14
M  V30 32 1 4 29
M  V30 33 1 7 30
M  V30 34 1 9 31
M  V30 35 1 10 32
M  V30 36 1 11 33
M  V30 37 1 13 34
M  V30 38 1 13 35
M  V30 39 1 15 36
M  V30 40 1 15 37
M  V30 41 1 16 38
M  V30 42 1 16 39
M  V30 43 1 18 40
M  V30 44 1 18 41
M  V30 45 1 19 42
M  V30 46 1 19 43
M  V30 47 1 20 44
M  V30 48 1 24 45
M  V30 49 1 25 46
M  V30 50 1 26 47
M  V30 51 1 27 48
M  V30 52 1 28 49
M  V30 END BOND
M  V30 END CTAB
M  END
>  <Dataset>  (75) 
ChEMBL_Kinases

>  <Ligand_Instance>  (75) 
nan

>  <PDB_ID>  (75) 
nan

>  <Standardized_SMILES>  (75) 
N#Cc1cnc(Nc2cccc(CN3CCOCC3)c2)nc1-c1ccccc1

>  <Name>  (75) 
nan

>  <Pocket>  (75) 
nan

>  <ATP_Site>  (75) 
nan

>  <Peripheral>  (75) 
nan

>  <Num_H_Atoms_ProtBoundConf>  (75) 
nan

>  <Num_Resolved_Atoms>  (75) 
nan

>  <Num_Not_Resolved_Atoms>  (75) 
nan

$$$$
CHEMBL2089063
     RDKit          3D

  0  0  0  0  0  0  0  0  0  0999 V3000
M  V30 BEGIN CTAB
M  V30 COUNTS 64 69 0 0 0
M  V30 BEGIN ATOM
M  V30 1 C 5.896005 -1.232285 4.270143 0
M  V30 2 N 6.734839 -0.547995 3.315042 0
M  V30 3 C 7.903605 -1.319315 3.030141 0
M  V30 4 C 5.986171 -0.118162 2.170932 0
M  V30 5 C 5.326065 -1.283639 1.448669 0
M  V30 6 C 5.141647 -0.889116 -0.014159 0
M  V30 7 N 4.802079 0.542055 -0.069088 0
M  V30 8 C 3.510438 1.142287 -0.277504 0
M  V30 9 C 3.307897 2.473574 -0.564550 0
M  V30 10 C 2.017887 2.928275 -0.727171 0
M  V30 11 C 0.889953 2.132436 -0.622025 0
M  V30 12 N -0.437752 2.325038 -0.729773 0
M  V30 13 C -1.059609 1.129477 -0.511447 0
M  V30 14 C -2.499271 1.088064 -0.595081 0
M  V30 15 O -3.153106 2.057237 -1.060052 0
M  V30 16 C -3.379615 0.000785 -0.191891 0
M  V30 17 C -2.952468 -0.843673 0.801144 0
M  V30 18 C -3.779987 -1.874466 1.153883 0
M  V30 19 N -4.942203 -2.030201 0.548624 0
M  V30 20 C -5.453312 -1.283258 -0.411451 0
M  V30 21 C -6.721115 -1.368740 -1.115286 0
M  V30 22 C -7.045030 -0.556349 -2.171575 0
M  V30 23 N -8.202962 -0.586075 -2.845895 0
M  V30 24 C -9.194030 -1.447513 -2.539801 0
M  V30 25 C -8.933756 -2.288467 -1.493086 0
M  V30 26 C -9.934999 -3.198968 -1.131999 0
M  V30 27 C -9.752615 -4.073627 -0.087750 0
M  V30 28 C -8.562683 -4.037164 0.599635 0
M  V30 29 C -7.599492 -3.134394 0.224255 0
M  V30 30 C -7.740737 -2.245260 -0.811652 0
M  V30 31 C -4.621709 -0.254669 -0.761511 0
M  V30 32 N -0.090542 0.250620 -0.280095 0
M  V30 33 C 1.133902 0.803647 -0.332841 0
M  V30 34 C 2.414062 0.310137 -0.162409 0
M  V30 35 C 5.992561 1.317420 0.141472 0
M  V30 36 C 6.837663 0.638537 1.190674 0
M  V30 37 H 5.167876 -1.910664 3.786296 0
M  V30 38 H 6.554227 -1.896670 4.886305 0
M  V30 39 H 5.425241 -0.541074 4.980708 0
M  V30 40 H 7.758877 -2.116685 2.298833 0
M  V30 41 H 8.740078 -0.643898 2.718734 0
M  V30 42 H 8.242048 -1.801270 3.969524 0
M  V30 43 H 5.176981 0.550601 2.519910 0
M  V30 44 H 4.306817 -1.475601 1.853467 0
M  V30 45 H 5.885263 -2.213318 1.475613 0
M  V30 46 H 6.008768 -1.129074 -0.632334 0
M  V30 47 H 4.274136 -1.450409 -0.394082 0
M  V30 48 H 4.165977 3.111610 -0.652481 0
M  V30 49 H 1.882056 3.969961 -0.952575 0
M  V30 50 H -2.045224 -0.815522 1.371930 0
M  V30 51 H -3.646366 -2.650756 1.902129 0
M  V30 52 H -6.405482 0.196570 -2.587567 0
M  V30 53 H -10.141162 -1.510582 -3.049631 0
M  V30 54 H -10.875608 -3.221538 -1.686002 0
M  V30 55 H -10.561320 -4.759558 0.148913 0
M  V30 56 H -8.478606 -4.750851 1.409498 0
M  V30 57 H -6.722482 -3.178048 0.810741 0
M  V30 58 H -4.835468 0.467322 -1.508096 0
M  V30 59 H -0.259664 -0.755495 -0.090761 0
M  V30 60 H 2.453797 -0.736712 0.059646 0
M  V30 61 H 5.753457 2.333575 0.566196 0
M  V30 62 H 6.560072 1.504365 -0.794693 0
M  V30 63 H 7.512812 -0.076946 0.636775 0
M  V30 64 H 7.475589 1.389034 1.700199 0
M  V30 END ATOM
M  V30 BEGIN BOND
M  V30 1 1 1 2
M  V30 2 1 2 3
M  V30 3 1 2 4
M  V30 4 1 4 5
M  V30 5 1 5 6
M  V30 6 1 6 7
M  V30 7 1 7 8
M  V30 8 2 8 9
M  V30 9 1 9 10
M  V30 10 2 10 11
M  V30 11 1 11 12
M  V30 12 2 12 13
M  V30 13 1 13 14
M  V30 14 2 14 15
M  V30 15 1 14 16
M  V30 16 2 16 17
M  V30 17 1 17 18
M  V30 18 2 18 19
M  V30 19 1 19 20
M  V30 20 1 20 21
M  V30 21 2 21 22
M  V30 22 1 22 23
M  V30 23 2 23 24
M  V30 24 1 24 25
M  V30 25 2 25 26
M  V30 26 1 26 27
M  V30 27 2 27 28
M  V30 28 1 28 29
M  V30 29 2 29 30
M  V30 30 2 20 31
M  V30 31 1 13 32
M  V30 32 1 32 33
M  V30 33 2 33 34
M  V30 34 1 7 35
M  V30 35 1 35 36
M  V30 36 1 36 4
M  V30 37 1 34 8
M  V30 38 1 33 11
M  V30 39 1 31 16
M  V30 40 1 30 21
M  V30 41 1 30 25
M  V30 42 1 1 37
M  V30 43 1 1 38
M  V30 44 1 1 39
M  V30 45 1 3 40
M  V30 46 1 3 41
M  V30 47 1 3 42
M  V30 48 1 4 43
M  V30 49 1 5 44
M  V30 50 1 5 45
M  V30 51 1 6 46
M  V30 52 1 6 47
M  V30 53 1 9 48
M  V30 54 1 10 49
M  V30 55 1 17 50
M  V30 56 1 18 51
M  V30 57 1 22 52
M  V30 58 1 24 53
M  V30 59 1 26 54
M  V30 60 1 27 55
M  V30 61 1 28 56
M  V30 62 1 29 57
M  V30 63 1 31 58
M  V30 64 1 32 59
M  V30 65 1 34 60
M  V30 66 1 35 61
M  V30 67 1 35 62
M  V30 68 1 36 63
M  V30 69 1 36 64
M  V30 END BOND
M  V30 END CTAB
M  END
>  <Dataset>  (76) 
ChEMBL_Kinases

>  <Ligand_Instance>  (76) 
nan

>  <PDB_ID>  (76) 
nan

>  <Standardized_SMILES>  (76) 
CN(C)C1CCN(c2ccc3nc(C(=O)c4ccnc(-c5cncc6ccccc56)c4)[nH]c3c2)CC1

>  <Name>  (76) 
nan

>  <Pocket>  (76) 
nan

>  <ATP_Site>  (76) 
nan

>  <Peripheral>  (76) 
nan

>  <Num_H_Atoms_ProtBoundConf>  (76) 
nan

>  <Num_Resolved_Atoms>  (76) 
nan

>  <Num_Not_Resolved_Atoms>  (76) 
nan

$$$$
CHEMBL2089057
     RDKit          3D

  0  0  0  0  0  0  0  0  0  0999 V3000
M  V30 BEGIN CTAB
M  V30 COUNTS 66 70 0 0 0
M  V30 BEGIN ATOM
M  V30 1 C 4.636092 1.710673 4.019235 0
M  V30 2 C 5.312427 1.177768 2.815065 0
M  V30 3 N 6.251552 0.220616 2.641866 0
M  V30 4 N 6.560450 0.082198 1.362897 0
M  V30 5 C 7.524605 -0.844215 0.777698 0
M  V30 6 C 5.832903 0.948929 0.631981 0
M  V30 7 C 5.909051 1.084505 -0.863662 0
M  V30 8 C 5.041011 1.644073 1.551379 0
M  V30 9 C 4.129964 2.666627 1.028181 0
M  V30 10 C 2.853225 2.345105 0.644171 0
M  V30 11 C 1.883150 3.166660 0.130872 0
M  V30 12 C 0.529099 2.837217 -0.258070 0
M  V30 13 O 0.002994 3.600891 -1.116020 0
M  V30 14 C -0.303401 1.743838 0.209405 0
M  V30 15 N -1.477845 1.463737 -0.367330 0
M  V30 16 C -2.068990 0.423351 0.250644 0
M  V30 17 N -3.215175 -0.269536 0.112334 0
M  V30 18 C -3.546398 -1.295811 0.908766 0
M  V30 19 N -4.782388 -1.932741 0.640962 0
M  V30 20 C -5.587226 -1.639955 -0.524403 0
M  V30 21 C -5.482875 -2.846808 -1.400216 0
M  V30 22 C -5.130972 -4.125440 -0.743426 0
M  V30 23 N -5.469660 -5.319620 -1.419560 0
M  V30 24 C -5.086311 -6.529716 -0.748293 0
M  V30 25 C -5.438877 -5.367592 -2.826280 0
M  V30 26 C -5.592343 -4.237952 0.690593 0
M  V30 27 C -5.448724 -2.944590 1.446769 0
M  V30 28 C -2.717422 -1.705392 1.929891 0
M  V30 29 C -1.529905 -1.032352 2.117998 0
M  V30 30 C -1.241309 0.015372 1.269163 0
M  V30 31 N -0.186956 0.845750 1.202036 0
M  V30 32 C 2.313600 4.489683 0.007680 0
M  V30 33 C 3.576048 4.904167 0.367656 0
M  V30 34 C 4.485192 4.002789 0.876091 0
M  V30 35 C 5.808501 4.389503 1.264307 0
M  V30 36 N 6.881487 4.717139 1.585719 0
M  V30 37 H 3.661032 1.169399 4.095946 0
M  V30 38 H 4.501191 2.790637 4.000187 0
M  V30 39 H 5.222255 1.420464 4.930620 0
M  V30 40 H 8.358659 -0.320719 0.266587 0
M  V30 41 H 7.962148 -1.504888 1.558915 0
M  V30 42 H 7.019395 -1.459832 -0.024511 0
M  V30 43 H 5.557194 0.152808 -1.348968 0
M  V30 44 H 6.914274 1.297840 -1.228823 0
M  V30 45 H 5.197819 1.883582 -1.170913 0
M  V30 46 H 2.592609 1.302688 0.756004 0
M  V30 47 H -6.626003 -1.438746 -0.180765 0
M  V30 48 H -5.175805 -0.756344 -1.068717 0
M  V30 49 H -4.663725 -2.630731 -2.154824 0
M  V30 50 H -6.374306 -2.987198 -2.052192 0
M  V30 51 H -4.005825 -4.147142 -0.669437 0
M  V30 52 H -5.908845 -6.830171 -0.068726 0
M  V30 53 H -4.864295 -7.348246 -1.446201 0
M  V30 54 H -4.208001 -6.279557 -0.103243 0
M  V30 55 H -6.344521 -5.903692 -3.214308 0
M  V30 56 H -4.568160 -6.010377 -3.137037 0
M  V30 57 H -5.352355 -4.430936 -3.359604 0
M  V30 58 H -5.051926 -5.017461 1.257559 0
M  V30 59 H -6.660294 -4.516262 0.721954 0
M  V30 60 H -6.432236 -2.520773 1.732077 0
M  V30 61 H -4.865591 -3.062984 2.373146 0
M  V30 62 H -2.944546 -2.513243 2.580597 0
M  V30 63 H -0.835840 -1.299914 2.896172 0
M  V30 64 H 0.614457 0.785848 1.860331 0
M  V30 65 H 1.698492 5.280573 -0.374153 0
M  V30 66 H 3.914953 5.932206 0.273467 0
M  V30 END ATOM
M  V30 BEGIN BOND
M  V30 1 1 1 2
M  V30 2 2 2 3
M  V30 3 1 3 4
M  V30 4 1 4 5
M  V30 5 1 4 6
M  V30 6 1 6 7
M  V30 7 2 6 8
M  V30 8 1 8 9
M  V30 9 2 9 10
M  V30 10 1 10 11
M  V30 11 1 11 12
M  V30 12 2 12 13
M  V30 13 1 12 14
M  V30 14 2 14 15
M  V30 15 1 15 16
M  V30 16 2 16 17
M  V30 17 1 17 18
M  V30 18 1 18 19
M  V30 19 1 19 20
M  V30 20 1 20 21
M  V30 21 1 21 22
M  V30 22 1 22 23
M  V30 23 1 23 24
M  V30 24 1 23 25
M  V30 25 1 22 26
M  V30 26 1 26 27
M  V30 27 2 18 28
M  V30 28 1 28 29
M  V30 29 2 29 30
M  V30 30 1 30 31
M  V30 31 2 11 32
M  V30 32 1 32 33
M  V30 33 2 33 34
M  V30 34 1 34 35
M  V30 35 3 35 36
M  V30 36 1 8 2
M  V30 37 1 34 9
M  V30 38 1 31 14
M  V30 39 1 30 16
M  V30 40 1 27 19
M  V30 41 1 1 37
M  V30 42 1 1 38
M  V30 43 1 1 39
M  V30 44 1 5 40
M  V30 45 1 5 41
M  V30 46 1 5 42
M  V30 47 1 7 43
M  V30 48 1 7 44
M  V30 49 1 7 45
M  V30 50 1 10 46
M  V30 51 1 20 47
M  V30 52 1 20 48
M  V30 53 1 21 49
M  V30 54 1 21 50
M  V30 55 1 22 51
M  V30 56 1 24 52
M  V30 57 1 24 53
M  V30 58 1 24 54
M  V30 59 1 25 55
M  V30 60 1 25 56
M  V30 61 1 25 57
M  V30 62 1 26 58
M  V30 63 1 26 59
M  V30 64 1 27 60
M  V30 65 1 27 61
M  V30 66 1 28 62
M  V30 67 1 29 63
M  V30 68 1 31 64
M  V30 69 1 32 65
M  V30 70 1 33 66
M  V30 END BOND
M  V30 END CTAB
M  END
>  <Dataset>  (77) 
ChEMBL_Kinases

>  <Ligand_Instance>  (77) 
nan

>  <PDB_ID>  (77) 
nan

>  <Standardized_SMILES>  (77) 
Cc1nn(C)c(C)c1-c1cc(C(=O)c2nc3nc(N4CCC(N(C)C)CC4)ccc3[nH]2)ccc1C#N

>  <Name>  (77) 
nan

>  <Pocket>  (77) 
nan

>  <ATP_Site>  (77) 
nan

>  <Peripheral>  (77) 
nan

>  <Num_H_Atoms_ProtBoundConf>  (77) 
nan

>  <Num_Resolved_Atoms>  (77) 
nan

>  <Num_Not_Resolved_Atoms>  (77) 
nan

$$$$
CHEMBL2089036
     RDKit          3D

  0  0  0  0  0  0  0  0  0  0999 V3000
M  V30 BEGIN CTAB
M  V30 COUNTS 75 78 0 0 0
M  V30 BEGIN ATOM
M  V30 1 C 3.369289 -3.592165 3.730161 0
M  V30 2 C 2.920830 -2.168765 3.676695 0
M  V30 3 C 2.273376 -1.768192 4.973073 0
M  V30 4 C 2.003097 -1.871545 2.510042 0 CFG=2
M  V30 5 N 0.805373 -2.653046 2.537671 0
M  V30 6 C 2.708075 -2.055506 1.224566 0
M  V30 7 O 3.772635 -1.397114 1.328464 0
M  V30 8 O 2.262290 -2.804169 0.151538 0
M  V30 9 C 2.936449 -2.946357 -1.041460 0
M  V30 10 C 2.924584 -1.828951 -2.004307 0 CFG=2
M  V30 11 O 3.850099 -2.212108 -3.036769 0
M  V30 12 C 3.205239 -0.446274 -1.586166 0
M  V30 13 N 2.204541 0.085338 -0.683078 0
M  V30 14 C 0.978855 0.148678 -1.444072 0
M  V30 15 N -0.114618 -0.611169 -1.624497 0
M  V30 16 C -1.105771 -0.287287 -2.444862 0
M  V30 17 N -2.182082 -1.172259 -2.570662 0
M  V30 18 C -2.468247 -2.429310 -1.913949 0
M  V30 19 C -2.775136 -2.180280 -0.472422 0
M  V30 20 C -4.141475 -1.937999 -0.257560 0
M  V30 21 C -4.681243 -1.680437 0.986684 0
M  V30 22 C -3.859564 -1.653523 2.094285 0
M  V30 23 C -4.295957 -1.395331 3.456811 0
M  V30 24 C -5.602664 -1.145272 3.797099 0
M  V30 25 C -6.069580 -0.894808 5.071439 0
M  V30 26 C -5.129300 -0.896105 6.104311 0
M  V30 27 C -3.817918 -1.148243 5.754476 0
M  V30 28 N -3.412597 -1.386973 4.496065 0
M  V30 29 C -2.521570 -1.893126 1.867899 0
M  V30 30 C -1.962779 -2.152113 0.635255 0
M  V30 31 C -0.990325 0.905026 -3.146246 0
M  V30 32 N -1.840286 1.464601 -4.032705 0
M  V30 33 C -1.321841 2.634697 -4.471396 0
M  V30 34 N -0.148086 2.757505 -3.827581 0
M  V30 35 C 0.795213 3.866279 -3.964985 0
M  V30 36 C 1.907265 3.495570 -4.936443 0
M  V30 37 C 1.333817 4.210897 -2.592693 0
M  V30 38 C 0.100106 1.724322 -3.005189 0
M  V30 39 N 1.039371 1.309068 -2.158011 0
M  V30 40 H 3.642646 -3.830115 4.793963 0
M  V30 41 H 4.329034 -3.765915 3.173729 0
M  V30 42 H 2.567476 -4.277575 3.387163 0
M  V30 43 H 3.831138 -1.527586 3.495057 0
M  V30 44 H 1.958655 -2.701756 5.509171 0
M  V30 45 H 3.020198 -1.250519 5.630375 0
M  V30 46 H 1.394754 -1.116463 4.855576 0
M  V30 47 H 1.718898 -0.797927 2.590794 0
M  V30 48 H 0.814591 -3.306274 1.723387 0
M  V30 49 H 0.758668 -3.280687 3.378535 0
M  V30 50 H 4.048479 -3.166779 -0.811854 0
M  V30 51 H 2.635811 -3.901396 -1.578061 0
M  V30 52 H 1.945948 -1.824394 -2.553917 0
M  V30 53 H 3.863396 -1.432060 -3.643719 0
M  V30 54 H 3.214777 0.177845 -2.536055 0
M  V30 55 H 4.215389 -0.334072 -1.117537 0
M  V30 56 H 1.837173 0.459663 0.208467 0
M  V30 57 H -2.888085 -0.834030 -3.271973 0
M  V30 58 H -3.309402 -2.911013 -2.433434 0
M  V30 59 H -1.575889 -3.096850 -1.928352 0
M  V30 60 H -4.895191 -1.933004 -1.060385 0
M  V30 61 H -5.733361 -1.495757 1.139105 0
M  V30 62 H -6.369292 -1.132329 3.039254 0
M  V30 63 H -7.096622 -0.702441 5.310008 0
M  V30 64 H -5.401663 -0.708404 7.144631 0
M  V30 65 H -3.064357 -1.153136 6.550877 0
M  V30 66 H -1.851848 -1.878896 2.712507 0
M  V30 67 H -0.942477 -2.346086 0.393459 0
M  V30 68 H -1.715294 3.364520 -5.186920 0
M  V30 69 H 0.290285 4.768269 -4.359822 0
M  V30 70 H 2.270160 4.354638 -5.524029 0
M  V30 71 H 1.499210 2.672335 -5.577010 0
M  V30 72 H 2.749756 3.072102 -4.336253 0
M  V30 73 H 1.538305 5.294424 -2.521639 0
M  V30 74 H 0.642157 3.876355 -1.798781 0
M  V30 75 H 2.263232 3.590639 -2.476954 0
M  V30 END ATOM
M  V30 BEGIN BOND
M  V30 1 1 1 2
M  V30 2 1 2 3
M  V30 3 1 2 4
M  V30 4 1 4 5
M  V30 5 1 4 6
M  V30 6 2 6 7
M  V30 7 1 6 8
M  V30 8 1 8 9
M  V30 9 1 9 10
M  V30 10 1 10 11
M  V30 11 1 10 12
M  V30 12 1 12 13
M  V30 13 1 13 14
M  V30 14 2 14 15
M  V30 15 1 15 16
M  V30 16 1 16 17
M  V30 17 1 17 18
M  V30 18 1 18 19
M  V30 19 2 19 20
M  V30 20 1 20 21
M  V30 21 2 21 22
M  V30 22 1 22 23
M  V30 23 2 23 24
M  V30 24 1 24 25
M  V30 25 2 25 26
M  V30 26 1 26 27
M  V30 27 2 27 28
M  V30 28 1 22 29
M  V30 29 2 29 30
M  V30 30 2 16 31
M  V30 31 1 31 32
M  V30 32 2 32 33
M  V30 33 1 33 34
M  V30 34 1 34 35
M  V30 35 1 35 36
M  V30 36 1 35 37
M  V30 37 1 34 38
M  V30 38 2 38 39
M  V30 39 1 39 14
M  V30 40 1 30 19
M  V30 41 1 38 31
M  V30 42 1 28 23
M  V30 43 1 1 40
M  V30 44 1 1 41
M  V30 45 1 1 42
M  V30 46 1 2 43
M  V30 47 1 3 44
M  V30 48 1 3 45
M  V30 49 1 3 46
M  V30 50 1 4 47 CFG=1
M  V30 51 1 5 48
M  V30 52 1 5 49
M  V30 53 1 9 50
M  V30 54 1 9 51
M  V30 55 1 10 52 CFG=3
M  V30 56 1 11 53
M  V30 57 1 12 54
M  V30 58 1 12 55
M  V30 59 1 13 56
M  V30 60 1 17 57
M  V30 61 1 18 58
M  V30 62 1 18 59
M  V30 63 1 20 60
M  V30 64 1 21 61
M  V30 65 1 24 62
M  V30 66 1 25 63
M  V30 67 1 26 64
M  V30 68 1 27 65
M  V30 69 1 29 66
M  V30 70 1 30 67
M  V30 71 1 33 68
M  V30 72 1 35 69
M  V30 73 1 36 70
M  V30 74 1 36 71
M  V30 75 1 36 72
M  V30 76 1 37 73
M  V30 77 1 37 74
M  V30 78 1 37 75
M  V30 END BOND
M  V30 END CTAB
M  END
>  <Dataset>  (78) 
ChEMBL_Kinases

>  <Ligand_Instance>  (78) 
nan

>  <PDB_ID>  (78) 
nan

>  <Standardized_SMILES>  (78) 
CC(C)[C@H](N)C(=O)OC[C@H](O)CNc1nc(NCc2ccc(-c3ccccn3)cc2)c2ncn(C(C)C)c2n1

>  <Name>  (78) 
nan

>  <Pocket>  (78) 
nan

>  <ATP_Site>  (78) 
nan

>  <Peripheral>  (78) 
nan

>  <Num_H_Atoms_ProtBoundConf>  (78) 
nan

>  <Num_Resolved_Atoms>  (78) 
nan

>  <Num_Not_Resolved_Atoms>  (78) 
nan

$$$$
CHEMBL2089035
     RDKit          3D

  0  0  0  0  0  0  0  0  0  0999 V3000
M  V30 BEGIN CTAB
M  V30 COUNTS 62 65 0 0 0
M  V30 BEGIN ATOM
M  V30 1 C 2.435697 -2.630370 4.489157 0
M  V30 2 C 3.773663 -2.344875 3.888353 0
M  V30 3 C 4.115355 -3.496971 2.945796 0
M  V30 4 N 3.777107 -1.152536 3.064378 0
M  V30 5 C 4.617922 -0.087614 3.095238 0
M  V30 6 N 4.208019 0.754335 2.127064 0
M  V30 7 C 3.134585 0.205577 1.519992 0
M  V30 8 C 2.399930 0.724270 0.475391 0
M  V30 9 N 2.592792 1.973349 -0.171655 0
M  V30 10 C 1.902302 2.575028 -1.259776 0
M  V30 11 C 0.442702 2.601174 -1.172276 0
M  V30 12 C -0.187489 1.546036 -1.804332 0
M  V30 13 C -1.560575 1.421309 -1.793420 0
M  V30 14 C -2.394194 2.313907 -1.169209 0
M  V30 15 C -3.832693 2.154080 -1.168443 0
M  V30 16 C -4.745091 2.985929 -0.577754 0
M  V30 17 C -6.086537 2.649597 -0.691970 0
M  V30 18 C -6.561664 1.540369 -1.356472 0
M  V30 19 C -5.580509 0.755223 -1.922587 0
M  V30 20 N -4.271647 1.044570 -1.835684 0
M  V30 21 C -1.749857 3.369475 -0.539049 0
M  V30 22 C -0.361908 3.538574 -0.522378 0
M  V30 23 N 1.375491 -0.033342 0.056481 0
M  V30 24 C 1.080891 -1.214800 0.613865 0
M  V30 25 N -0.015644 -2.064332 0.204360 0
M  V30 26 C 0.329261 -3.137787 -0.697222 0
M  V30 27 C -0.806376 -4.029980 -1.081772 0
M  V30 28 C -1.461959 -4.780562 0.015128 0 CFG=2
M  V30 29 O -2.529247 -5.580990 -0.481577 0
M  V30 30 C -2.026905 -3.988624 1.137943 0
M  V30 31 O -3.035886 -3.147744 0.722492 0
M  V30 32 N 1.806811 -1.726593 1.645762 0
M  V30 33 C 2.850804 -1.005097 2.105873 0
M  V30 34 H 2.540866 -3.427128 5.245450 0
M  V30 35 H 1.999330 -1.706947 4.945480 0
M  V30 36 H 1.690740 -2.991666 3.748035 0
M  V30 37 H 4.533825 -2.317351 4.668622 0
M  V30 38 H 3.572361 -3.288110 2.000018 0
M  V30 39 H 5.211154 -3.585921 2.766424 0
M  V30 40 H 3.789361 -4.467156 3.397092 0
M  V30 41 H 5.417532 -0.031981 3.792835 0
M  V30 42 H 3.405863 2.491472 0.285203 0
M  V30 43 H 2.234179 2.125865 -2.234384 0
M  V30 44 H 2.229005 3.639899 -1.335626 0
M  V30 45 H 0.356206 0.760741 -2.356842 0
M  V30 46 H -2.010321 0.560498 -2.312041 0
M  V30 47 H -4.369354 3.853475 -0.057513 0
M  V30 48 H -6.829586 3.303464 -0.225312 0
M  V30 49 H -7.614369 1.304725 -1.428317 0
M  V30 50 H -5.874393 -0.139353 -2.463838 0
M  V30 51 H -2.343812 4.117799 -0.024527 0
M  V30 52 H 0.159976 4.348776 -0.043189 0
M  V30 53 H -0.727306 -1.530632 0.761144 0
M  V30 54 H 1.179852 -3.695014 -0.251396 0
M  V30 55 H 0.755562 -2.689796 -1.639147 0
M  V30 56 H -0.379754 -4.809205 -1.786137 0
M  V30 57 H -1.544808 -3.453288 -1.712665 0
M  V30 58 H -0.718425 -5.520075 0.399907 0
M  V30 59 H -2.991147 -5.915117 0.326787 0
M  V30 60 H -1.294305 -3.516485 1.794013 0
M  V30 61 H -2.549898 -4.760777 1.807236 0
M  V30 62 H -3.264668 -3.213538 -0.245300 0
M  V30 END ATOM
M  V30 BEGIN BOND
M  V30 1 1 1 2
M  V30 2 1 2 3
M  V30 3 1 2 4
M  V30 4 1 4 5
M  V30 5 2 5 6
M  V30 6 1 6 7
M  V30 7 2 7 8
M  V30 8 1 8 9
M  V30 9 1 9 10
M  V30 10 1 10 11
M  V30 11 2 11 12
M  V30 12 1 12 13
M  V30 13 2 13 14
M  V30 14 1 14 15
M  V30 15 2 15 16
M  V30 16 1 16 17
M  V30 17 2 17 18
M  V30 18 1 18 19
M  V30 19 2 19 20
M  V30 20 1 14 21
M  V30 21 2 21 22
M  V30 22 1 8 23
M  V30 23 2 23 24
M  V30 24 1 24 25
M  V30 25 1 25 26
M  V30 26 1 26 27
M  V30 27 1 27 28
M  V30 28 1 28 29
M  V30 29 1 28 30
M  V30 30 1 30 31
M  V30 31 1 24 32
M  V30 32 2 32 33
M  V30 33 1 33 4
M  V30 34 1 33 7
M  V30 35 1 22 11
M  V30 36 1 20 15
M  V30 37 1 1 34
M  V30 38 1 1 35
M  V30 39 1 1 36
M  V30 40 1 2 37
M  V30 41 1 3 38
M  V30 42 1 3 39
M  V30 43 1 3 40
M  V30 44 1 5 41
M  V30 45 1 9 42
M  V30 46 1 10 43
M  V30 47 1 10 44
M  V30 48 1 12 45
M  V30 49 1 13 46
M  V30 50 1 16 47
M  V30 51 1 17 48
M  V30 52 1 18 49
M  V30 53 1 19 50
M  V30 54 1 21 51
M  V30 55 1 22 52
M  V30 56 1 25 53
M  V30 57 1 26 54
M  V30 58 1 26 55
M  V30 59 1 27 56
M  V30 60 1 27 57
M  V30 61 1 28 58 CFG=1
M  V30 62 1 29 59
M  V30 63 1 30 60
M  V30 64 1 30 61
M  V30 65 1 31 62
M  V30 END BOND
M  V30 END CTAB
M  END
>  <Dataset>  (79) 
ChEMBL_Kinases

>  <Ligand_Instance>  (79) 
nan

>  <PDB_ID>  (79) 
nan

>  <Standardized_SMILES>  (79) 
CC(C)n1cnc2c(NCc3ccc(-c4ccccn4)cc3)nc(NCC[C@H](O)CO)nc21

>  <Name>  (79) 
nan

>  <Pocket>  (79) 
nan

>  <ATP_Site>  (79) 
nan

>  <Peripheral>  (79) 
nan

>  <Num_H_Atoms_ProtBoundConf>  (79) 
nan

>  <Num_Resolved_Atoms>  (79) 
nan

>  <Num_Not_Resolved_Atoms>  (79) 
nan

$$$$
CHEMBL2089034
     RDKit          3D

  0  0  0  0  0  0  0  0  0  0999 V3000
M  V30 BEGIN CTAB
M  V30 COUNTS 63 67 0 0 0
M  V30 BEGIN ATOM
M  V30 1 C 5.869746 -3.306549 1.810327 0
M  V30 2 C 4.683618 -3.206658 0.869824 0
M  V30 3 C 5.067771 -3.583491 -0.531858 0
M  V30 4 N 4.152149 -1.865613 0.981076 0
M  V30 5 C 4.657023 -0.817481 1.653524 0
M  V30 6 N 3.826193 0.223504 1.473611 0
M  V30 7 C 2.795228 -0.148865 0.692749 0
M  V30 8 C 1.676824 0.540811 0.212146 0
M  V30 9 N 1.504872 1.888238 0.542444 0
M  V30 10 C 0.539086 2.895579 0.263669 0
M  V30 11 C -0.829878 2.596400 0.798963 0
M  V30 12 C -1.858895 1.982820 0.120572 0
M  V30 13 C -3.078938 1.746793 0.713134 0
M  V30 14 C -3.288224 2.130416 2.019227 0
M  V30 15 C -4.565398 1.896683 2.677072 0
M  V30 16 C -5.646864 1.291676 2.077348 0
M  V30 17 C -6.857986 1.067631 2.693884 0
M  V30 18 C -7.024617 1.466468 3.999181 0
M  V30 19 C -5.941667 2.072085 4.599125 0
M  V30 20 N -4.761359 2.274290 3.952472 0
M  V30 21 C -2.273071 2.746548 2.718255 0
M  V30 22 C -1.026473 2.993483 2.129631 0
M  V30 23 N 0.818381 -0.141398 -0.562431 0
M  V30 24 C 1.023489 -1.452497 -0.871528 0
M  V30 25 N 0.203567 -2.294105 -1.678136 0
M  V30 26 C 0.466961 -3.694330 -2.068133 0
M  V30 27 C -0.805766 -4.382721 -1.557923 0 CFG=2
M  V30 28 O -1.176928 -5.381315 -2.450390 0
M  V30 29 C -1.866158 -3.268960 -1.633784 0
M  V30 30 C -1.057485 -2.225329 -2.389680 0 CFG=1
M  V30 31 C -1.689049 -0.861380 -2.297198 0
M  V30 32 O -0.772103 0.022832 -2.859451 0
M  V30 33 N 2.115243 -2.067353 -0.382856 0
M  V30 34 C 3.020689 -1.464983 0.395272 0
M  V30 35 H 5.499252 -2.902298 2.797518 0
M  V30 36 H 6.688561 -2.614277 1.516097 0
M  V30 37 H 6.183341 -4.333012 2.013740 0
M  V30 38 H 3.941434 -3.960857 1.251317 0
M  V30 39 H 4.842534 -4.655689 -0.721301 0
M  V30 40 H 4.447999 -2.995127 -1.239411 0
M  V30 41 H 6.152143 -3.451102 -0.730903 0
M  V30 42 H 5.567419 -0.798646 2.239311 0
M  V30 43 H 2.271409 2.304314 1.161403 0
M  V30 44 H 0.822089 3.882206 0.617119 0
M  V30 45 H 0.490501 2.960769 -0.868497 0
M  V30 46 H -1.532000 1.756215 -0.881812 0
M  V30 47 H -3.812344 1.266170 0.107287 0
M  V30 48 H -5.574915 0.960366 1.061677 0
M  V30 49 H -7.695525 0.593027 2.211235 0
M  V30 50 H -7.921120 1.352372 4.602787 0
M  V30 51 H -5.896596 2.448162 5.620848 0
M  V30 52 H -2.472464 3.034385 3.742170 0
M  V30 53 H -0.267920 3.475996 2.714870 0
M  V30 54 H 1.366888 -4.098508 -1.583196 0
M  V30 55 H 0.489553 -3.704896 -3.169871 0
M  V30 56 H -0.673849 -4.755228 -0.543763 0
M  V30 57 H -1.121531 -6.245486 -1.961309 0
M  V30 58 H -2.110175 -2.934764 -0.604870 0
M  V30 59 H -2.747996 -3.608042 -2.188923 0
M  V30 60 H -0.991426 -2.549219 -3.435478 0
M  V30 61 H -1.838324 -0.562117 -1.240853 0
M  V30 62 H -2.653955 -0.817149 -2.830081 0
M  V30 63 H -1.008430 0.346636 -3.746953 0
M  V30 END ATOM
M  V30 BEGIN BOND
M  V30 1 1 1 2
M  V30 2 1 2 3
M  V30 3 1 2 4
M  V30 4 1 4 5
M  V30 5 2 5 6
M  V30 6 1 6 7
M  V30 7 2 7 8
M  V30 8 1 8 9
M  V30 9 1 9 10
M  V30 10 1 10 11
M  V30 11 2 11 12
M  V30 12 1 12 13
M  V30 13 2 13 14
M  V30 14 1 14 15
M  V30 15 2 15 16
M  V30 16 1 16 17
M  V30 17 2 17 18
M  V30 18 1 18 19
M  V30 19 2 19 20
M  V30 20 1 14 21
M  V30 21 2 21 22
M  V30 22 1 8 23
M  V30 23 2 23 24
M  V30 24 1 24 25
M  V30 25 1 25 26
M  V30 26 1 26 27
M  V30 27 1 27 28
M  V30 28 1 27 29
M  V30 29 1 29 30
M  V30 30 1 30 31
M  V30 31 1 31 32
M  V30 32 1 24 33
M  V30 33 2 33 34
M  V30 34 1 34 4
M  V30 35 1 34 7
M  V30 36 1 22 11
M  V30 37 1 30 25
M  V30 38 1 20 15
M  V30 39 1 1 35
M  V30 40 1 1 36
M  V30 41 1 1 37
M  V30 42 1 2 38
M  V30 43 1 3 39
M  V30 44 1 3 40
M  V30 45 1 3 41
M  V30 46 1 5 42
M  V30 47 1 9 43
M  V30 48 1 10 44
M  V30 49 1 10 45
M  V30 50 1 12 46
M  V30 51 1 13 47
M  V30 52 1 16 48
M  V30 53 1 17 49
M  V30 54 1 18 50
M  V30 55 1 19 51
M  V30 56 1 21 52
M  V30 57 1 22 53
M  V30 58 1 26 54
M  V30 59 1 26 55
M  V30 60 1 27 56 CFG=1
M  V30 61 1 28 57
M  V30 62 1 29 58
M  V30 63 1 29 59
M  V30 64 1 30 60 CFG=3
M  V30 65 1 31 61
M  V30 66 1 31 62
M  V30 67 1 32 63
M  V30 END BOND
M  V30 END CTAB
M  END
>  <Dataset>  (80) 
ChEMBL_Kinases

>  <Ligand_Instance>  (80) 
nan

>  <PDB_ID>  (80) 
nan

>  <Standardized_SMILES>  (80) 
CC(C)n1cnc2c(NCc3ccc(-c4ccccn4)cc3)nc(N3C[C@H](O)C[C@H]3CO)nc21

>  <Name>  (80) 
nan

>  <Pocket>  (80) 
nan

>  <ATP_Site>  (80) 
nan

>  <Peripheral>  (80) 
nan

>  <Num_H_Atoms_ProtBoundConf>  (80) 
nan

>  <Num_Resolved_Atoms>  (80) 
nan

>  <Num_Not_Resolved_Atoms>  (80) 
nan

$$$$
CHEMBL2089033
     RDKit          3D

  0  0  0  0  0  0  0  0  0  0999 V3000
M  V30 BEGIN CTAB
M  V30 COUNTS 66 70 0 0 0
M  V30 BEGIN ATOM
M  V30 1 C 2.119418 -1.617286 4.826517 0
M  V30 2 C 3.460483 -1.085843 4.372095 0
M  V30 3 C 4.236799 -2.192818 3.715434 0
M  V30 4 N 3.229257 -0.037928 3.423017 0
M  V30 5 C 3.718115 1.232540 3.510917 0
M  V30 6 N 3.267513 1.886012 2.425819 0
M  V30 7 C 2.515737 1.035979 1.683234 0
M  V30 8 C 1.868301 1.306834 0.491668 0
M  V30 9 N 1.848648 2.527210 -0.212391 0
M  V30 10 C 1.216368 2.858046 -1.412438 0
M  V30 11 C -0.227174 2.759305 -1.531842 0
M  V30 12 C -0.963940 1.674248 -1.962102 0
M  V30 13 C -2.357864 1.716496 -2.024449 0
M  V30 14 C -3.061877 2.844414 -1.659026 0
M  V30 15 C -4.514879 2.797753 -1.756656 0
M  V30 16 C -5.334426 3.854835 -1.423065 0
M  V30 17 C -6.726115 3.784296 -1.525903 0
M  V30 18 C -7.248869 2.590548 -1.983295 0
M  V30 19 C -6.426576 1.519630 -2.321710 0
M  V30 20 N -5.073245 1.658015 -2.196650 0
M  V30 21 C -2.346259 3.937732 -1.227065 0
M  V30 22 C -0.978066 3.872728 -1.174283 0
M  V30 23 N 1.190260 0.271429 -0.030245 0
M  V30 24 C 1.125851 -0.945879 0.535942 0
M  V30 25 N 0.384728 -2.033630 -0.054342 0
M  V30 26 C 0.308589 -3.342728 0.535984 0 CFG=2
M  V30 27 C 1.665218 -3.952928 0.640377 0
M  V30 28 C 1.638841 -5.398917 1.057922 0
M  V30 29 C 0.608649 -6.228633 0.363647 0
M  V30 30 C -0.738233 -5.536238 0.310490 0 CFG=2
M  V30 31 O -1.599845 -6.326741 -0.433676 0
M  V30 32 C -0.532899 -4.216246 -0.371340 0 CFG=2
M  V30 33 O 0.228341 -4.462218 -1.522705 0
M  V30 34 N 1.778073 -1.144250 1.695314 0
M  V30 35 C 2.476275 -0.196177 2.297790 0
M  V30 36 H 1.698653 -2.211197 4.006690 0
M  V30 37 H 2.198976 -2.187617 5.782463 0
M  V30 38 H 1.469711 -0.738983 5.041298 0
M  V30 39 H 4.010437 -0.682204 5.262376 0
M  V30 40 H 3.516558 -2.960286 3.368194 0
M  V30 41 H 4.985458 -2.605816 4.421901 0
M  V30 42 H 4.757350 -1.776053 2.829366 0
M  V30 43 H 4.339203 1.608559 4.303937 0
M  V30 44 H 2.420894 3.267036 0.301674 0
M  V30 45 H 1.503910 3.877851 -1.741209 0
M  V30 46 H 1.650038 2.191608 -2.219183 0
M  V30 47 H -0.408197 0.795186 -2.249140 0
M  V30 48 H -2.822371 0.806375 -2.376775 0
M  V30 49 H -4.909770 4.766771 -1.072070 0
M  V30 50 H -7.371409 4.601485 -1.268725 0
M  V30 51 H -8.326537 2.512866 -2.071208 0
M  V30 52 H -6.833861 0.582468 -2.680650 0
M  V30 53 H -2.877097 4.821991 -0.939299 0
M  V30 54 H -0.481815 4.769750 -0.824792 0
M  V30 55 H -0.102936 -1.804891 -0.956036 0
M  V30 56 H -0.221482 -3.272125 1.510119 0
M  V30 57 H 2.133422 -3.895657 -0.367576 0
M  V30 58 H 2.322335 -3.420613 1.336380 0
M  V30 59 H 1.528901 -5.518982 2.168571 0
M  V30 60 H 2.642073 -5.837297 0.839999 0
M  V30 61 H 0.896543 -6.479000 -0.681393 0
M  V30 62 H 0.493083 -7.173815 0.931235 0
M  V30 63 H -1.167040 -5.391252 1.308704 0
M  V30 64 H -2.542985 -6.016428 -0.303647 0
M  V30 65 H -1.454252 -3.657512 -0.592806 0
M  V30 66 H -0.246209 -4.956108 -2.214146 0
M  V30 END ATOM
M  V30 BEGIN BOND
M  V30 1 1 1 2
M  V30 2 1 2 3
M  V30 3 1 2 4
M  V30 4 1 4 5
M  V30 5 2 5 6
M  V30 6 1 6 7
M  V30 7 2 7 8
M  V30 8 1 8 9
M  V30 9 1 9 10
M  V30 10 1 10 11
M  V30 11 2 11 12
M  V30 12 1 12 13
M  V30 13 2 13 14
M  V30 14 1 14 15
M  V30 15 2 15 16
M  V30 16 1 16 17
M  V30 17 2 17 18
M  V30 18 1 18 19
M  V30 19 2 19 20
M  V30 20 1 14 21
M  V30 21 2 21 22
M  V30 22 1 8 23
M  V30 23 2 23 24
M  V30 24 1 24 25
M  V30 25 1 25 26
M  V30 26 1 26 27
M  V30 27 1 27 28
M  V30 28 1 28 29
M  V30 29 1 29 30
M  V30 30 1 30 31
M  V30 31 1 30 32
M  V30 32 1 32 33
M  V30 33 1 24 34
M  V30 34 2 34 35
M  V30 35 1 35 4
M  V30 36 1 35 7
M  V30 37 1 22 11
M  V30 38 1 32 26
M  V30 39 1 20 15
M  V30 40 1 1 36
M  V30 41 1 1 37
M  V30 42 1 1 38
M  V30 43 1 2 39
M  V30 44 1 3 40
M  V30 45 1 3 41
M  V30 46 1 3 42
M  V30 47 1 5 43
M  V30 48 1 9 44
M  V30 49 1 10 45
M  V30 50 1 10 46
M  V30 51 1 12 47
M  V30 52 1 13 48
M  V30 53 1 16 49
M  V30 54 1 17 50
M  V30 55 1 18 51
M  V30 56 1 19 52
M  V30 57 1 21 53
M  V30 58 1 22 54
M  V30 59 1 25 55
M  V30 60 1 26 56 CFG=1
M  V30 61 1 27 57
M  V30 62 1 27 58
M  V30 63 1 28 59
M  V30 64 1 28 60
M  V30 65 1 29 61
M  V30 66 1 29 62
M  V30 67 1 30 63 CFG=1
M  V30 68 1 31 64
M  V30 69 1 32 65 CFG=3
M  V30 70 1 33 66
M  V30 END BOND
M  V30 END CTAB
M  END
>  <Dataset>  (81) 
ChEMBL_Kinases

>  <Ligand_Instance>  (81) 
nan

>  <PDB_ID>  (81) 
nan

>  <Standardized_SMILES>  (81) 
CC(C)n1cnc2c(NCc3ccc(-c4ccccn4)cc3)nc(N[C@@H]3CCC[C@H](O)[C@@H]3O)nc21

>  <Name>  (81) 
nan

>  <Pocket>  (81) 
nan

>  <ATP_Site>  (81) 
nan

>  <Peripheral>  (81) 
nan

>  <Num_H_Atoms_ProtBoundConf>  (81) 
nan

>  <Num_Resolved_Atoms>  (81) 
nan

>  <Num_Not_Resolved_Atoms>  (81) 
nan

$$$$
CHEMBL2088998
     RDKit          3D

  0  0  0  0  0  0  0  0  0  0999 V3000
M  V30 BEGIN CTAB
M  V30 COUNTS 34 37 0 0 0
M  V30 BEGIN ATOM
M  V30 1 C 0.026901 -4.914529 3.682005 0
M  V30 2 O -0.256685 -4.030716 2.625913 0
M  V30 3 C 0.282250 -2.763857 2.489596 0
M  V30 4 O 1.077563 -2.427139 3.403448 0
M  V30 5 C -0.038401 -1.879508 1.379075 0
M  V30 6 C 0.556195 -0.638140 1.342243 0
M  V30 7 C 0.253765 0.205941 0.287462 0
M  V30 8 C -0.615430 -0.138749 -0.728201 0
M  V30 9 N -0.733684 0.855557 -1.623919 0
M  V30 10 C 0.049004 1.875160 -1.225343 0
M  V30 11 C 0.340215 3.129868 -1.713922 0
M  V30 12 C 1.198481 4.031511 -1.119402 0
M  V30 13 C 1.809112 3.619468 0.070107 0
M  V30 14 C 1.527348 2.366118 0.571460 0
M  V30 15 N 2.204668 2.039004 1.796298 0
M  V30 16 C 0.664750 1.479287 -0.040157 0
M  V30 17 C -1.197865 -1.388358 -0.667654 0
M  V30 18 N -2.068299 -1.991897 -1.496772 0
M  V30 19 C -2.351841 -3.233793 -1.006331 0
M  V30 20 C -1.629985 -3.395568 0.163132 0
M  V30 21 C -0.909859 -2.241631 0.372792 0
M  V30 22 H 0.383460 -4.394693 4.600966 0
M  V30 23 H 0.825787 -5.614093 3.363430 0
M  V30 24 H -0.838995 -5.547288 3.968135 0
M  V30 25 H 1.232601 -0.357401 2.123539 0
M  V30 26 H -1.297641 0.913486 -2.487772 0
M  V30 27 H -0.149651 3.415226 -2.635280 0
M  V30 28 H 1.360095 4.993999 -1.584191 0
M  V30 29 H 2.482079 4.329203 0.534246 0
M  V30 30 H 1.439433 2.004705 2.512891 0
M  V30 31 H 1.551707 1.969552 2.616748 0
M  V30 32 H -2.478918 -1.603604 -2.377540 0
M  V30 33 H -3.043359 -3.926561 -1.509849 0
M  V30 34 H -1.656409 -4.284047 0.771087 0
M  V30 END ATOM
M  V30 BEGIN BOND
M  V30 1 1 1 2
M  V30 2 1 2 3
M  V30 3 2 3 4
M  V30 4 1 3 5
M  V30 5 2 5 6
M  V30 6 1 6 7
M  V30 7 2 7 8
M  V30 8 1 8 9
M  V30 9 1 9 10
M  V30 10 2 10 11
M  V30 11 1 11 12
M  V30 12 2 12 13
M  V30 13 1 13 14
M  V30 14 1 14 15
M  V30 15 2 14 16
M  V30 16 1 8 17
M  V30 17 1 17 18
M  V30 18 1 18 19
M  V30 19 2 19 20
M  V30 20 1 20 21
M  V30 21 1 21 5
M  V30 22 1 16 7
M  V30 23 2 21 17
M  V30 24 1 16 10
M  V30 25 1 1 22
M  V30 26 1 1 23
M  V30 27 1 1 24
M  V30 28 1 6 25
M  V30 29 1 9 26
M  V30 30 1 11 27
M  V30 31 1 12 28
M  V30 32 1 13 29
M  V30 33 1 15 30
M  V30 34 1 15 31
M  V30 35 1 18 32
M  V30 36 1 19 33
M  V30 37 1 20 34
M  V30 END BOND
M  V30 END CTAB
M  END
>  <Dataset>  (82) 
ChEMBL_Kinases

>  <Ligand_Instance>  (82) 
nan

>  <PDB_ID>  (82) 
nan

>  <Standardized_SMILES>  (82) 
COC(=O)c1cc2c([nH]c3cccc(N)c32)c2[nH]ccc12

>  <Name>  (82) 
nan

>  <Pocket>  (82) 
nan

>  <ATP_Site>  (82) 
nan

>  <Peripheral>  (82) 
nan

>  <Num_H_Atoms_ProtBoundConf>  (82) 
nan

>  <Num_Resolved_Atoms>  (82) 
nan

>  <Num_Not_Resolved_Atoms>  (82) 
nan

$$$$
CHEMBL2088658
     RDKit          3D

  0  0  0  0  0  0  0  0  0  0999 V3000
M  V30 BEGIN CTAB
M  V30 COUNTS 24 26 0 0 0
M  V30 BEGIN ATOM
M  V30 1 C -1.450200 -0.980035 2.635494 0
M  V30 2 C -0.106977 -1.409402 2.163706 0
M  V30 3 N 0.451253 -2.509775 2.698012 0
M  V30 4 N 1.636771 -2.990264 2.361480 0
M  V30 5 C 2.381213 -2.375049 1.423457 0
M  V30 6 O 3.515058 -2.786142 1.063180 0
M  V30 7 C 1.854772 -1.239111 0.841747 0
M  V30 8 N 2.349415 -0.410740 -0.114017 0
M  V30 9 C 1.467883 0.575321 -0.362044 0
M  V30 10 C 1.506742 1.648142 -1.235649 0
M  V30 11 C 0.419367 2.491690 -1.246077 0
M  V30 12 C -0.681309 2.307790 -0.434311 0
M  V30 13 F -1.712693 3.180676 -0.501850 0
M  V30 14 C -0.713568 1.230302 0.438994 0
M  V30 15 C 0.356006 0.384429 0.462013 0
M  V30 16 C 0.616112 -0.746958 1.201198 0
M  V30 17 H -1.855358 -1.724731 3.383763 0
M  V30 18 H -1.459821 0.015066 3.113028 0
M  V30 19 H -2.179004 -1.015440 1.799530 0
M  V30 20 H 2.019802 -3.866871 2.824444 0
M  V30 21 H 3.274778 -0.520208 -0.587198 0
M  V30 22 H 2.355468 1.823244 -1.887989 0
M  V30 23 H 0.407285 3.358003 -1.925244 0
M  V30 24 H -1.600858 1.151811 1.038345 0
M  V30 END ATOM
M  V30 BEGIN BOND
M  V30 1 1 1 2
M  V30 2 2 2 3
M  V30 3 1 3 4
M  V30 4 1 4 5
M  V30 5 2 5 6
M  V30 6 1 5 7
M  V30 7 1 7 8
M  V30 8 1 8 9
M  V30 9 2 9 10
M  V30 10 1 10 11
M  V30 11 2 11 12
M  V30 12 1 12 13
M  V30 13 1 12 14
M  V30 14 2 14 15
M  V30 15 1 15 16
M  V30 16 1 16 2
M  V30 17 2 16 7
M  V30 18 1 15 9
M  V30 19 1 1 17
M  V30 20 1 1 18
M  V30 21 1 1 19
M  V30 22 1 4 20
M  V30 23 1 8 21
M  V30 24 1 10 22
M  V30 25 1 11 23
M  V30 26 1 14 24
M  V30 END BOND
M  V30 END CTAB
M  END
>  <Dataset>  (83) 
ChEMBL_Kinases

>  <Ligand_Instance>  (83) 
nan

>  <PDB_ID>  (83) 
nan

>  <Standardized_SMILES>  (83) 
Cc1n[nH]c(=O)c2[nH]c3ccc(F)cc3c12

>  <Name>  (83) 
nan

>  <Pocket>  (83) 
nan

>  <ATP_Site>  (83) 
nan

>  <Peripheral>  (83) 
nan

>  <Num_H_Atoms_ProtBoundConf>  (83) 
nan

>  <Num_Resolved_Atoms>  (83) 
nan

>  <Num_Not_Resolved_Atoms>  (83) 
nan

$$$$
CHEMBL2088224
     RDKit          3D

  0  0  0  0  0  0  0  0  0  0999 V3000
M  V30 BEGIN CTAB
M  V30 COUNTS 47 51 0 0 0
M  V30 BEGIN ATOM
M  V30 1 C -0.336204 -5.093193 -1.629095 0
M  V30 2 C 0.570877 -4.207581 -0.815909 0
M  V30 3 C 1.615491 -4.699258 -0.058716 0
M  V30 4 C 2.434840 -3.896698 0.682486 0
M  V30 5 C 2.242153 -2.522155 0.702825 0
M  V30 6 C 1.191697 -2.064027 -0.062937 0
M  V30 7 C 0.799086 -0.677244 -0.175388 0
M  V30 8 S 1.658300 0.943894 -0.641630 0
M  V30 9 C 0.131611 1.872468 -0.374804 0
M  V30 10 N 0.330660 3.319947 -0.640638 0
M  V30 11 C 0.256534 4.355936 0.368290 0
M  V30 12 C 1.258330 4.060770 1.420344 0
M  V30 13 C 0.809897 3.540208 2.620441 0
M  V30 14 C 1.726555 3.277455 3.604835 0
M  V30 15 C 3.053407 3.542176 3.356896 0
M  V30 16 C 3.524878 4.061559 2.165094 0
M  V30 17 C 2.582550 4.327463 1.163762 0
M  V30 18 F 2.956269 4.836732 -0.039372 0
M  V30 19 N -0.711643 1.114619 -0.039501 0
M  V30 20 C -0.527893 -0.187808 0.103541 0
M  V30 21 C -1.591501 -1.132740 0.512711 0
M  V30 22 C -2.815659 -1.200766 -0.135966 0
M  V30 23 C -3.731220 -2.118065 0.300153 0
M  V30 24 C -3.451606 -2.953047 1.352136 0
M  V30 25 N -4.214598 -3.907593 1.907407 0
M  V30 26 C -3.472362 -4.448072 2.910718 0
M  V30 27 N -2.266725 -3.827635 2.967508 0
M  V30 28 N -2.260024 -2.913103 2.011092 0
M  V30 29 C -1.381237 -1.990667 1.549094 0
M  V30 30 N 0.382683 -2.881511 -0.798500 0
M  V30 31 H -0.662293 -5.977550 -1.041583 0
M  V30 32 H -1.253886 -4.504290 -1.867967 0
M  V30 33 H 0.116440 -5.355527 -2.602809 0
M  V30 34 H 1.779219 -5.772721 -0.062598 0
M  V30 35 H 3.263864 -4.283641 1.283676 0
M  V30 36 H 2.828760 -1.800469 1.252475 0
M  V30 37 H 0.532271 3.572433 -1.621599 0
M  V30 38 H -0.769761 4.314914 0.811625 0
M  V30 39 H 0.436639 5.351696 -0.085102 0
M  V30 40 H -0.253126 3.359253 2.732969 0
M  V30 41 H 1.368353 2.872721 4.536012 0
M  V30 42 H 3.806869 3.350045 4.111825 0
M  V30 43 H 4.559985 4.275285 1.952649 0
M  V30 44 H -2.940100 -0.496230 -0.957861 0
M  V30 45 H -4.660399 -2.127747 -0.234476 0
M  V30 46 H -3.891834 -5.258396 3.514177 0
M  V30 47 H -0.436060 -1.996113 2.113303 0
M  V30 END ATOM
M  V30 BEGIN BOND
M  V30 1 1 1 2
M  V30 2 2 2 3
M  V30 3 1 3 4
M  V30 4 2 4 5
M  V30 5 1 5 6
M  V30 6 1 6 7
M  V30 7 1 7 8
M  V30 8 1 8 9
M  V30 9 1 9 10
M  V30 10 1 10 11
M  V30 11 1 11 12
M  V30 12 2 12 13
M  V30 13 1 13 14
M  V30 14 2 14 15
M  V30 15 1 15 16
M  V30 16 2 16 17
M  V30 17 1 17 18
M  V30 18 2 9 19
M  V30 19 1 19 20
M  V30 20 1 20 21
M  V30 21 1 21 22
M  V30 22 2 22 23
M  V30 23 1 23 24
M  V30 24 2 24 25
M  V30 25 1 25 26
M  V30 26 2 26 27
M  V30 27 1 27 28
M  V30 28 1 28 29
M  V30 29 2 6 30
M  V30 30 1 30 2
M  V30 31 2 20 7
M  V30 32 2 29 21
M  V30 33 1 17 12
M  V30 34 1 28 24
M  V30 35 1 1 31
M  V30 36 1 1 32
M  V30 37 1 1 33
M  V30 38 1 3 34
M  V30 39 1 4 35
M  V30 40 1 5 36
M  V30 41 1 10 37
M  V30 42 1 11 38
M  V30 43 1 11 39
M  V30 44 1 13 40
M  V30 45 1 14 41
M  V30 46 1 15 42
M  V30 47 1 16 43
M  V30 48 1 22 44
M  V30 49 1 23 45
M  V30 50 1 26 46
M  V30 51 1 29 47
M  V30 END BOND
M  V30 END CTAB
M  END
>  <Dataset>  (84) 
ChEMBL_Kinases

>  <Ligand_Instance>  (84) 
nan

>  <PDB_ID>  (84) 
nan

>  <Standardized_SMILES>  (84) 
Cc1cccc(-c2sc(NCc3ccccc3F)nc2-c2ccc3ncnn3c2)n1

>  <Name>  (84) 
nan

>  <Pocket>  (84) 
nan

>  <ATP_Site>  (84) 
nan

>  <Peripheral>  (84) 
nan

>  <Num_H_Atoms_ProtBoundConf>  (84) 
nan

>  <Num_Resolved_Atoms>  (84) 
nan

>  <Num_Not_Resolved_Atoms>  (84) 
nan

$$$$
CHEMBL2088223
     RDKit          3D

  0  0  0  0  0  0  0  0  0  0999 V3000
M  V30 BEGIN CTAB
M  V30 COUNTS 51 55 0 0 0
M  V30 BEGIN ATOM
M  V30 1 C 4.074067 -4.938758 1.222238 0
M  V30 2 C 3.447816 -3.976365 2.147283 0
M  V30 3 C 3.261198 -4.264096 3.490817 0
M  V30 4 C 2.673939 -3.353491 4.341617 0
M  V30 5 C 2.258390 -2.119110 3.846374 0
M  V30 6 C 2.456720 -1.867538 2.519483 0
M  V30 7 C 2.056030 -0.586965 1.869599 0
M  V30 8 S 2.561948 1.156546 2.160787 0
M  V30 9 C 1.384243 1.730214 0.754477 0
M  V30 10 N 1.367727 3.182395 0.506632 0
M  V30 11 C 0.528121 3.741424 -0.518489 0
M  V30 12 C -0.891977 3.431689 -0.211866 0
M  V30 13 C -1.477940 4.413928 0.595754 0
M  V30 14 C -2.796581 4.312790 0.990871 0
M  V30 15 C -3.591810 3.242731 0.608223 0
M  V30 16 C -2.978060 2.294387 -0.188275 0
M  V30 17 C -3.683562 1.098619 -0.680082 0
M  V30 18 N -5.064330 0.920833 -0.313462 0
M  V30 19 O -3.247574 0.180604 -1.394698 0
M  V30 20 C -1.665045 2.375613 -0.593681 0
M  V30 21 N 0.934553 0.758186 0.404821 0
M  V30 22 C 1.155491 -0.465021 0.844051 0
M  V30 23 C 0.464669 -1.633359 0.254603 0
M  V30 24 C -0.360968 -2.322408 1.147333 0
M  V30 25 C -1.071995 -3.447838 0.718451 0
M  V30 26 C -0.891869 -3.798211 -0.603636 0
M  V30 27 N -1.453539 -4.836468 -1.277526 0
M  V30 28 C -0.989578 -4.793363 -2.553541 0
M  V30 29 N -0.149037 -3.725556 -2.638373 0
M  V30 30 N -0.093201 -3.124573 -1.451372 0
M  V30 31 C 0.600943 -2.037465 -1.058753 0
M  V30 32 N 3.035455 -2.776167 1.701955 0
M  V30 33 H 4.677418 -5.703995 1.778820 0
M  V30 34 H 4.801777 -4.395065 0.586839 0
M  V30 35 H 3.332995 -5.465876 0.596888 0
M  V30 36 H 3.576536 -5.217072 3.896690 0
M  V30 37 H 2.519665 -3.564122 5.402303 0
M  V30 38 H 1.790644 -1.352064 4.446514 0
M  V30 39 H 1.955043 3.851535 1.056404 0
M  V30 40 H 0.699233 4.818790 -0.667353 0
M  V30 41 H 0.762399 3.235453 -1.493756 0
M  V30 42 H -0.992253 5.315978 0.982288 0
M  V30 43 H -3.291536 5.057810 1.620850 0
M  V30 44 H -4.630097 3.118782 0.892137 0
M  V30 45 H -5.851702 1.610460 -0.296419 0
M  V30 46 H -5.613344 0.113694 0.011038 0
M  V30 47 H -1.147590 1.667967 -1.210853 0
M  V30 48 H -0.495186 -2.040919 2.178309 0
M  V30 49 H -1.724315 -4.013319 1.376160 0
M  V30 50 H -1.231630 -5.478888 -3.379677 0
M  V30 51 H 1.255396 -1.459066 -1.694135 0
M  V30 END ATOM
M  V30 BEGIN BOND
M  V30 1 1 1 2
M  V30 2 2 2 3
M  V30 3 1 3 4
M  V30 4 2 4 5
M  V30 5 1 5 6
M  V30 6 1 6 7
M  V30 7 1 7 8
M  V30 8 1 8 9
M  V30 9 1 9 10
M  V30 10 1 10 11
M  V30 11 1 11 12
M  V30 12 2 12 13
M  V30 13 1 13 14
M  V30 14 2 14 15
M  V30 15 1 15 16
M  V30 16 1 16 17
M  V30 17 1 17 18
M  V30 18 2 17 19
M  V30 19 2 16 20
M  V30 20 2 9 21
M  V30 21 1 21 22
M  V30 22 1 22 23
M  V30 23 1 23 24
M  V30 24 2 24 25
M  V30 25 1 25 26
M  V30 26 2 26 27
M  V30 27 1 27 28
M  V30 28 2 28 29
M  V30 29 1 29 30
M  V30 30 1 30 31
M  V30 31 2 6 32
M  V30 32 1 32 2
M  V30 33 2 22 7
M  V30 34 2 31 23
M  V30 35 1 20 12
M  V30 36 1 30 26
M  V30 37 1 1 33
M  V30 38 1 1 34
M  V30 39 1 1 35
M  V30 40 1 3 36
M  V30 41 1 4 37
M  V30 42 1 5 38
M  V30 43 1 10 39
M  V30 44 1 11 40
M  V30 45 1 11 41
M  V30 46 1 13 42
M  V30 47 1 14 43
M  V30 48 1 15 44
M  V30 49 1 18 45
M  V30 50 1 18 46
M  V30 51 1 20 47
M  V30 52 1 24 48
M  V30 53 1 25 49
M  V30 54 1 28 50
M  V30 55 1 31 51
M  V30 END BOND
M  V30 END CTAB
M  END
>  <Dataset>  (85) 
ChEMBL_Kinases

>  <Ligand_Instance>  (85) 
nan

>  <PDB_ID>  (85) 
nan

>  <Standardized_SMILES>  (85) 
Cc1cccc(-c2sc(NCc3cccc(C(N)=O)c3)nc2-c2ccc3ncnn3c2)n1

>  <Name>  (85) 
nan

>  <Pocket>  (85) 
nan

>  <ATP_Site>  (85) 
nan

>  <Peripheral>  (85) 
nan

>  <Num_H_Atoms_ProtBoundConf>  (85) 
nan

>  <Num_Resolved_Atoms>  (85) 
nan

>  <Num_Not_Resolved_Atoms>  (85) 
nan

$$$$
CHEMBL2088222
     RDKit          3D

  0  0  0  0  0  0  0  0  0  0999 V3000
M  V30 BEGIN CTAB
M  V30 COUNTS 48 52 0 0 0
M  V30 BEGIN ATOM
M  V30 1 C -3.099909 -1.968618 4.268211 0
M  V30 2 C -1.672192 -1.576535 4.185626 0
M  V30 3 C -0.908452 -1.529397 5.308152 0
M  V30 4 C 0.409880 -1.157238 5.144167 0
M  V30 5 C 0.902914 -0.850599 3.870502 0
M  V30 6 C 0.096742 -0.908262 2.742266 0
M  V30 7 C 0.554351 -0.610183 1.451871 0
M  V30 8 S 1.256008 0.821574 0.678205 0
M  V30 9 C 1.469156 0.107701 -0.962224 0
M  V30 10 N 2.009685 0.759519 -2.105082 0
M  V30 11 C 2.515502 2.090768 -2.306939 0
M  V30 12 C 1.477766 3.108711 -2.039851 0
M  V30 13 C 1.349061 3.758131 -0.833011 0
M  V30 14 C 0.368558 4.695194 -0.591451 0
M  V30 15 C -0.546447 5.033540 -1.564820 0
M  V30 16 C -0.441445 4.392385 -2.799741 0
M  V30 17 C -1.414138 4.769727 -3.796927 0
M  V30 18 N -2.178551 5.087153 -4.588473 0
M  V30 19 C 0.555506 3.462960 -2.992177 0
M  V30 20 N 1.028778 -1.095498 -0.849765 0
M  V30 21 C 0.581193 -1.444978 0.333929 0
M  V30 22 C 0.077274 -2.839235 0.431778 0
M  V30 23 C -0.976370 -3.343854 -0.303916 0
M  V30 24 C -1.359542 -4.664105 -0.123444 0
M  V30 25 C -0.646746 -5.419871 0.806456 0
M  V30 26 N -0.835664 -6.725810 1.153669 0
M  V30 27 C 0.101533 -7.018486 2.100030 0
M  V30 28 N 0.826047 -5.900072 2.301603 0
M  V30 29 N 0.386037 -4.915283 1.523306 0
M  V30 30 C 0.740177 -3.631191 1.331398 0
M  V30 31 N -1.187250 -1.277996 2.956677 0
M  V30 32 H -3.726338 -1.381295 3.565474 0
M  V30 33 H -3.259018 -3.044284 4.042058 0
M  V30 34 H -3.502045 -1.797768 5.282571 0
M  V30 35 H -1.296649 -1.768952 6.290434 0
M  V30 36 H 1.093559 -1.089714 5.966527 0
M  V30 37 H 1.931672 -0.553986 3.695686 0
M  V30 38 H 2.045001 0.150882 -2.955492 0
M  V30 39 H 3.409767 2.228562 -1.653032 0
M  V30 40 H 2.855649 2.249265 -3.332548 0
M  V30 41 H 2.024964 3.571352 -0.011605 0
M  V30 42 H 0.259010 5.218079 0.370817 0
M  V30 43 H -1.317299 5.768298 -1.380083 0
M  V30 44 H 0.555280 3.016934 -3.990188 0
M  V30 45 H -1.450989 -2.668836 -0.990163 0
M  V30 46 H -2.176015 -5.035574 -0.700217 0
M  V30 47 H 0.286519 -7.948065 2.629451 0
M  V30 48 H 1.571495 -3.292264 1.935011 0
M  V30 END ATOM
M  V30 BEGIN BOND
M  V30 1 1 1 2
M  V30 2 2 2 3
M  V30 3 1 3 4
M  V30 4 2 4 5
M  V30 5 1 5 6
M  V30 6 1 6 7
M  V30 7 1 7 8
M  V30 8 1 8 9
M  V30 9 1 9 10
M  V30 10 1 10 11
M  V30 11 1 11 12
M  V30 12 2 12 13
M  V30 13 1 13 14
M  V30 14 2 14 15
M  V30 15 1 15 16
M  V30 16 1 16 17
M  V30 17 3 17 18
M  V30 18 2 16 19
M  V30 19 2 9 20
M  V30 20 1 20 21
M  V30 21 1 21 22
M  V30 22 1 22 23
M  V30 23 2 23 24
M  V30 24 1 24 25
M  V30 25 2 25 26
M  V30 26 1 26 27
M  V30 27 2 27 28
M  V30 28 1 28 29
M  V30 29 1 29 30
M  V30 30 2 6 31
M  V30 31 1 31 2
M  V30 32 2 21 7
M  V30 33 2 30 22
M  V30 34 1 19 12
M  V30 35 1 29 25
M  V30 36 1 1 32
M  V30 37 1 1 33
M  V30 38 1 1 34
M  V30 39 1 3 35
M  V30 40 1 4 36
M  V30 41 1 5 37
M  V30 42 1 10 38
M  V30 43 1 11 39
M  V30 44 1 11 40
M  V30 45 1 13 41
M  V30 46 1 14 42
M  V30 47 1 15 43
M  V30 48 1 19 44
M  V30 49 1 23 45
M  V30 50 1 24 46
M  V30 51 1 27 47
M  V30 52 1 30 48
M  V30 END BOND
M  V30 END CTAB
M  END
>  <Dataset>  (86) 
ChEMBL_Kinases

>  <Ligand_Instance>  (86) 
nan

>  <PDB_ID>  (86) 
nan

>  <Standardized_SMILES>  (86) 
Cc1cccc(-c2sc(NCc3cccc(C#N)c3)nc2-c2ccc3ncnn3c2)n1

>  <Name>  (86) 
nan

>  <Pocket>  (86) 
nan

>  <ATP_Site>  (86) 
nan

>  <Peripheral>  (86) 
nan

>  <Num_H_Atoms_ProtBoundConf>  (86) 
nan

>  <Num_Resolved_Atoms>  (86) 
nan

>  <Num_Not_Resolved_Atoms>  (86) 
nan

$$$$
CHEMBL2088220
     RDKit          3D

  0  0  0  0  0  0  0  0  0  0999 V3000
M  V30 BEGIN CTAB
M  V30 COUNTS 51 55 0 0 0
M  V30 BEGIN ATOM
M  V30 1 C -3.070353 -2.000933 -6.637688 0
M  V30 2 C -2.005678 -2.212290 -5.592976 0
M  V30 3 C -0.979282 -3.129900 -5.833530 0
M  V30 4 C 0.011702 -3.346298 -4.890661 0
M  V30 5 C -0.079108 -2.614772 -3.727934 0
M  V30 6 C -1.080620 -1.705109 -3.469001 0
M  V30 7 C -1.225166 -0.905433 -2.259782 0
M  V30 8 N -2.176377 -0.978089 -1.376111 0
M  V30 9 C -2.331532 -0.381792 -0.419407 0
M  V30 10 N -3.261162 -0.289222 0.664347 0
M  V30 11 C -3.352666 0.503750 1.847667 0
M  V30 12 C -2.200917 0.343081 2.773657 0
M  V30 13 C -1.105011 1.171064 2.836976 0
M  V30 14 C -0.113549 0.860775 3.741741 0
M  V30 15 C -0.297080 -0.262439 4.519481 0
M  V30 16 C 0.790199 -0.511507 5.441049 0
M  V30 17 N 0.737532 -1.642603 6.296879 0
M  V30 18 O 1.854474 -0.387571 6.053837 0
M  V30 19 C -1.366669 -1.127176 4.502516 0
M  V30 20 C -2.339652 -0.790522 3.588541 0
M  V30 21 S -0.817441 0.761680 -0.456262 0
M  V30 22 C -0.214451 0.032919 -2.050642 0
M  V30 23 C 1.028511 0.556068 -2.630498 0
M  V30 24 C 2.221884 -0.055411 -2.811153 0
M  V30 25 C 3.281853 0.618143 -3.381356 0
M  V30 26 C 3.080766 1.941629 -3.762028 0
M  V30 27 N 3.917264 2.851623 -4.337933 0
M  V30 28 C 3.265694 4.024403 -4.520789 0
M  V30 29 N 2.010675 3.841149 -4.053614 0
M  V30 30 N 1.900883 2.594561 -3.599409 0
M  V30 31 C 0.909141 1.889664 -3.040476 0
M  V30 32 N -2.023575 -1.535867 -4.430224 0
M  V30 33 H -3.994879 -2.571468 -6.354600 0
M  V30 34 H -2.715023 -2.434073 -7.583748 0
M  V30 35 H -3.377000 -0.956859 -6.717548 0
M  V30 36 H -0.940532 -3.696142 -6.774601 0
M  V30 37 H 0.827161 -4.041507 -5.021945 0
M  V30 38 H 0.667950 -2.751259 -2.959565 0
M  V30 39 H -4.035280 -0.960339 0.540324 0
M  V30 40 H -3.290820 1.584401 1.503826 0
M  V30 41 H -4.314092 0.436819 2.352296 0
M  V30 42 H -1.063451 2.025843 2.194192 0
M  V30 43 H 0.757098 1.458643 3.839753 0
M  V30 44 H 0.704555 -2.523345 6.845268 0
M  V30 45 H 0.734216 -2.706100 6.293266 0
M  V30 46 H -1.379706 -1.963231 5.160228 0
M  V30 47 H -3.196939 -1.462151 3.557420 0
M  V30 48 H 2.271433 -1.061863 -2.483602 0
M  V30 49 H 4.220784 0.107092 -3.512940 0
M  V30 50 H 3.719322 4.913494 -4.964567 0
M  V30 51 H -0.017680 2.460876 -2.932911 0
M  V30 END ATOM
M  V30 BEGIN BOND
M  V30 1 1 1 2
M  V30 2 2 2 3
M  V30 3 1 3 4
M  V30 4 2 4 5
M  V30 5 1 5 6
M  V30 6 1 6 7
M  V30 7 1 7 8
M  V30 8 2 8 9
M  V30 9 1 9 10
M  V30 10 1 10 11
M  V30 11 1 11 12
M  V30 12 2 12 13
M  V30 13 1 13 14
M  V30 14 2 14 15
M  V30 15 1 15 16
M  V30 16 1 16 17
M  V30 17 2 16 18
M  V30 18 1 15 19
M  V30 19 2 19 20
M  V30 20 1 9 21
M  V30 21 1 21 22
M  V30 22 1 22 23
M  V30 23 1 23 24
M  V30 24 2 24 25
M  V30 25 1 25 26
M  V30 26 2 26 27
M  V30 27 1 27 28
M  V30 28 2 28 29
M  V30 29 1 29 30
M  V30 30 1 30 31
M  V30 31 2 6 32
M  V30 32 1 32 2
M  V30 33 2 22 7
M  V30 34 2 31 23
M  V30 35 1 20 12
M  V30 36 1 30 26
M  V30 37 1 1 33
M  V30 38 1 1 34
M  V30 39 1 1 35
M  V30 40 1 3 36
M  V30 41 1 4 37
M  V30 42 1 5 38
M  V30 43 1 10 39
M  V30 44 1 11 40
M  V30 45 1 11 41
M  V30 46 1 13 42
M  V30 47 1 14 43
M  V30 48 1 17 44
M  V30 49 1 17 45
M  V30 50 1 19 46
M  V30 51 1 20 47
M  V30 52 1 24 48
M  V30 53 1 25 49
M  V30 54 1 28 50
M  V30 55 1 31 51
M  V30 END BOND
M  V30 END CTAB
M  END
>  <Dataset>  (87) 
ChEMBL_Kinases

>  <Ligand_Instance>  (87) 
nan

>  <PDB_ID>  (87) 
nan

>  <Standardized_SMILES>  (87) 
Cc1cccc(-c2nc(NCc3ccc(C(N)=O)cc3)sc2-c2ccc3ncnn3c2)n1

>  <Name>  (87) 
nan

>  <Pocket>  (87) 
nan

>  <ATP_Site>  (87) 
nan

>  <Peripheral>  (87) 
nan

>  <Num_H_Atoms_ProtBoundConf>  (87) 
nan

>  <Num_Resolved_Atoms>  (87) 
nan

>  <Num_Not_Resolved_Atoms>  (87) 
nan

$$$$
CHEMBL2088217
     RDKit          3D

  0  0  0  0  0  0  0  0  0  0999 V3000
M  V30 BEGIN CTAB
M  V30 COUNTS 55 59 0 0 0
M  V30 BEGIN ATOM
M  V30 1 C 2.028703 -2.320212 6.260642 0
M  V30 2 O 1.328330 -1.364868 5.492217 0
M  V30 3 C 1.921840 -1.029047 4.260743 0
M  V30 4 C 3.145216 -1.628983 3.909172 0
M  V30 5 C 3.785817 -1.341242 2.687717 0
M  V30 6 C 3.190182 -0.424786 1.790263 0
M  V30 7 C 3.991335 -0.184371 0.550271 0
M  V30 8 N 3.717916 -1.265907 -0.422502 0
M  V30 9 C 2.322908 -1.285817 -0.764876 0
M  V30 10 N 1.263984 -1.291781 -1.019755 0
M  V30 11 C 0.310169 -0.421312 -1.232504 0
M  V30 12 C -0.580409 0.722807 -1.423155 0
M  V30 13 C -1.373611 0.911959 -2.614201 0
M  V30 14 C -2.063879 2.090140 -2.484944 0
M  V30 15 C -2.037588 2.964652 -1.437027 0
M  V30 16 C -1.285667 2.741349 -0.352045 0
M  V30 17 C -1.158336 3.600334 0.844905 0
M  V30 18 N -0.608961 1.603368 -0.454815 0
M  V30 19 C -0.302762 -1.617584 -1.403026 0
M  V30 20 C -1.691968 -2.263033 -1.732990 0
M  V30 21 C -2.702207 -2.155261 -0.732551 0
M  V30 22 C -3.698668 -2.840256 -1.315578 0
M  V30 23 C -4.026082 -3.521254 -2.420786 0
M  V30 24 N -4.965476 -4.226327 -3.040239 0
M  V30 25 C -4.417971 -4.645239 -4.271113 0
M  V30 26 N -3.210339 -4.145466 -4.256554 0
M  V30 27 N -2.924603 -3.445211 -3.128069 0
M  V30 28 C -1.679943 -2.902705 -3.013035 0
M  V30 29 S 1.100341 -2.725747 -1.081845 0
M  V30 30 C 1.943449 0.215138 2.106784 0
M  V30 31 C 1.467054 -0.172669 3.309735 0
M  V30 32 O 0.365988 0.373463 3.648692 0
M  V30 33 C -0.772230 0.980858 3.927944 0
M  V30 34 H 2.190196 -3.239977 5.612111 0
M  V30 35 H 3.021385 -2.007125 6.594433 0
M  V30 36 H 1.404225 -2.655759 7.124783 0
M  V30 37 H 3.655435 -2.329112 4.555122 0
M  V30 38 H 4.715409 -1.823284 2.474265 0
M  V30 39 H 5.048908 -0.246287 0.786243 0
M  V30 40 H 3.699390 0.786586 0.126167 0
M  V30 41 H 4.265090 -1.963152 -0.939514 0
M  V30 42 H -1.310187 0.174670 -3.370583 0
M  V30 43 H -2.701798 2.299376 -3.368702 0
M  V30 44 H -2.608579 3.887359 -1.403711 0
M  V30 45 H -0.405627 3.127317 1.543447 0
M  V30 46 H -2.139272 3.584880 1.370245 0
M  V30 47 H -0.790953 4.615713 0.651906 0
M  V30 48 H -2.485430 -1.637830 0.137255 0
M  V30 49 H -4.581286 -2.817077 -0.588589 0
M  V30 50 H -4.548400 -5.195567 -5.177171 0
M  V30 51 H -0.824913 -2.871029 -3.621596 0
M  V30 52 H 1.505211 0.910794 1.417552 0
M  V30 53 H -1.590578 0.245695 4.234213 0
M  V30 54 H -1.233055 1.463326 3.010353 0
M  V30 55 H -0.722625 1.764559 4.751545 0
M  V30 END ATOM
M  V30 BEGIN BOND
M  V30 1 1 1 2
M  V30 2 1 2 3
M  V30 3 2 3 4
M  V30 4 1 4 5
M  V30 5 2 5 6
M  V30 6 1 6 7
M  V30 7 1 7 8
M  V30 8 1 8 9
M  V30 9 2 9 10
M  V30 10 1 10 11
M  V30 11 1 11 12
M  V30 12 2 12 13
M  V30 13 1 13 14
M  V30 14 2 14 15
M  V30 15 1 15 16
M  V30 16 1 16 17
M  V30 17 2 16 18
M  V30 18 2 11 19
M  V30 19 1 19 20
M  V30 20 1 20 21
M  V30 21 2 21 22
M  V30 22 1 22 23
M  V30 23 2 23 24
M  V30 24 1 24 25
M  V30 25 2 25 26
M  V30 26 1 26 27
M  V30 27 1 27 28
M  V30 28 1 19 29
M  V30 29 1 6 30
M  V30 30 2 30 31
M  V30 31 1 31 32
M  V30 32 1 32 33
M  V30 33 1 31 3
M  V30 34 1 29 9
M  V30 35 1 18 12
M  V30 36 2 28 20
M  V30 37 1 27 23
M  V30 38 1 1 34
M  V30 39 1 1 35
M  V30 40 1 1 36
M  V30 41 1 4 37
M  V30 42 1 5 38
M  V30 43 1 7 39
M  V30 44 1 7 40
M  V30 45 1 8 41
M  V30 46 1 13 42
M  V30 47 1 14 43
M  V30 48 1 15 44
M  V30 49 1 17 45
M  V30 50 1 17 46
M  V30 51 1 17 47
M  V30 52 1 21 48
M  V30 53 1 22 49
M  V30 54 1 25 50
M  V30 55 1 28 51
M  V30 56 1 30 52
M  V30 57 1 33 53
M  V30 58 1 33 54
M  V30 59 1 33 55
M  V30 END BOND
M  V30 END CTAB
M  END
>  <Dataset>  (88) 
ChEMBL_Kinases

>  <Ligand_Instance>  (88) 
nan

>  <PDB_ID>  (88) 
nan

>  <Standardized_SMILES>  (88) 
COc1ccc(CNc2nc(-c3cccc(C)n3)c(-c3ccc4ncnn4c3)s2)cc1OC

>  <Name>  (88) 
nan

>  <Pocket>  (88) 
nan

>  <ATP_Site>  (88) 
nan

>  <Peripheral>  (88) 
nan

>  <Num_H_Atoms_ProtBoundConf>  (88) 
nan

>  <Num_Resolved_Atoms>  (88) 
nan

>  <Num_Not_Resolved_Atoms>  (88) 
nan

$$$$
CHEMBL2088216
     RDKit          3D

  0  0  0  0  0  0  0  0  0  0999 V3000
M  V30 BEGIN CTAB
M  V30 COUNTS 55 59 0 0 0
M  V30 BEGIN ATOM
M  V30 1 C 4.295608 -3.748509 1.509060 0
M  V30 2 O 4.330027 -2.746154 0.513029 0
M  V30 3 C 3.726017 -1.505817 0.702370 0
M  V30 4 C 3.099255 -1.348940 1.938992 0
M  V30 5 C 2.482921 -0.145150 2.190923 0
M  V30 6 C 2.528984 0.816040 1.207091 0
M  V30 7 C 3.148404 0.686494 -0.039415 0
M  V30 8 C 3.075238 1.835298 -0.958858 0
M  V30 9 N 2.068161 1.626591 -2.014850 0
M  V30 10 C 0.873067 1.348951 -1.226214 0
M  V30 11 N -0.016307 1.691441 -0.607162 0
M  V30 12 C -0.970391 1.026777 -0.022322 0
M  V30 13 C -2.114534 1.396417 0.792193 0
M  V30 14 C -1.735995 2.020940 1.973543 0
M  V30 15 C -2.645030 2.458571 2.924258 0
M  V30 16 C -3.980233 2.244889 2.645411 0
M  V30 17 C -4.361713 1.616780 1.455070 0
M  V30 18 C -5.803993 1.404672 1.190747 0
M  V30 19 N -3.437669 1.210468 0.564132 0
M  V30 20 C -0.957375 -0.309747 -0.135155 0
M  V30 21 C -1.562012 -1.644860 0.154612 0
M  V30 22 C -0.839425 -2.488260 0.972010 0
M  V30 23 C -1.331143 -3.746792 1.277752 0
M  V30 24 C -2.556709 -4.043661 0.702733 0
M  V30 25 N -3.248872 -5.192237 0.837815 0
M  V30 26 C -4.382928 -5.035295 0.102416 0
M  V30 27 N -4.375327 -3.795691 -0.475278 0
M  V30 28 N -3.256620 -3.217117 -0.093850 0
M  V30 29 C -2.773227 -1.981994 -0.392713 0
M  V30 30 S 0.553424 -0.545393 -1.160215 0
M  V30 31 C 3.747147 -0.517136 -0.253046 0
M  V30 32 O 4.380495 -0.715678 -1.465368 0
M  V30 33 C 3.801572 -1.238871 -2.623095 0
M  V30 34 H 4.917530 -3.466948 2.384358 0
M  V30 35 H 3.250981 -3.944021 1.850194 0
M  V30 36 H 4.719707 -4.671351 1.063525 0
M  V30 37 H 3.072410 -2.106738 2.699605 0
M  V30 38 H 1.981613 0.040165 3.126252 0
M  V30 39 H 2.024883 1.762368 1.445557 0
M  V30 40 H 4.073556 1.995856 -1.410705 0
M  V30 41 H 2.827455 2.743915 -0.386362 0
M  V30 42 H 1.874524 1.599521 -3.030353 0
M  V30 43 H -0.711797 2.228600 2.273757 0
M  V30 44 H -2.417848 2.941930 3.845911 0
M  V30 45 H -4.750144 2.554909 3.334160 0
M  V30 46 H -6.403093 1.916755 1.969002 0
M  V30 47 H -5.974515 0.293899 1.214252 0
M  V30 48 H -6.008638 1.746928 0.177139 0
M  V30 49 H 0.132995 -2.227731 1.416918 0
M  V30 50 H -0.816395 -4.455177 1.915540 0
M  V30 51 H -5.140238 -5.807788 0.023537 0
M  V30 52 H -3.326771 -1.301187 -1.036583 0
M  V30 53 H 2.921534 -1.885623 -2.419073 0
M  V30 54 H 4.491609 -1.877337 -3.211860 0
M  V30 55 H 3.444909 -0.438910 -3.324137 0
M  V30 END ATOM
M  V30 BEGIN BOND
M  V30 1 1 1 2
M  V30 2 1 2 3
M  V30 3 2 3 4
M  V30 4 1 4 5
M  V30 5 2 5 6
M  V30 6 1 6 7
M  V30 7 1 7 8
M  V30 8 1 8 9
M  V30 9 1 9 10
M  V30 10 2 10 11
M  V30 11 1 11 12
M  V30 12 1 12 13
M  V30 13 2 13 14
M  V30 14 1 14 15
M  V30 15 2 15 16
M  V30 16 1 16 17
M  V30 17 1 17 18
M  V30 18 2 17 19
M  V30 19 2 12 20
M  V30 20 1 20 21
M  V30 21 1 21 22
M  V30 22 2 22 23
M  V30 23 1 23 24
M  V30 24 2 24 25
M  V30 25 1 25 26
M  V30 26 2 26 27
M  V30 27 1 27 28
M  V30 28 1 28 29
M  V30 29 1 20 30
M  V30 30 2 7 31
M  V30 31 1 31 32
M  V30 32 1 32 33
M  V30 33 1 31 3
M  V30 34 1 30 10
M  V30 35 1 19 13
M  V30 36 2 29 21
M  V30 37 1 28 24
M  V30 38 1 1 34
M  V30 39 1 1 35
M  V30 40 1 1 36
M  V30 41 1 4 37
M  V30 42 1 5 38
M  V30 43 1 6 39
M  V30 44 1 8 40
M  V30 45 1 8 41
M  V30 46 1 9 42
M  V30 47 1 14 43
M  V30 48 1 15 44
M  V30 49 1 16 45
M  V30 50 1 18 46
M  V30 51 1 18 47
M  V30 52 1 18 48
M  V30 53 1 22 49
M  V30 54 1 23 50
M  V30 55 1 26 51
M  V30 56 1 29 52
M  V30 57 1 33 53
M  V30 58 1 33 54
M  V30 59 1 33 55
M  V30 END BOND
M  V30 END CTAB
M  END
>  <Dataset>  (89) 
ChEMBL_Kinases

>  <Ligand_Instance>  (89) 
nan

>  <PDB_ID>  (89) 
nan

>  <Standardized_SMILES>  (89) 
COc1cccc(CNc2nc(-c3cccc(C)n3)c(-c3ccc4ncnn4c3)s2)c1OC

>  <Name>  (89) 
nan

>  <Pocket>  (89) 
nan

>  <ATP_Site>  (89) 
nan

>  <Peripheral>  (89) 
nan

>  <Num_H_Atoms_ProtBoundConf>  (89) 
nan

>  <Num_Resolved_Atoms>  (89) 
nan

>  <Num_Not_Resolved_Atoms>  (89) 
nan

$$$$
CHEMBL2088215
     RDKit          3D

  0  0  0  0  0  0  0  0  0  0999 V3000
M  V30 BEGIN CTAB
M  V30 COUNTS 53 57 0 0 0
M  V30 BEGIN ATOM
M  V30 1 C 1.396303 1.210670 4.014501 0
M  V30 2 C 2.458641 0.723297 3.068440 0
M  V30 3 C 3.251475 -0.366432 3.400603 0
M  V30 4 C 4.213314 -0.773241 2.508744 0
M  V30 5 C 5.044113 -1.939196 2.885012 0
M  V30 6 C 4.454878 -0.175886 1.295432 0
M  V30 7 C 3.674995 0.905316 0.956339 0
M  V30 8 C 3.702243 1.749544 -0.246871 0
M  V30 9 N 2.898575 1.271919 -1.336162 0
M  V30 10 C 1.554864 0.946707 -0.969986 0
M  V30 11 N 0.450042 1.239740 -0.589899 0
M  V30 12 C -0.548754 0.399791 -0.431898 0
M  V30 13 C -1.921345 0.567963 0.022323 0
M  V30 14 C -2.158102 1.072792 1.307272 0
M  V30 15 C -3.442568 1.249362 1.807404 0
M  V30 16 C -4.539568 0.911923 1.001269 0
M  V30 17 C -4.284808 0.416423 -0.260734 0
M  V30 18 C -5.448786 0.037873 -1.139839 0
M  V30 19 N -3.024346 0.283103 -0.650318 0
M  V30 20 C -0.349473 -0.960443 -0.720212 0
M  V30 21 C -1.042452 -2.236507 -0.738675 0
M  V30 22 C -0.734754 -3.242183 0.154783 0
M  V30 23 C -1.377663 -4.463894 0.136493 0
M  V30 24 C -2.358614 -4.597162 -0.853528 0
M  V30 25 N -3.133937 -5.694390 -1.087561 0
M  V30 26 C -3.937375 -5.388520 -2.131536 0
M  V30 27 N -3.623700 -4.135512 -2.486441 0
M  V30 28 N -2.670278 -3.625399 -1.732088 0
M  V30 29 C -2.016163 -2.449754 -1.676244 0
M  V30 30 S 1.398159 -0.938987 -1.238942 0
M  V30 31 C 2.691745 1.327031 1.858474 0
M  V30 32 H 0.404156 1.003924 3.565722 0
M  V30 33 H 1.446153 0.689288 4.975814 0
M  V30 34 H 1.461142 2.313212 4.133054 0
M  V30 35 H 3.104777 -0.875709 4.344044 0
M  V30 36 H 5.668735 -1.704655 3.781837 0
M  V30 37 H 4.391243 -2.826834 3.132807 0
M  V30 38 H 5.714005 -2.258939 2.067333 0
M  V30 39 H 5.190537 -0.447441 0.555971 0
M  V30 40 H 4.768140 1.698160 -0.627906 0
M  V30 41 H 3.477946 2.810873 -0.047617 0
M  V30 42 H 3.245925 1.161400 -2.329766 0
M  V30 43 H -1.368927 1.348846 1.972296 0
M  V30 44 H -3.609017 1.638836 2.798451 0
M  V30 45 H -5.532767 1.058338 1.415025 0
M  V30 46 H -6.316424 0.655555 -0.894893 0
M  V30 47 H -5.715134 -1.029743 -0.985866 0
M  V30 48 H -5.139039 0.258630 -2.174920 0
M  V30 49 H 0.022260 -3.118304 0.906967 0
M  V30 50 H -1.168618 -5.283573 0.817431 0
M  V30 51 H -4.718699 -5.855155 -2.723972 0
M  V30 52 H -2.339949 -1.749752 -2.422831 0
M  V30 53 H 2.022960 2.173112 1.682468 0
M  V30 END ATOM
M  V30 BEGIN BOND
M  V30 1 1 1 2
M  V30 2 2 2 3
M  V30 3 1 3 4
M  V30 4 1 4 5
M  V30 5 2 4 6
M  V30 6 1 6 7
M  V30 7 1 7 8
M  V30 8 1 8 9
M  V30 9 1 9 10
M  V30 10 2 10 11
M  V30 11 1 11 12
M  V30 12 1 12 13
M  V30 13 2 13 14
M  V30 14 1 14 15
M  V30 15 2 15 16
M  V30 16 1 16 17
M  V30 17 1 17 18
M  V30 18 2 17 19
M  V30 19 2 12 20
M  V30 20 1 20 21
M  V30 21 1 21 22
M  V30 22 2 22 23
M  V30 23 1 23 24
M  V30 24 2 24 25
M  V30 25 1 25 26
M  V30 26 2 26 27
M  V30 27 1 27 28
M  V30 28 1 28 29
M  V30 29 1 20 30
M  V30 30 2 7 31
M  V30 31 1 31 2
M  V30 32 1 30 10
M  V30 33 1 19 13
M  V30 34 2 29 21
M  V30 35 1 28 24
M  V30 36 1 1 32
M  V30 37 1 1 33
M  V30 38 1 1 34
M  V30 39 1 3 35
M  V30 40 1 5 36
M  V30 41 1 5 37
M  V30 42 1 5 38
M  V30 43 1 6 39
M  V30 44 1 8 40
M  V30 45 1 8 41
M  V30 46 1 9 42
M  V30 47 1 14 43
M  V30 48 1 15 44
M  V30 49 1 16 45
M  V30 50 1 18 46
M  V30 51 1 18 47
M  V30 52 1 18 48
M  V30 53 1 22 49
M  V30 54 1 23 50
M  V30 55 1 26 51
M  V30 56 1 29 52
M  V30 57 1 31 53
M  V30 END BOND
M  V30 END CTAB
M  END
>  <Dataset>  (90) 
ChEMBL_Kinases

>  <Ligand_Instance>  (90) 
nan

>  <PDB_ID>  (90) 
nan

>  <Standardized_SMILES>  (90) 
Cc1cc(C)cc(CNc2nc(-c3cccc(C)n3)c(-c3ccc4ncnn4c3)s2)c1

>  <Name>  (90) 
nan

>  <Pocket>  (90) 
nan

>  <ATP_Site>  (90) 
nan

>  <Peripheral>  (90) 
nan

>  <Num_H_Atoms_ProtBoundConf>  (90) 
nan

>  <Num_Resolved_Atoms>  (90) 
nan

>  <Num_Not_Resolved_Atoms>  (90) 
nan

$$$$
CHEMBL2207511
     RDKit          3D

  0  0  0  0  0  0  0  0  0  0999 V3000
M  V30 BEGIN CTAB
M  V30 COUNTS 45 49 0 0 0
M  V30 BEGIN ATOM
M  V30 1 C 0.754801 -6.082524 5.239291 0
M  V30 2 C 0.515272 -5.648581 3.835102 0
M  V30 3 C 0.076698 -4.389586 3.417177 0
M  V30 4 C -0.020858 -4.386654 2.039620 0
M  V30 5 C -0.429431 -3.337601 1.076255 0
M  V30 6 N 0.699134 -2.545699 0.640300 0
M  V30 7 C 1.363732 -1.871577 1.706567 0
M  V30 8 C 2.031599 -0.568474 1.320019 0
M  V30 9 N 1.168948 0.342517 0.614468 0
M  V30 10 C 1.488124 1.628641 0.169171 0
M  V30 11 C 2.721238 2.202945 0.360928 0
M  V30 12 Br 4.157070 1.330977 1.252224 0
M  V30 13 C 3.084316 3.462747 -0.057258 0
M  V30 14 N 2.164547 4.216308 -0.714704 0
M  V30 15 C 0.940370 3.710479 -0.933149 0
M  V30 16 N -0.106451 4.272515 -1.553363 0
M  V30 17 C -1.123588 3.399877 -1.538391 0
M  V30 18 C -2.482341 3.567858 -2.098988 0
M  V30 19 C -3.488665 2.562035 -2.022155 0
M  V30 20 S -4.896337 3.315026 -2.854976 0
M  V30 21 N -3.913301 4.883465 -3.185088 0
M  V30 22 N -2.941151 4.621976 -2.722482 0
M  V30 23 N -0.659566 2.321266 -0.902369 0
M  V30 24 C 0.609287 2.444998 -0.501001 0
M  V30 25 C -0.099037 -0.319591 0.445722 0
M  V30 26 C 0.213613 -1.591658 -0.339116 0
M  V30 27 N 0.363982 -5.645164 1.693528 0
M  V30 28 O 0.663364 -6.340283 2.740473 0
M  V30 29 H 1.810593 -5.885683 5.548226 0
M  V30 30 H 0.129531 -5.503299 5.949873 0
M  V30 31 H 0.523411 -7.155644 5.384387 0
M  V30 32 H -0.158663 -3.534596 4.024303 0
M  V30 33 H -1.201368 -2.708716 1.574923 0
M  V30 34 H -0.855511 -3.843422 0.185288 0
M  V30 35 H 2.169474 -2.588540 2.063757 0
M  V30 36 H 0.726244 -1.704449 2.570244 0
M  V30 37 H 2.335997 -0.108929 2.307056 0
M  V30 38 H 2.943718 -0.862058 0.756385 0
M  V30 39 H 4.031585 3.951281 0.069488 0
M  V30 40 H -0.158568 5.223725 -1.986140 0
M  V30 41 H -3.271206 1.452030 -1.460912 0
M  V30 42 H -0.889729 0.260275 -0.018671 0
M  V30 43 H -0.483766 -0.548289 1.479758 0
M  V30 44 H -0.702406 -1.995216 -0.817208 0
M  V30 45 H 1.024128 -1.377711 -1.038413 0
M  V30 END ATOM
M  V30 BEGIN BOND
M  V30 1 1 1 2
M  V30 2 2 2 3
M  V30 3 1 3 4
M  V30 4 1 4 5
M  V30 5 1 5 6
M  V30 6 1 6 7
M  V30 7 1 7 8
M  V30 8 1 8 9
M  V30 9 1 9 10
M  V30 10 2 10 11
M  V30 11 1 11 12
M  V30 12 1 11 13
M  V30 13 2 13 14
M  V30 14 1 14 15
M  V30 15 1 15 16
M  V30 16 1 16 17
M  V30 17 1 17 18
M  V30 18 2 18 19
M  V30 19 1 19 20
M  V30 20 1 20 21
M  V30 21 2 21 22
M  V30 22 2 17 23
M  V30 23 1 23 24
M  V30 24 1 9 25
M  V30 25 1 25 26
M  V30 26 2 4 27
M  V30 27 1 27 28
M  V30 28 1 28 2
M  V30 29 1 26 6
M  V30 30 1 24 10
M  V30 31 2 24 15
M  V30 32 1 22 18
M  V30 33 1 1 29
M  V30 34 1 1 30
M  V30 35 1 1 31
M  V30 36 1 3 32
M  V30 37 1 5 33
M  V30 38 1 5 34
M  V30 39 1 7 35
M  V30 40 1 7 36
M  V30 41 1 8 37
M  V30 42 1 8 38
M  V30 43 1 13 39
M  V30 44 1 16 40
M  V30 45 1 19 41
M  V30 46 1 25 42
M  V30 47 1 25 43
M  V30 48 1 26 44
M  V30 49 1 26 45
M  V30 END BOND
M  V30 END CTAB
M  END
>  <Dataset>  (91) 
ChEMBL_Kinases

>  <Ligand_Instance>  (91) 
nan

>  <PDB_ID>  (91) 
nan

>  <Standardized_SMILES>  (91) 
Cc1cc(CN2CCN(c3c(Br)cnc4[nH]c(-c5csnn5)nc34)CC2)no1

>  <Name>  (91) 
nan

>  <Pocket>  (91) 
nan

>  <ATP_Site>  (91) 
nan

>  <Peripheral>  (91) 
nan

>  <Num_H_Atoms_ProtBoundConf>  (91) 
nan

>  <Num_Resolved_Atoms>  (91) 
nan

>  <Num_Not_Resolved_Atoms>  (91) 
nan

$$$$
CHEMBL2088213
     RDKit          3D

  0  0  0  0  0  0  0  0  0  0999 V3000
M  V30 BEGIN CTAB
M  V30 COUNTS 47 51 0 0 0
M  V30 BEGIN ATOM
M  V30 1 C -2.661924 -2.009145 4.314896 0
M  V30 2 C -1.384019 -1.493578 3.741365 0
M  V30 3 C -0.257209 -1.331702 4.544277 0
M  V30 4 C 0.889746 -0.852096 3.953599 0
M  V30 5 C 0.972357 -0.527904 2.615899 0
M  V30 6 C -0.179437 -0.705339 1.848906 0
M  V30 7 C -0.293092 -0.415862 0.402579 0
M  V30 8 N -0.079135 0.829483 0.026013 0
M  V30 9 C -0.135541 1.211927 -1.114136 0
M  V30 10 N 0.017443 2.398488 -1.899859 0
M  V30 11 C 0.351634 3.613465 -1.236281 0
M  V30 12 C 1.640227 3.595118 -0.503783 0
M  V30 13 C 1.830964 3.272887 0.816079 0
M  V30 14 C 3.094204 3.285239 1.394609 0
M  V30 15 Cl 3.253100 2.861950 3.083345 0
M  V30 16 C 4.150728 3.631972 0.599884 0
M  V30 17 C 4.050560 3.969561 -0.732464 0
M  V30 18 Cl 5.446226 4.401247 -1.682173 0
M  V30 19 C 2.750513 3.934650 -1.243886 0
M  V30 20 S -0.573143 -0.364276 -2.037451 0
M  V30 21 C -0.605693 -1.361687 -0.570008 0
M  V30 22 C -0.865656 -2.746721 -0.329561 0
M  V30 23 C 0.189258 -3.472904 0.208699 0
M  V30 24 C -0.012732 -4.826695 0.461414 0
M  V30 25 C -1.241230 -5.381876 0.168355 0
M  V30 26 N -1.766771 -6.623194 0.281976 0
M  V30 27 C -3.036181 -6.607658 -0.161292 0
M  V30 28 N -3.316306 -5.351697 -0.557432 0
M  V30 29 N -2.216721 -4.618225 -0.351364 0
M  V30 30 C -2.115348 -3.296636 -0.631181 0
M  V30 31 N -1.287411 -1.176110 2.452737 0
M  V30 32 H -2.523671 -2.535218 5.257008 0
M  V30 33 H -3.159620 -2.686094 3.576247 0
M  V30 34 H -3.342656 -1.125938 4.476951 0
M  V30 35 H -0.303495 -1.579500 5.590961 0
M  V30 36 H 1.785960 -0.710965 4.538520 0
M  V30 37 H 1.813810 -0.153455 2.081195 0
M  V30 38 H -0.110312 2.398993 -2.957533 0
M  V30 39 H 0.369237 4.438549 -1.982566 0
M  V30 40 H -0.476141 3.911515 -0.531476 0
M  V30 41 H 0.962020 3.013690 1.387350 0
M  V30 42 H 5.118657 3.625620 1.103145 0
M  V30 43 H 2.674685 4.203288 -2.301984 0
M  V30 44 H 1.135754 -3.044070 0.434289 0
M  V30 45 H 0.747557 -5.454039 0.873944 0
M  V30 46 H -3.802581 -7.372392 -0.244266 0
M  V30 47 H -2.908533 -2.716938 -1.043950 0
M  V30 END ATOM
M  V30 BEGIN BOND
M  V30 1 1 1 2
M  V30 2 2 2 3
M  V30 3 1 3 4
M  V30 4 2 4 5
M  V30 5 1 5 6
M  V30 6 1 6 7
M  V30 7 1 7 8
M  V30 8 2 8 9
M  V30 9 1 9 10
M  V30 10 1 10 11
M  V30 11 1 11 12
M  V30 12 2 12 13
M  V30 13 1 13 14
M  V30 14 1 14 15
M  V30 15 2 14 16
M  V30 16 1 16 17
M  V30 17 1 17 18
M  V30 18 2 17 19
M  V30 19 1 9 20
M  V30 20 1 20 21
M  V30 21 1 21 22
M  V30 22 1 22 23
M  V30 23 2 23 24
M  V30 24 1 24 25
M  V30 25 2 25 26
M  V30 26 1 26 27
M  V30 27 2 27 28
M  V30 28 1 28 29
M  V30 29 1 29 30
M  V30 30 2 6 31
M  V30 31 1 31 2
M  V30 32 2 21 7
M  V30 33 2 30 22
M  V30 34 1 19 12
M  V30 35 1 29 25
M  V30 36 1 1 32
M  V30 37 1 1 33
M  V30 38 1 1 34
M  V30 39 1 3 35
M  V30 40 1 4 36
M  V30 41 1 5 37
M  V30 42 1 10 38
M  V30 43 1 11 39
M  V30 44 1 11 40
M  V30 45 1 13 41
M  V30 46 1 16 42
M  V30 47 1 19 43
M  V30 48 1 23 44
M  V30 49 1 24 45
M  V30 50 1 27 46
M  V30 51 1 30 47
M  V30 END BOND
M  V30 END CTAB
M  END
>  <Dataset>  (92) 
ChEMBL_Kinases

>  <Ligand_Instance>  (92) 
nan

>  <PDB_ID>  (92) 
nan

>  <Standardized_SMILES>  (92) 
Cc1cccc(-c2nc(NCc3cc(Cl)cc(Cl)c3)sc2-c2ccc3ncnn3c2)n1

>  <Name>  (92) 
nan

>  <Pocket>  (92) 
nan

>  <ATP_Site>  (92) 
nan

>  <Peripheral>  (92) 
nan

>  <Num_H_Atoms_ProtBoundConf>  (92) 
nan

>  <Num_Resolved_Atoms>  (92) 
nan

>  <Num_Not_Resolved_Atoms>  (92) 
nan

$$$$
CHEMBL2087986
     RDKit          3D

  0  0  0  0  0  0  0  0  0  0999 V3000
M  V30 BEGIN CTAB
M  V30 COUNTS 47 51 0 0 0
M  V30 BEGIN ATOM
M  V30 1 C -0.039559 -2.786140 3.766940 0
M  V30 2 C 0.626832 -2.472038 2.464647 0
M  V30 3 C 1.738695 -3.154478 2.030140 0
M  V30 4 C 2.362978 -2.871464 0.832072 0
M  V30 5 C 1.866734 -1.866571 0.022974 0
M  V30 6 C 0.750363 -1.198011 0.483534 0
M  V30 7 C 0.033835 -0.087962 -0.192427 0
M  V30 8 N 0.639435 1.078199 -0.397243 0
M  V30 9 C 0.092484 2.014234 -0.942327 0
M  V30 10 N 0.726584 3.287071 -1.191012 0
M  V30 11 C 0.870868 4.134978 0.007249 0
M  V30 12 C 1.747433 3.417420 0.994584 0
M  V30 13 C 3.124685 3.646991 0.869776 0
M  V30 14 C 3.960136 2.988859 1.767701 0
M  V30 15 C 3.494830 2.141991 2.748496 0
M  V30 16 Cl 4.658601 1.393859 3.787969 0
M  V30 17 C 2.117774 1.928589 2.854149 0
M  V30 18 Cl 1.526104 0.854438 4.098646 0
M  V30 19 C 1.249539 2.574863 1.967477 0
M  V30 20 S -1.671256 1.369749 -1.353331 0
M  V30 21 C -1.301368 -0.223890 -0.633446 0
M  V30 22 C -2.082499 -1.425496 -0.479695 0
M  V30 23 C -2.161197 -2.129067 -1.687241 0
M  V30 24 C -2.867726 -3.328717 -1.764081 0
M  V30 25 C -3.502674 -3.842382 -0.645699 0
M  V30 26 N -4.250195 -4.942666 -0.357824 0
M  V30 27 C -4.596268 -4.895389 0.948268 0
M  V30 28 N -4.055380 -3.759458 1.454060 0
M  V30 29 N -3.392599 -3.121941 0.488163 0
M  V30 30 C -2.729120 -1.965618 0.620770 0
M  V30 31 N 0.159256 -1.497002 1.662864 0
M  V30 32 H 0.302213 -3.778222 4.144183 0
M  V30 33 H -1.131435 -2.763957 3.562784 0
M  V30 34 H 0.160612 -2.021876 4.529668 0
M  V30 35 H 2.150656 -3.941194 2.632755 0
M  V30 36 H 3.236384 -3.370532 0.438427 0
M  V30 37 H 2.218378 -1.508774 -0.935813 0
M  V30 38 H 1.017014 3.480191 -2.176169 0
M  V30 39 H 1.387123 5.064043 -0.308425 0
M  V30 40 H -0.093532 4.427273 0.437173 0
M  V30 41 H 3.544204 4.302459 0.117345 0
M  V30 42 H 5.000574 3.176892 1.652345 0
M  V30 43 H 0.176412 2.416381 2.038190 0
M  V30 44 H -1.724022 -1.865530 -2.647356 0
M  V30 45 H -2.968517 -3.921680 -2.662757 0
M  V30 46 H -5.169509 -5.543549 1.583508 0
M  V30 47 H -2.613792 -1.359145 1.489586 0
M  V30 END ATOM
M  V30 BEGIN BOND
M  V30 1 1 1 2
M  V30 2 2 2 3
M  V30 3 1 3 4
M  V30 4 2 4 5
M  V30 5 1 5 6
M  V30 6 1 6 7
M  V30 7 1 7 8
M  V30 8 2 8 9
M  V30 9 1 9 10
M  V30 10 1 10 11
M  V30 11 1 11 12
M  V30 12 2 12 13
M  V30 13 1 13 14
M  V30 14 2 14 15
M  V30 15 1 15 16
M  V30 16 1 15 17
M  V30 17 1 17 18
M  V30 18 2 17 19
M  V30 19 1 9 20
M  V30 20 1 20 21
M  V30 21 1 21 22
M  V30 22 1 22 23
M  V30 23 2 23 24
M  V30 24 1 24 25
M  V30 25 2 25 26
M  V30 26 1 26 27
M  V30 27 2 27 28
M  V30 28 1 28 29
M  V30 29 1 29 30
M  V30 30 2 6 31
M  V30 31 1 31 2
M  V30 32 2 21 7
M  V30 33 2 30 22
M  V30 34 1 19 12
M  V30 35 1 29 25
M  V30 36 1 1 32
M  V30 37 1 1 33
M  V30 38 1 1 34
M  V30 39 1 3 35
M  V30 40 1 4 36
M  V30 41 1 5 37
M  V30 42 1 10 38
M  V30 43 1 11 39
M  V30 44 1 11 40
M  V30 45 1 13 41
M  V30 46 1 14 42
M  V30 47 1 19 43
M  V30 48 1 23 44
M  V30 49 1 24 45
M  V30 50 1 27 46
M  V30 51 1 30 47
M  V30 END BOND
M  V30 END CTAB
M  END
>  <Dataset>  (93) 
ChEMBL_Kinases

>  <Ligand_Instance>  (93) 
nan

>  <PDB_ID>  (93) 
nan

>  <Standardized_SMILES>  (93) 
Cc1cccc(-c2nc(NCc3ccc(Cl)c(Cl)c3)sc2-c2ccc3ncnn3c2)n1

>  <Name>  (93) 
nan

>  <Pocket>  (93) 
nan

>  <ATP_Site>  (93) 
nan

>  <Peripheral>  (93) 
nan

>  <Num_H_Atoms_ProtBoundConf>  (93) 
nan

>  <Num_Resolved_Atoms>  (93) 
nan

>  <Num_Not_Resolved_Atoms>  (93) 
nan

$$$$
CHEMBL2087985
     RDKit          3D

  0  0  0  0  0  0  0  0  0  0999 V3000
M  V30 BEGIN CTAB
M  V30 COUNTS 47 51 0 0 0
M  V30 BEGIN ATOM
M  V30 1 C 0.026979 -2.560821 4.222266 0
M  V30 2 C 0.785469 -2.385170 2.971816 0
M  V30 3 C 2.010336 -2.966684 2.773265 0
M  V30 4 C 2.622147 -2.730729 1.565639 0
M  V30 5 C 2.003548 -1.938777 0.616235 0
M  V30 6 C 0.752520 -1.357385 0.845119 0
M  V30 7 C 0.123726 -0.514709 -0.196385 0
M  V30 8 N 0.827251 0.561134 -0.482012 0
M  V30 9 C 0.425061 1.379092 -1.350464 0
M  V30 10 N 0.905400 2.603220 -1.896498 0
M  V30 11 C 2.164543 3.075863 -1.358327 0
M  V30 12 C 2.085073 3.310124 0.105686 0
M  V30 13 C 2.660967 2.412637 1.011583 0
M  V30 14 C 2.634414 2.554872 2.389235 0
M  V30 15 C 1.995754 3.658070 2.905235 0
M  V30 16 C 1.415160 4.566540 2.041685 0
M  V30 17 Cl 0.615442 5.954254 2.764626 0
M  V30 18 C 1.450140 4.409142 0.649974 0
M  V30 19 Cl 0.695279 5.594436 -0.404905 0
M  V30 20 S -1.149527 0.692125 -1.950601 0
M  V30 21 C -1.078638 -0.758885 -0.856212 0
M  V30 22 C -1.916690 -1.905551 -0.608906 0
M  V30 23 C -2.084227 -2.845111 -1.623455 0
M  V30 24 C -2.875761 -3.972136 -1.457156 0
M  V30 25 C -3.508866 -4.153332 -0.246004 0
M  V30 26 N -4.323728 -5.109779 0.232745 0
M  V30 27 C -4.678290 -4.811490 1.511040 0
M  V30 28 N -4.055638 -3.648596 1.792320 0
M  V30 29 N -3.352104 -3.250456 0.738493 0
M  V30 30 C -2.584362 -2.161886 0.570331 0
M  V30 31 N 0.211460 -1.627988 2.044095 0
M  V30 32 H -1.039624 -2.333295 4.124208 0
M  V30 33 H 0.242372 -3.555132 4.645454 0
M  V30 34 H 0.439803 -1.797604 4.941739 0
M  V30 35 H 2.409046 -3.568345 3.575791 0
M  V30 36 H 3.599491 -3.183220 1.383782 0
M  V30 37 H 2.532036 -1.778408 -0.337179 0
M  V30 38 H 0.402998 3.139439 -2.632503 0
M  V30 39 H 2.531628 3.974412 -1.896012 0
M  V30 40 H 2.885962 2.234642 -1.521430 0
M  V30 41 H 3.187397 1.511735 0.661481 0
M  V30 42 H 3.090168 1.839929 3.038693 0
M  V30 43 H 1.970582 3.777134 3.981539 0
M  V30 44 H -1.629667 -2.785462 -2.598959 0
M  V30 45 H -3.043624 -4.730672 -2.197301 0
M  V30 46 H -5.302174 -5.289188 2.259159 0
M  V30 47 H -2.489147 -1.472260 1.372669 0
M  V30 END ATOM
M  V30 BEGIN BOND
M  V30 1 1 1 2
M  V30 2 2 2 3
M  V30 3 1 3 4
M  V30 4 2 4 5
M  V30 5 1 5 6
M  V30 6 1 6 7
M  V30 7 1 7 8
M  V30 8 2 8 9
M  V30 9 1 9 10
M  V30 10 1 10 11
M  V30 11 1 11 12
M  V30 12 2 12 13
M  V30 13 1 13 14
M  V30 14 2 14 15
M  V30 15 1 15 16
M  V30 16 1 16 17
M  V30 17 2 16 18
M  V30 18 1 18 19
M  V30 19 1 9 20
M  V30 20 1 20 21
M  V30 21 1 21 22
M  V30 22 1 22 23
M  V30 23 2 23 24
M  V30 24 1 24 25
M  V30 25 2 25 26
M  V30 26 1 26 27
M  V30 27 2 27 28
M  V30 28 1 28 29
M  V30 29 1 29 30
M  V30 30 2 6 31
M  V30 31 1 31 2
M  V30 32 2 21 7
M  V30 33 2 30 22
M  V30 34 1 18 12
M  V30 35 1 29 25
M  V30 36 1 1 32
M  V30 37 1 1 33
M  V30 38 1 1 34
M  V30 39 1 3 35
M  V30 40 1 4 36
M  V30 41 1 5 37
M  V30 42 1 10 38
M  V30 43 1 11 39
M  V30 44 1 11 40
M  V30 45 1 13 41
M  V30 46 1 14 42
M  V30 47 1 15 43
M  V30 48 1 23 44
M  V30 49 1 24 45
M  V30 50 1 27 46
M  V30 51 1 30 47
M  V30 END BOND
M  V30 END CTAB
M  END
>  <Dataset>  (94) 
ChEMBL_Kinases

>  <Ligand_Instance>  (94) 
nan

>  <PDB_ID>  (94) 
nan

>  <Standardized_SMILES>  (94) 
Cc1cccc(-c2nc(NCc3cccc(Cl)c3Cl)sc2-c2ccc3ncnn3c2)n1

>  <Name>  (94) 
nan

>  <Pocket>  (94) 
nan

>  <ATP_Site>  (94) 
nan

>  <Peripheral>  (94) 
nan

>  <Num_H_Atoms_ProtBoundConf>  (94) 
nan

>  <Num_Resolved_Atoms>  (94) 
nan

>  <Num_Not_Resolved_Atoms>  (94) 
nan

$$$$
CHEMBL2087981
     RDKit          3D

  0  0  0  0  0  0  0  0  0  0999 V3000
M  V30 BEGIN CTAB
M  V30 COUNTS 51 55 0 0 0
M  V30 BEGIN ATOM
M  V30 1 C 3.970156 -4.419466 3.593287 0
M  V30 2 C 2.549031 -4.078516 3.218518 0
M  V30 3 C 1.506849 -4.832207 3.694796 0
M  V30 4 C 0.214382 -4.555741 3.367048 0
M  V30 5 C -0.106997 -3.499732 2.539926 0
M  V30 6 C 0.984602 -2.744211 2.067579 0
M  V30 7 C 0.780087 -1.596484 1.144096 0
M  V30 8 N 0.881349 -0.296612 1.348948 0
M  V30 9 C 0.701412 0.577337 0.645102 0
M  V30 10 N 0.781094 2.043639 0.692777 0
M  V30 11 C -0.391348 2.635243 0.071011 0
M  V30 12 C -0.437873 4.091368 0.079797 0
M  V30 13 C 0.073005 4.662699 -1.089316 0
M  V30 14 C 0.203671 6.016527 -1.290803 0
M  V30 15 C -0.192971 6.834801 -0.279986 0
M  V30 16 C -0.707528 6.336586 0.898645 0
M  V30 17 C -0.832575 4.978618 1.084421 0
M  V30 18 O -1.366443 4.417170 2.271740 0
M  V30 19 C -2.786712 4.336865 2.433879 0
M  V30 20 F -3.327813 5.626966 2.424017 0
M  V30 21 F -3.297507 3.608142 1.395386 0
M  V30 22 F -3.056606 3.763227 3.624819 0
M  V30 23 S 0.197017 -0.325070 -0.970224 0
M  V30 24 C 0.389908 -1.956643 -0.145951 0
M  V30 25 C 0.176822 -3.288679 -0.743403 0
M  V30 26 C 1.080546 -4.315790 -0.875321 0
M  V30 27 C 0.706106 -5.527974 -1.471594 0
M  V30 28 C -0.604841 -5.566789 -1.892433 0
M  V30 29 N -1.164684 -6.642995 -2.490750 0
M  V30 30 C -2.459664 -6.321493 -2.759516 0
M  V30 31 N -2.638217 -5.071632 -2.317103 0
M  V30 32 N -1.519087 -4.584688 -1.783169 0
M  V30 33 C -1.135276 -3.434054 -1.205257 0
M  V30 34 N 2.257479 -3.049051 2.413863 0
M  V30 35 H 4.220948 -5.360298 3.102006 0
M  V30 36 H 4.025616 -4.580260 4.693581 0
M  V30 37 H 4.658547 -3.592017 3.349036 0
M  V30 38 H 1.657326 -5.672913 4.345917 0
M  V30 39 H -0.675596 -5.100997 3.700159 0
M  V30 40 H -1.052634 -3.129123 2.177536 0
M  V30 41 H 1.613638 2.448260 1.134442 0
M  V30 42 H -1.305847 2.194063 0.581575 0
M  V30 43 H -0.463135 2.263154 -0.960614 0
M  V30 44 H 0.414082 4.076004 -1.935996 0
M  V30 45 H 0.603498 6.480760 -2.193562 0
M  V30 46 H -0.129137 7.934461 -0.330014 0
M  V30 47 H -1.044610 6.936180 1.745831 0
M  V30 48 H 2.060567 -4.072904 -0.474432 0
M  V30 49 H 1.464242 -6.266260 -1.527386 0
M  V30 50 H -3.309568 -6.812130 -3.220707 0
M  V30 51 H -1.917610 -2.694045 -1.157545 0
M  V30 END ATOM
M  V30 BEGIN BOND
M  V30 1 1 1 2
M  V30 2 2 2 3
M  V30 3 1 3 4
M  V30 4 2 4 5
M  V30 5 1 5 6
M  V30 6 1 6 7
M  V30 7 1 7 8
M  V30 8 2 8 9
M  V30 9 1 9 10
M  V30 10 1 10 11
M  V30 11 1 11 12
M  V30 12 2 12 13
M  V30 13 1 13 14
M  V30 14 2 14 15
M  V30 15 1 15 16
M  V30 16 2 16 17
M  V30 17 1 17 18
M  V30 18 1 18 19
M  V30 19 1 19 20
M  V30 20 1 19 21
M  V30 21 1 19 22
M  V30 22 1 9 23
M  V30 23 1 23 24
M  V30 24 1 24 25
M  V30 25 1 25 26
M  V30 26 2 26 27
M  V30 27 1 27 28
M  V30 28 2 28 29
M  V30 29 1 29 30
M  V30 30 2 30 31
M  V30 31 1 31 32
M  V30 32 1 32 33
M  V30 33 2 6 34
M  V30 34 1 34 2
M  V30 35 2 24 7
M  V30 36 2 33 25
M  V30 37 1 17 12
M  V30 38 1 32 28
M  V30 39 1 1 35
M  V30 40 1 1 36
M  V30 41 1 1 37
M  V30 42 1 3 38
M  V30 43 1 4 39
M  V30 44 1 5 40
M  V30 45 1 10 41
M  V30 46 1 11 42
M  V30 47 1 11 43
M  V30 48 1 13 44
M  V30 49 1 14 45
M  V30 50 1 15 46
M  V30 51 1 16 47
M  V30 52 1 26 48
M  V30 53 1 27 49
M  V30 54 1 30 50
M  V30 55 1 33 51
M  V30 END BOND
M  V30 END CTAB
M  END
>  <Dataset>  (95) 
ChEMBL_Kinases

>  <Ligand_Instance>  (95) 
nan

>  <PDB_ID>  (95) 
nan

>  <Standardized_SMILES>  (95) 
Cc1cccc(-c2nc(NCc3ccccc3OC(F)(F)F)sc2-c2ccc3ncnn3c2)n1

>  <Name>  (95) 
nan

>  <Pocket>  (95) 
nan

>  <ATP_Site>  (95) 
nan

>  <Peripheral>  (95) 
nan

>  <Num_H_Atoms_ProtBoundConf>  (95) 
nan

>  <Num_Resolved_Atoms>  (95) 
nan

>  <Num_Not_Resolved_Atoms>  (95) 
nan

$$$$
CHEMBL2087980
     RDKit          3D

  0  0  0  0  0  0  0  0  0  0999 V3000
M  V30 BEGIN CTAB
M  V30 COUNTS 50 54 0 0 0
M  V30 BEGIN ATOM
M  V30 1 C -2.089173 -1.108600 3.594009 0
M  V30 2 C -0.712013 -1.316745 3.027974 0
M  V30 3 C 0.354469 -1.732367 3.791533 0
M  V30 4 C 1.608951 -1.921180 3.268733 0
M  V30 5 C 1.853748 -1.692911 1.913696 0
M  V30 6 C 0.780521 -1.279436 1.167923 0
M  V30 7 C 0.660212 -0.907578 -0.262586 0
M  V30 8 N 0.966524 0.337185 -0.562911 0
M  V30 9 C 0.944352 0.910182 -1.553258 0
M  V30 10 N 1.243617 2.273391 -1.844693 0
M  V30 11 C 0.691222 3.398693 -1.089223 0
M  V30 12 C 0.940470 3.310814 0.365464 0
M  V30 13 C 2.184955 3.864933 0.713865 0
M  V30 14 C 2.589541 3.779048 2.039394 0
M  V30 15 C 1.789484 3.168401 2.981174 0
M  V30 16 C 0.549401 2.616358 2.639952 0
M  V30 17 C 0.139273 2.703235 1.299354 0
M  V30 18 C -1.186645 2.192435 0.983154 0
M  V30 19 S 0.330142 -0.446402 -2.717637 0
M  V30 20 C 0.235622 -1.657842 -1.339648 0
M  V30 21 C -0.199316 -3.005239 -1.407961 0
M  V30 22 C -1.411449 -3.141678 -0.723262 0
M  V30 23 C -2.081751 -4.362494 -0.646268 0
M  V30 24 C -1.517923 -5.468411 -1.272104 0
M  V30 25 N -1.906147 -6.764368 -1.391651 0
M  V30 26 C -0.940129 -7.366191 -2.131304 0
M  V30 27 N 0.004674 -6.464965 -2.451467 0
M  V30 28 N -0.349070 -5.295120 -1.921719 0
M  V30 29 C 0.304655 -4.131564 -2.003544 0
M  V30 30 N -0.442000 -1.110736 1.748042 0
M  V30 31 H -2.545673 -2.035219 3.968462 0
M  V30 32 H -2.077857 -0.289325 4.335263 0
M  V30 33 H -2.756268 -0.755435 2.757749 0
M  V30 34 H 0.214407 -1.931670 4.861061 0
M  V30 35 H 2.476763 -2.239477 3.805233 0
M  V30 36 H 2.745133 -1.775455 1.322713 0
M  V30 37 H 1.903363 2.427107 -2.656323 0
M  V30 38 H 1.162022 4.312167 -1.495931 0
M  V30 39 H -0.403804 3.511524 -1.319970 0
M  V30 40 H 2.863876 4.365023 0.014803 0
M  V30 41 H 3.547401 4.191705 2.345080 0
M  V30 42 H 2.119168 3.112860 4.009659 0
M  V30 43 H -0.062837 2.143976 3.393751 0
M  V30 44 H -1.645400 1.700661 1.892459 0
M  V30 45 H -1.317890 1.484770 0.181778 0
M  V30 46 H -1.929418 3.023052 0.768112 0
M  V30 47 H -1.977124 -2.384708 -0.186220 0
M  V30 48 H -3.009390 -4.556854 -0.149507 0
M  V30 49 H -0.970202 -8.395729 -2.397597 0
M  V30 50 H 1.229034 -3.931261 -2.496341 0
M  V30 END ATOM
M  V30 BEGIN BOND
M  V30 1 1 1 2
M  V30 2 2 2 3
M  V30 3 1 3 4
M  V30 4 2 4 5
M  V30 5 1 5 6
M  V30 6 1 6 7
M  V30 7 1 7 8
M  V30 8 2 8 9
M  V30 9 1 9 10
M  V30 10 1 10 11
M  V30 11 1 11 12
M  V30 12 2 12 13
M  V30 13 1 13 14
M  V30 14 2 14 15
M  V30 15 1 15 16
M  V30 16 2 16 17
M  V30 17 1 17 18
M  V30 18 1 9 19
M  V30 19 1 19 20
M  V30 20 1 20 21
M  V30 21 1 21 22
M  V30 22 2 22 23
M  V30 23 1 23 24
M  V30 24 2 24 25
M  V30 25 1 25 26
M  V30 26 2 26 27
M  V30 27 1 27 28
M  V30 28 1 28 29
M  V30 29 2 6 30
M  V30 30 1 30 2
M  V30 31 2 20 7
M  V30 32 2 29 21
M  V30 33 1 17 12
M  V30 34 1 28 24
M  V30 35 1 1 31
M  V30 36 1 1 32
M  V30 37 1 1 33
M  V30 38 1 3 34
M  V30 39 1 4 35
M  V30 40 1 5 36
M  V30 41 1 10 37
M  V30 42 1 11 38
M  V30 43 1 11 39
M  V30 44 1 13 40
M  V30 45 1 14 41
M  V30 46 1 15 42
M  V30 47 1 16 43
M  V30 48 1 18 44
M  V30 49 1 18 45
M  V30 50 1 18 46
M  V30 51 1 22 47
M  V30 52 1 23 48
M  V30 53 1 26 49
M  V30 54 1 29 50
M  V30 END BOND
M  V30 END CTAB
M  END
>  <Dataset>  (96) 
ChEMBL_Kinases

>  <Ligand_Instance>  (96) 
nan

>  <PDB_ID>  (96) 
nan

>  <Standardized_SMILES>  (96) 
Cc1cccc(-c2nc(NCc3ccccc3C)sc2-c2ccc3ncnn3c2)n1

>  <Name>  (96) 
nan

>  <Pocket>  (96) 
nan

>  <ATP_Site>  (96) 
nan

>  <Peripheral>  (96) 
nan

>  <Num_H_Atoms_ProtBoundConf>  (96) 
nan

>  <Num_Resolved_Atoms>  (96) 
nan

>  <Num_Not_Resolved_Atoms>  (96) 
nan

$$$$
CHEMBL2087978
     RDKit          3D

  0  0  0  0  0  0  0  0  0  0999 V3000
M  V30 BEGIN CTAB
M  V30 COUNTS 47 51 0 0 0
M  V30 BEGIN ATOM
M  V30 1 C -0.485521 -5.561173 -1.267422 0
M  V30 2 C 0.403915 -4.580428 -0.580266 0
M  V30 3 C 1.544056 -5.076544 0.029741 0
M  V30 4 C 2.359823 -4.162200 0.662642 0
M  V30 5 C 1.996684 -2.835626 0.649115 0
M  V30 6 C 0.853388 -2.360373 0.033952 0
M  V30 7 C 0.501610 -0.920220 0.051222 0
M  V30 8 N 1.375180 -0.109188 -0.522451 0
M  V30 9 C 1.248103 1.065259 -0.595668 0
M  V30 10 N 1.915124 2.217355 -1.110151 0
M  V30 11 C 1.551873 3.594828 -1.051822 0
M  V30 12 C 1.495057 4.177089 0.305137 0
M  V30 13 C 0.438044 4.510826 1.117975 0
M  V30 14 C 0.665513 5.054655 2.362409 0
M  V30 15 C 1.925670 5.294142 2.861596 0
M  V30 16 C 2.985540 4.962059 2.051512 0
M  V30 17 C 2.780385 4.415135 0.800039 0
M  V30 18 F 3.954315 4.152000 0.138722 0
M  V30 19 S -0.413374 1.352269 0.274575 0
M  V30 20 C -0.674969 -0.362265 0.624056 0
M  V30 21 C -1.648027 -1.270581 1.262208 0
M  V30 22 C -2.865474 -1.268182 0.593916 0
M  V30 23 C -3.865897 -2.095695 1.099295 0
M  V30 24 C -3.565458 -2.855748 2.230059 0
M  V30 25 N -4.357076 -3.727504 2.901930 0
M  V30 26 C -3.626275 -4.213116 3.916332 0
M  V30 27 N -2.418791 -3.631233 3.838775 0
M  V30 28 N -2.360471 -2.800938 2.819016 0
M  V30 29 C -1.356048 -2.010856 2.363361 0
M  V30 30 N 0.053854 -3.271159 -0.588715 0
M  V30 31 H -0.204343 -6.597592 -1.027620 0
M  V30 32 H -1.525359 -5.320526 -0.903837 0
M  V30 33 H -0.373056 -5.384984 -2.345645 0
M  V30 34 H 1.748912 -6.136293 -0.009880 0
M  V30 35 H 3.241803 -4.550541 1.134101 0
M  V30 36 H 2.659526 -2.149338 1.154375 0
M  V30 37 H 2.805590 1.901620 -1.591112 0
M  V30 38 H 0.575909 3.739105 -1.598124 0
M  V30 39 H 2.283555 4.153172 -1.682626 0
M  V30 40 H -0.505870 4.298836 0.656475 0
M  V30 41 H -0.199557 5.288225 2.941274 0
M  V30 42 H 2.076549 5.719359 3.835441 0
M  V30 43 H 3.969954 5.163382 2.472445 0
M  V30 44 H -3.132345 -0.706333 -0.265269 0
M  V30 45 H -4.843199 -2.153966 0.638915 0
M  V30 46 H -4.020578 -4.938808 4.618585 0
M  V30 47 H -0.378161 -1.952178 2.823008 0
M  V30 END ATOM
M  V30 BEGIN BOND
M  V30 1 1 1 2
M  V30 2 2 2 3
M  V30 3 1 3 4
M  V30 4 2 4 5
M  V30 5 1 5 6
M  V30 6 1 6 7
M  V30 7 1 7 8
M  V30 8 2 8 9
M  V30 9 1 9 10
M  V30 10 1 10 11
M  V30 11 1 11 12
M  V30 12 2 12 13
M  V30 13 1 13 14
M  V30 14 2 14 15
M  V30 15 1 15 16
M  V30 16 2 16 17
M  V30 17 1 17 18
M  V30 18 1 9 19
M  V30 19 1 19 20
M  V30 20 1 20 21
M  V30 21 1 21 22
M  V30 22 2 22 23
M  V30 23 1 23 24
M  V30 24 2 24 25
M  V30 25 1 25 26
M  V30 26 2 26 27
M  V30 27 1 27 28
M  V30 28 1 28 29
M  V30 29 2 6 30
M  V30 30 1 30 2
M  V30 31 2 20 7
M  V30 32 2 29 21
M  V30 33 1 17 12
M  V30 34 1 28 24
M  V30 35 1 1 31
M  V30 36 1 1 32
M  V30 37 1 1 33
M  V30 38 1 3 34
M  V30 39 1 4 35
M  V30 40 1 5 36
M  V30 41 1 10 37
M  V30 42 1 11 38
M  V30 43 1 11 39
M  V30 44 1 13 40
M  V30 45 1 14 41
M  V30 46 1 15 42
M  V30 47 1 16 43
M  V30 48 1 22 44
M  V30 49 1 23 45
M  V30 50 1 26 46
M  V30 51 1 29 47
M  V30 END BOND
M  V30 END CTAB
M  END
>  <Dataset>  (97) 
ChEMBL_Kinases

>  <Ligand_Instance>  (97) 
nan

>  <PDB_ID>  (97) 
nan

>  <Standardized_SMILES>  (97) 
Cc1cccc(-c2nc(NCc3ccccc3F)sc2-c2ccc3ncnn3c2)n1

>  <Name>  (97) 
nan

>  <Pocket>  (97) 
nan

>  <ATP_Site>  (97) 
nan

>  <Peripheral>  (97) 
nan

>  <Num_H_Atoms_ProtBoundConf>  (97) 
nan

>  <Num_Resolved_Atoms>  (97) 
nan

>  <Num_Not_Resolved_Atoms>  (97) 
nan

$$$$
CHEMBL2087977
     RDKit          3D

  0  0  0  0  0  0  0  0  0  0999 V3000
M  V30 BEGIN CTAB
M  V30 COUNTS 48 52 0 0 0
M  V30 BEGIN ATOM
M  V30 1 C -0.594959 -2.092688 4.416373 0
M  V30 2 C 0.253938 -2.114077 3.184743 0
M  V30 3 C 1.491167 -2.717168 3.216063 0
M  V30 4 C 2.315176 -2.759210 2.088470 0
M  V30 5 C 1.870746 -2.177881 0.912719 0
M  V30 6 C 0.626202 -1.582253 0.916383 0
M  V30 7 C -0.046143 -0.906039 -0.214981 0
M  V30 8 N 0.567604 0.157405 -0.720253 0
M  V30 9 C 0.122058 0.793237 -1.641750 0
M  V30 10 N 0.472469 1.941497 -2.425271 0
M  V30 11 C 1.676980 2.663535 -2.160837 0
M  V30 12 C 1.688473 3.223997 -0.787560 0
M  V30 13 C 2.170158 2.714934 0.392519 0
M  V30 14 C 2.058697 3.428914 1.557328 0
M  V30 15 C 1.463766 4.685764 1.613436 0
M  V30 16 C 1.366455 5.394438 2.835797 0
M  V30 17 N 1.298425 5.969935 3.844249 0
M  V30 18 C 0.978797 5.199623 0.427445 0
M  V30 19 C 1.086554 4.487110 -0.751678 0
M  V30 20 S -1.462849 -0.060213 -2.069065 0
M  V30 21 C -1.322939 -1.281291 -0.844992 0
M  V30 22 C -2.009084 -2.442296 -0.305620 0
M  V30 23 C -3.268207 -2.417405 0.260461 0
M  V30 24 C -3.753281 -3.626713 0.718019 0
M  V30 25 C -3.015385 -4.804336 0.614746 0
M  V30 26 N -3.268881 -6.076636 0.979508 0
M  V30 27 C -2.218692 -6.862863 0.657651 0
M  V30 28 N -1.313137 -6.037557 0.084915 0
M  V30 29 N -1.787862 -4.801593 0.057538 0
M  V30 30 C -1.285629 -3.626524 -0.401046 0
M  V30 31 N -0.167047 -1.548951 2.024778 0
M  V30 32 H -1.381990 -1.290893 4.319718 0
M  V30 33 H -1.101446 -3.049256 4.543267 0
M  V30 34 H 0.064755 -1.814129 5.262817 0
M  V30 35 H 1.869895 -3.182808 4.123077 0
M  V30 36 H 3.290254 -3.213896 2.047427 0
M  V30 37 H 2.386160 -2.127729 -0.036504 0
M  V30 38 H -0.112475 2.312700 -3.215433 0
M  V30 39 H 1.900424 3.431405 -2.921557 0
M  V30 40 H 2.502471 1.887334 -2.174973 0
M  V30 41 H 2.616787 1.747115 0.269866 0
M  V30 42 H 2.454819 2.979565 2.454372 0
M  V30 43 H 0.525729 6.166925 0.494234 0
M  V30 44 H 0.657667 5.020289 -1.610933 0
M  V30 45 H -3.784228 -1.475700 0.309481 0
M  V30 46 H -4.719279 -3.654791 1.161671 0
M  V30 47 H -2.118905 -7.932023 0.822279 0
M  V30 48 H -0.300183 -3.696021 -0.834175 0
M  V30 END ATOM
M  V30 BEGIN BOND
M  V30 1 1 1 2
M  V30 2 2 2 3
M  V30 3 1 3 4
M  V30 4 2 4 5
M  V30 5 1 5 6
M  V30 6 1 6 7
M  V30 7 1 7 8
M  V30 8 2 8 9
M  V30 9 1 9 10
M  V30 10 1 10 11
M  V30 11 1 11 12
M  V30 12 2 12 13
M  V30 13 1 13 14
M  V30 14 2 14 15
M  V30 15 1 15 16
M  V30 16 3 16 17
M  V30 17 1 15 18
M  V30 18 2 18 19
M  V30 19 1 9 20
M  V30 20 1 20 21
M  V30 21 1 21 22
M  V30 22 1 22 23
M  V30 23 2 23 24
M  V30 24 1 24 25
M  V30 25 2 25 26
M  V30 26 1 26 27
M  V30 27 2 27 28
M  V30 28 1 28 29
M  V30 29 1 29 30
M  V30 30 2 6 31
M  V30 31 1 31 2
M  V30 32 2 21 7
M  V30 33 2 30 22
M  V30 34 1 19 12
M  V30 35 1 29 25
M  V30 36 1 1 32
M  V30 37 1 1 33
M  V30 38 1 1 34
M  V30 39 1 3 35
M  V30 40 1 4 36
M  V30 41 1 5 37
M  V30 42 1 10 38
M  V30 43 1 11 39
M  V30 44 1 11 40
M  V30 45 1 13 41
M  V30 46 1 14 42
M  V30 47 1 18 43
M  V30 48 1 19 44
M  V30 49 1 23 45
M  V30 50 1 24 46
M  V30 51 1 27 47
M  V30 52 1 30 48
M  V30 END BOND
M  V30 END CTAB
M  END
>  <Dataset>  (98) 
ChEMBL_Kinases

>  <Ligand_Instance>  (98) 
nan

>  <PDB_ID>  (98) 
nan

>  <Standardized_SMILES>  (98) 
Cc1cccc(-c2nc(NCc3ccc(C#N)cc3)sc2-c2ccc3ncnn3c2)n1

>  <Name>  (98) 
nan

>  <Pocket>  (98) 
nan

>  <ATP_Site>  (98) 
nan

>  <Peripheral>  (98) 
nan

>  <Num_H_Atoms_ProtBoundConf>  (98) 
nan

>  <Num_Resolved_Atoms>  (98) 
nan

>  <Num_Not_Resolved_Atoms>  (98) 
nan

$$$$
CHEMBL2087976
     RDKit          3D

  0  0  0  0  0  0  0  0  0  0999 V3000
M  V30 BEGIN CTAB
M  V30 COUNTS 51 55 0 0 0
M  V30 BEGIN ATOM
M  V30 1 C 2.161731 -4.470178 3.893842 0
M  V30 2 C 1.512993 -3.206370 3.444736 0
M  V30 3 C 0.687584 -2.462527 4.267928 0
M  V30 4 C 0.082075 -1.274815 3.845830 0
M  V30 5 C 0.340810 -0.859790 2.551220 0
M  V30 6 C 1.161577 -1.607784 1.745545 0
M  V30 7 C 1.396559 -1.098321 0.402202 0
M  V30 8 N 1.969471 0.035342 0.072836 0
M  V30 9 C 2.206142 0.515619 -0.925809 0
M  V30 10 N 2.835152 1.792062 -1.285976 0
M  V30 11 C 1.838423 2.761819 -1.664611 0
M  V30 12 C 0.832524 3.056848 -0.622299 0
M  V30 13 C 0.975588 4.102839 0.297615 0
M  V30 14 C 0.025035 4.368655 1.256085 0
M  V30 15 C -1.126711 3.601334 1.350299 0
M  V30 16 O -2.184861 3.718698 2.238816 0
M  V30 17 C -3.314017 4.530971 1.953665 0
M  V30 18 F -3.970248 4.132152 0.803046 0
M  V30 19 F -4.223782 4.462387 2.989186 0
M  V30 20 F -2.867966 5.840833 1.737712 0
M  V30 21 C -1.319475 2.544892 0.458220 0
M  V30 22 C -0.325957 2.315333 -0.496833 0
M  V30 23 S 1.518589 -0.824797 -2.121928 0
M  V30 24 C 0.998086 -1.867090 -0.683917 0
M  V30 25 C 0.311704 -3.181152 -0.907676 0
M  V30 26 C 0.952695 -4.350175 -1.276521 0
M  V30 27 C 0.208871 -5.493704 -1.474805 0
M  V30 28 C -1.158684 -5.423047 -1.295700 0
M  V30 29 N -2.158091 -6.349072 -1.415038 0
M  V30 30 C -3.341142 -5.774110 -1.134507 0
M  V30 31 N -3.104830 -4.474304 -0.833047 0
M  V30 32 N -1.787145 -4.265565 -0.931275 0
M  V30 33 C -1.053840 -3.128160 -0.732740 0
M  V30 34 N 1.732276 -2.757508 2.192069 0
M  V30 35 H 3.196438 -4.271288 4.220788 0
M  V30 36 H 1.544386 -4.928098 4.704398 0
M  V30 37 H 2.226117 -5.226392 3.072066 0
M  V30 38 H 0.499221 -2.805951 5.271758 0
M  V30 39 H -0.568990 -0.673970 4.472125 0
M  V30 40 H -0.111259 0.069478 2.172309 0
M  V30 41 H 3.841069 1.590431 -1.152560 0
M  V30 42 H 2.387711 3.712306 -1.834103 0
M  V30 43 H 1.333346 2.457596 -2.629418 0
M  V30 44 H 1.834728 4.727805 0.274103 0
M  V30 45 H 0.061208 5.152944 1.992707 0
M  V30 46 H -2.167899 1.862931 0.414631 0
M  V30 47 H -0.444245 1.498640 -1.209836 0
M  V30 48 H 2.027490 -4.289079 -1.388786 0
M  V30 49 H 0.702474 -6.407031 -1.760749 0
M  V30 50 H -4.310406 -6.281470 -1.152474 0
M  V30 51 H -1.614819 -2.226876 -0.440467 0
M  V30 END ATOM
M  V30 BEGIN BOND
M  V30 1 1 1 2
M  V30 2 2 2 3
M  V30 3 1 3 4
M  V30 4 2 4 5
M  V30 5 1 5 6
M  V30 6 1 6 7
M  V30 7 1 7 8
M  V30 8 2 8 9
M  V30 9 1 9 10
M  V30 10 1 10 11
M  V30 11 1 11 12
M  V30 12 2 12 13
M  V30 13 1 13 14
M  V30 14 2 14 15
M  V30 15 1 15 16
M  V30 16 1 16 17
M  V30 17 1 17 18
M  V30 18 1 17 19
M  V30 19 1 17 20
M  V30 20 1 15 21
M  V30 21 2 21 22
M  V30 22 1 9 23
M  V30 23 1 23 24
M  V30 24 1 24 25
M  V30 25 1 25 26
M  V30 26 2 26 27
M  V30 27 1 27 28
M  V30 28 2 28 29
M  V30 29 1 29 30
M  V30 30 2 30 31
M  V30 31 1 31 32
M  V30 32 1 32 33
M  V30 33 2 6 34
M  V30 34 1 34 2
M  V30 35 2 24 7
M  V30 36 2 33 25
M  V30 37 1 22 12
M  V30 38 1 32 28
M  V30 39 1 1 35
M  V30 40 1 1 36
M  V30 41 1 1 37
M  V30 42 1 3 38
M  V30 43 1 4 39
M  V30 44 1 5 40
M  V30 45 1 10 41
M  V30 46 1 11 42
M  V30 47 1 11 43
M  V30 48 1 13 44
M  V30 49 1 14 45
M  V30 50 1 21 46
M  V30 51 1 22 47
M  V30 52 1 26 48
M  V30 53 1 27 49
M  V30 54 1 30 50
M  V30 55 1 33 51
M  V30 END BOND
M  V30 END CTAB
M  END
>  <Dataset>  (99) 
ChEMBL_Kinases

>  <Ligand_Instance>  (99) 
nan

>  <PDB_ID>  (99) 
nan

>  <Standardized_SMILES>  (99) 
Cc1cccc(-c2nc(NCc3ccc(OC(F)(F)F)cc3)sc2-c2ccc3ncnn3c2)n1

>  <Name>  (99) 
nan

>  <Pocket>  (99) 
nan

>  <ATP_Site>  (99) 
nan

>  <Peripheral>  (99) 
nan

>  <Num_H_Atoms_ProtBoundConf>  (99) 
nan

>  <Num_Resolved_Atoms>  (99) 
nan

>  <Num_Not_Resolved_Atoms>  (99) 
nan

$$$$
CHEMBL2087975
     RDKit          3D

  0  0  0  0  0  0  0  0  0  0999 V3000
M  V30 BEGIN CTAB
M  V30 COUNTS 51 55 0 0 0
M  V30 BEGIN ATOM
M  V30 1 C -0.382779 -3.423348 5.225417 0
M  V30 2 O 0.883025 -3.975519 4.842734 0
M  V30 3 C 1.726125 -3.231688 4.033468 0
M  V30 4 C 1.411269 -1.959091 3.562560 0
M  V30 5 C 2.313854 -1.289639 2.759303 0
M  V30 6 C 3.534901 -1.812424 2.385102 0
M  V30 7 C 4.352340 -0.946340 1.529222 0
M  V30 8 N 4.138866 -1.111348 0.116953 0
M  V30 9 C 2.732681 -0.816885 -0.128067 0
M  V30 10 N 2.143504 0.174934 -0.364141 0
M  V30 11 C 0.841088 0.262986 -0.566543 0
M  V30 12 C 0.261954 1.599019 -0.852313 0
M  V30 13 C 0.647977 2.322618 -1.964800 0
M  V30 14 C 0.080380 3.560810 -2.187405 0
M  V30 15 C -0.860841 4.097289 -1.332607 0
M  V30 16 C -1.231159 3.339986 -0.214290 0
M  V30 17 C -2.226426 3.722143 0.838540 0
M  V30 18 N -0.656689 2.123385 -0.018168 0
M  V30 19 C 0.089440 -0.903282 -0.498677 0
M  V30 20 C -1.292052 -1.142241 -0.663325 0
M  V30 21 C -2.376180 -0.705346 0.075467 0
M  V30 22 C -3.673707 -1.051760 -0.252718 0
M  V30 23 C -3.893892 -1.857979 -1.350812 0
M  V30 24 N -5.067456 -2.311237 -1.843146 0
M  V30 25 C -4.727855 -3.059294 -2.926896 0
M  V30 26 N -3.396859 -3.036102 -3.053186 0
M  V30 27 N -2.863298 -2.300131 -2.090346 0
M  V30 28 C -1.607085 -1.955448 -1.759865 0
M  V30 29 S 1.418803 -2.148205 -0.116553 0
M  V30 30 C 3.837291 -3.091880 2.866045 0
M  V30 31 C 2.944077 -3.754865 3.661047 0
M  V30 32 H -1.022666 -4.175579 5.699922 0
M  V30 33 H -0.876155 -3.065000 4.312196 0
M  V30 34 H -0.181995 -2.607650 5.965067 0
M  V30 35 H 0.445173 -1.518576 3.845222 0
M  V30 36 H 1.975908 -0.310383 2.446449 0
M  V30 37 H 4.222345 0.111723 1.816062 0
M  V30 38 H 5.441092 -1.211347 1.686171 0
M  V30 39 H 4.847048 -1.387835 -0.600184 0
M  V30 40 H 1.381236 1.934741 -2.655123 0
M  V30 41 H 0.331664 4.188748 -3.038224 0
M  V30 42 H -1.368570 5.048651 -1.405196 0
M  V30 43 H -1.820826 3.423321 1.817332 0
M  V30 44 H -2.384628 4.815936 0.751530 0
M  V30 45 H -3.188574 3.239293 0.608196 0
M  V30 46 H -2.100820 -0.079948 0.916510 0
M  V30 47 H -4.472093 -0.656822 0.392883 0
M  V30 48 H -5.301076 -3.622970 -3.644704 0
M  V30 49 H -0.845554 -2.374522 -2.434713 0
M  V30 50 H 4.808545 -3.456903 2.543335 0
M  V30 51 H 3.256353 -4.740701 3.989929 0
M  V30 END ATOM
M  V30 BEGIN BOND
M  V30 1 1 1 2
M  V30 2 1 2 3
M  V30 3 2 3 4
M  V30 4 1 4 5
M  V30 5 2 5 6
M  V30 6 1 6 7
M  V30 7 1 7 8
M  V30 8 1 8 9
M  V30 9 2 9 10
M  V30 10 1 10 11
M  V30 11 1 11 12
M  V30 12 2 12 13
M  V30 13 1 13 14
M  V30 14 2 14 15
M  V30 15 1 15 16
M  V30 16 1 16 17
M  V30 17 2 16 18
M  V30 18 2 11 19
M  V30 19 1 19 20
M  V30 20 1 20 21
M  V30 21 2 21 22
M  V30 22 1 22 23
M  V30 23 2 23 24
M  V30 24 1 24 25
M  V30 25 2 25 26
M  V30 26 1 26 27
M  V30 27 1 27 28
M  V30 28 1 19 29
M  V30 29 1 6 30
M  V30 30 2 30 31
M  V30 31 1 31 3
M  V30 32 1 29 9
M  V30 33 1 18 12
M  V30 34 2 28 20
M  V30 35 1 27 23
M  V30 36 1 1 32
M  V30 37 1 1 33
M  V30 38 1 1 34
M  V30 39 1 4 35
M  V30 40 1 5 36
M  V30 41 1 7 37
M  V30 42 1 7 38
M  V30 43 1 8 39
M  V30 44 1 13 40
M  V30 45 1 14 41
M  V30 46 1 15 42
M  V30 47 1 17 43
M  V30 48 1 17 44
M  V30 49 1 17 45
M  V30 50 1 21 46
M  V30 51 1 22 47
M  V30 52 1 25 48
M  V30 53 1 28 49
M  V30 54 1 30 50
M  V30 55 1 31 51
M  V30 END BOND
M  V30 END CTAB
M  END
>  <Dataset>  (100) 
ChEMBL_Kinases

>  <Ligand_Instance>  (100) 
nan

>  <PDB_ID>  (100) 
nan

>  <Standardized_SMILES>  (100) 
COc1ccc(CNc2nc(-c3cccc(C)n3)c(-c3ccc4ncnn4c3)s2)cc1

>  <Name>  (100) 
nan

>  <Pocket>  (100) 
nan

>  <ATP_Site>  (100) 
nan

>  <Peripheral>  (100) 
nan

>  <Num_H_Atoms_ProtBoundConf>  (100) 
nan

>  <Num_Resolved_Atoms>  (100) 
nan

>  <Num_Not_Resolved_Atoms>  (100) 
nan

$$$$
CHEMBL2087974
     RDKit          3D

  0  0  0  0  0  0  0  0  0  0999 V3000
M  V30 BEGIN CTAB
M  V30 COUNTS 50 54 0 0 0
M  V30 BEGIN ATOM
M  V30 1 C -0.464330 -4.583425 4.324513 0
M  V30 2 C 0.756483 -3.996306 3.718506 0
M  V30 3 C 0.691851 -2.618453 3.507446 0
M  V30 4 C 1.810165 -2.014335 2.940725 0
M  V30 5 C 2.965752 -2.702871 2.581646 0
M  V30 6 C 4.076923 -1.906457 1.984627 0
M  V30 7 N 3.889074 -1.886787 0.542848 0
M  V30 8 C 2.631969 -1.297969 0.187984 0
M  V30 9 N 2.257360 -0.142230 -0.066551 0
M  V30 10 C 1.003957 0.125084 -0.371495 0
M  V30 11 C 0.684601 1.524083 -0.652130 0
M  V30 12 C -0.221548 2.215172 0.162611 0
M  V30 13 C -0.604173 3.529375 0.000866 0
M  V30 14 C -0.051062 4.228255 -1.050890 0
M  V30 15 C 0.854323 3.542226 -1.867135 0
M  V30 16 C 1.446857 4.300850 -2.999529 0
M  V30 17 N 1.179348 2.273800 -1.654571 0
M  V30 18 C 0.082792 -0.877598 -0.413613 0
M  V30 19 C -1.345142 -0.712478 -0.738065 0
M  V30 20 C -1.795592 -0.248063 -1.937326 0
M  V30 21 C -3.162881 -0.145853 -2.102352 0
M  V30 22 C -4.031736 -0.510120 -1.066054 0
M  V30 23 N -5.377009 -0.492109 -1.010394 0
M  V30 24 C -5.771542 -0.940799 0.212194 0
M  V30 25 N -4.624786 -1.230615 0.893942 0
M  V30 26 N -3.572560 -0.973893 0.130802 0
M  V30 27 C -2.226887 -1.065624 0.269531 0
M  V30 28 S 1.012618 -2.285040 -0.003831 0
M  V30 29 C 2.984655 -4.044438 2.805389 0
M  V30 30 C 1.899408 -4.688115 3.365248 0
M  V30 31 H -1.347690 -4.441189 3.665859 0
M  V30 32 H -0.358536 -5.683107 4.512281 0
M  V30 33 H -0.652988 -4.154637 5.338819 0
M  V30 34 H -0.161745 -1.991849 3.752327 0
M  V30 35 H 1.765540 -0.939681 2.773653 0
M  V30 36 H 5.068548 -2.318386 2.263500 0
M  V30 37 H 4.028577 -0.850136 2.331561 0
M  V30 38 H 4.599707 -2.262850 -0.138422 0
M  V30 39 H -0.649255 1.644515 0.991018 0
M  V30 40 H -1.305881 3.943531 0.691706 0
M  V30 41 H -0.355725 5.258785 -1.172024 0
M  V30 42 H 1.458504 5.377012 -2.753632 0
M  V30 43 H 2.477393 3.924955 -3.124241 0
M  V30 44 H 0.832700 4.122217 -3.923135 0
M  V30 45 H -1.096397 0.018484 -2.700336 0
M  V30 46 H -3.566060 0.220977 -3.046155 0
M  V30 47 H -6.729678 -1.093701 0.691761 0
M  V30 48 H -1.854512 -1.440663 1.236522 0
M  V30 49 H 3.876344 -4.590812 2.530628 0
M  V30 50 H 1.893788 -5.760166 3.552635 0
M  V30 END ATOM
M  V30 BEGIN BOND
M  V30 1 1 1 2
M  V30 2 2 2 3
M  V30 3 1 3 4
M  V30 4 2 4 5
M  V30 5 1 5 6
M  V30 6 1 6 7
M  V30 7 1 7 8
M  V30 8 2 8 9
M  V30 9 1 9 10
M  V30 10 1 10 11
M  V30 11 2 11 12
M  V30 12 1 12 13
M  V30 13 2 13 14
M  V30 14 1 14 15
M  V30 15 1 15 16
M  V30 16 2 15 17
M  V30 17 2 10 18
M  V30 18 1 18 19
M  V30 19 1 19 20
M  V30 20 2 20 21
M  V30 21 1 21 22
M  V30 22 2 22 23
M  V30 23 1 23 24
M  V30 24 2 24 25
M  V30 25 1 25 26
M  V30 26 1 26 27
M  V30 27 1 18 28
M  V30 28 1 5 29
M  V30 29 2 29 30
M  V30 30 1 30 2
M  V30 31 1 28 8
M  V30 32 1 17 11
M  V30 33 2 27 19
M  V30 34 1 26 22
M  V30 35 1 1 31
M  V30 36 1 1 32
M  V30 37 1 1 33
M  V30 38 1 3 34
M  V30 39 1 4 35
M  V30 40 1 6 36
M  V30 41 1 6 37
M  V30 42 1 7 38
M  V30 43 1 12 39
M  V30 44 1 13 40
M  V30 45 1 14 41
M  V30 46 1 16 42
M  V30 47 1 16 43
M  V30 48 1 16 44
M  V30 49 1 20 45
M  V30 50 1 21 46
M  V30 51 1 24 47
M  V30 52 1 27 48
M  V30 53 1 29 49
M  V30 54 1 30 50
M  V30 END BOND
M  V30 END CTAB
M  END
>  <Dataset>  (101) 
ChEMBL_Kinases

>  <Ligand_Instance>  (101) 
nan

>  <PDB_ID>  (101) 
nan

>  <Standardized_SMILES>  (101) 
Cc1ccc(CNc2nc(-c3cccc(C)n3)c(-c3ccc4ncnn4c3)s2)cc1

>  <Name>  (101) 
nan

>  <Pocket>  (101) 
nan

>  <ATP_Site>  (101) 
nan

>  <Peripheral>  (101) 
nan

>  <Num_H_Atoms_ProtBoundConf>  (101) 
nan

>  <Num_Resolved_Atoms>  (101) 
nan

>  <Num_Not_Resolved_Atoms>  (101) 
nan

$$$$
CHEMBL2087973
     RDKit          3D

  0  0  0  0  0  0  0  0  0  0999 V3000
M  V30 BEGIN CTAB
M  V30 COUNTS 47 51 0 0 0
M  V30 BEGIN ATOM
M  V30 1 C -0.279511 -4.153876 -2.213398 0
M  V30 2 C 0.368777 -3.239344 -1.206660 0
M  V30 3 C 1.560426 -3.585955 -0.604096 0
M  V30 4 C 2.171636 -2.750603 0.328639 0
M  V30 5 C 1.516436 -1.568179 0.607936 0
M  V30 6 C 0.324910 -1.206754 0.014607 0
M  V30 7 C -0.352413 0.069102 0.337100 0
M  V30 8 N 0.348875 1.157198 0.064559 0
M  V30 9 C -0.125802 2.286750 0.296720 0
M  V30 10 N 0.350915 3.621648 0.126962 0
M  V30 11 C 1.071451 4.162232 1.272667 0
M  V30 12 C 2.249200 3.290748 1.521055 0
M  V30 13 C 3.401250 3.675192 0.840961 0
M  V30 14 C 4.562472 2.916206 1.011288 0
M  V30 15 C 4.554004 1.808171 1.841227 0
M  V30 16 Cl 5.998567 0.815041 2.089565 0
M  V30 17 C 3.405609 1.425623 2.518581 0
M  V30 18 C 2.263371 2.182147 2.343669 0
M  V30 19 S -1.858305 1.955096 1.030238 0
M  V30 20 C -1.655014 0.173368 0.897620 0
M  V30 21 C -2.448370 -0.958999 1.208141 0
M  V30 22 C -3.653485 -1.011006 0.502164 0
M  V30 23 C -4.551307 -2.061611 0.690386 0
M  V30 24 C -4.184586 -3.031136 1.600724 0
M  V30 25 N -4.788979 -4.161989 2.026261 0
M  V30 26 C -4.012317 -4.775869 2.938114 0
M  V30 27 N -2.899804 -4.022560 3.092145 0
M  V30 28 N -3.005404 -2.968451 2.283191 0
M  V30 29 C -2.136788 -1.955537 2.103558 0
M  V30 30 N -0.210995 -2.072913 -0.885601 0
M  V30 31 H 0.457877 -4.893685 -2.583773 0
M  V30 32 H -1.042530 -4.742580 -1.631690 0
M  V30 33 H -0.808484 -3.621954 -3.000612 0
M  V30 34 H 2.037731 -4.534684 -0.861652 0
M  V30 35 H 3.106432 -3.001838 0.814299 0
M  V30 36 H 1.966394 -0.887199 1.335293 0
M  V30 37 H 0.235010 4.214808 -0.702873 0
M  V30 38 H 0.442987 4.081020 2.203122 0
M  V30 39 H 1.379835 5.206157 1.106020 0
M  V30 40 H 3.480786 4.529596 0.176194 0
M  V30 41 H 5.520059 3.121651 0.531102 0
M  V30 42 H 3.346240 0.570059 3.177542 0
M  V30 43 H 1.316327 1.981601 2.816336 0
M  V30 44 H -3.983342 -0.266874 -0.226307 0
M  V30 45 H -5.495160 -2.137134 0.162141 0
M  V30 46 H -4.157807 -5.693193 3.495980 0
M  V30 47 H -1.197087 -1.883764 2.632147 0
M  V30 END ATOM
M  V30 BEGIN BOND
M  V30 1 1 1 2
M  V30 2 2 2 3
M  V30 3 1 3 4
M  V30 4 2 4 5
M  V30 5 1 5 6
M  V30 6 1 6 7
M  V30 7 1 7 8
M  V30 8 2 8 9
M  V30 9 1 9 10
M  V30 10 1 10 11
M  V30 11 1 11 12
M  V30 12 2 12 13
M  V30 13 1 13 14
M  V30 14 2 14 15
M  V30 15 1 15 16
M  V30 16 1 15 17
M  V30 17 2 17 18
M  V30 18 1 9 19
M  V30 19 1 19 20
M  V30 20 1 20 21
M  V30 21 1 21 22
M  V30 22 2 22 23
M  V30 23 1 23 24
M  V30 24 2 24 25
M  V30 25 1 25 26
M  V30 26 2 26 27
M  V30 27 1 27 28
M  V30 28 1 28 29
M  V30 29 2 6 30
M  V30 30 1 30 2
M  V30 31 2 20 7
M  V30 32 2 29 21
M  V30 33 1 18 12
M  V30 34 1 28 24
M  V30 35 1 1 31
M  V30 36 1 1 32
M  V30 37 1 1 33
M  V30 38 1 3 34
M  V30 39 1 4 35
M  V30 40 1 5 36
M  V30 41 1 10 37
M  V30 42 1 11 38
M  V30 43 1 11 39
M  V30 44 1 13 40
M  V30 45 1 14 41
M  V30 46 1 17 42
M  V30 47 1 18 43
M  V30 48 1 22 44
M  V30 49 1 23 45
M  V30 50 1 26 46
M  V30 51 1 29 47
M  V30 END BOND
M  V30 END CTAB
M  END
>  <Dataset>  (102) 
ChEMBL_Kinases

>  <Ligand_Instance>  (102) 
nan

>  <PDB_ID>  (102) 
nan

>  <Standardized_SMILES>  (102) 
Cc1cccc(-c2nc(NCc3ccc(Cl)cc3)sc2-c2ccc3ncnn3c2)n1

>  <Name>  (102) 
nan

>  <Pocket>  (102) 
nan

>  <ATP_Site>  (102) 
nan

>  <Peripheral>  (102) 
nan

>  <Num_H_Atoms_ProtBoundConf>  (102) 
nan

>  <Num_Resolved_Atoms>  (102) 
nan

>  <Num_Not_Resolved_Atoms>  (102) 
nan

$$$$
CHEMBL2087969
     RDKit          3D

  0  0  0  0  0  0  0  0  0  0999 V3000
M  V30 BEGIN CTAB
M  V30 COUNTS 51 55 0 0 0
M  V30 BEGIN ATOM
M  V30 1 C 0.180087 -2.236239 3.528536 0
M  V30 2 O 1.593261 -2.202088 3.502245 0
M  V30 3 C 2.289626 -1.003333 3.564977 0
M  V30 4 C 3.679807 -0.926493 3.541919 0
M  V30 5 C 4.349431 0.291378 3.606526 0
M  V30 6 C 3.640808 1.478775 3.696882 0
M  V30 7 C 2.261302 1.430054 3.721513 0
M  V30 8 C 1.363824 2.589587 3.813912 0
M  V30 9 N 0.973688 3.143800 2.539134 0
M  V30 10 C 0.261348 2.139873 1.711204 0
M  V30 11 N 0.590211 1.372591 0.955063 0
M  V30 12 C -0.122095 0.511692 0.259571 0
M  V30 13 C 0.469897 -0.423586 -0.689237 0
M  V30 14 C 1.385364 -1.377379 -0.290959 0
M  V30 15 C 1.880245 -2.213318 -1.289676 0
M  V30 16 C 1.474422 -2.092525 -2.610864 0
M  V30 17 C 0.555332 -1.118300 -2.947605 0
M  V30 18 C 0.102336 -0.966673 -4.357840 0
M  V30 19 N 0.078556 -0.310269 -1.975308 0
M  V30 20 C -1.550683 0.565398 0.511209 0
M  V30 21 C -2.510876 -0.329115 -0.180288 0
M  V30 22 C -3.523206 0.111750 -0.994656 0
M  V30 23 C -4.323033 -0.870937 -1.554443 0
M  V30 24 C -4.080837 -2.209652 -1.282105 0
M  V30 25 N -4.723222 -3.315775 -1.711624 0
M  V30 26 C -4.085585 -4.378288 -1.149293 0
M  V30 27 N -3.074722 -3.936507 -0.391677 0
M  V30 28 N -3.058971 -2.595033 -0.463880 0
M  V30 29 C -2.273389 -1.650728 0.087182 0
M  V30 30 S -1.628047 1.937852 1.791405 0
M  V30 31 C 1.600986 0.203552 3.656182 0
M  V30 32 H -0.272094 -1.591200 2.743139 0
M  V30 33 H -0.165231 -3.267562 3.343142 0
M  V30 34 H -0.186670 -1.924413 4.536038 0
M  V30 35 H 4.218536 -1.872533 3.470352 0
M  V30 36 H 5.439513 0.325137 3.586915 0
M  V30 37 H 4.098618 2.453677 3.750144 0
M  V30 38 H 0.437268 2.357614 4.378472 0
M  V30 39 H 1.826267 3.440201 4.390953 0
M  V30 40 H 1.092147 4.095023 2.092701 0
M  V30 41 H 1.688518 -1.453324 0.749529 0
M  V30 42 H 2.603071 -2.977950 -1.019239 0
M  V30 43 H 1.880889 -2.762726 -3.368295 0
M  V30 44 H 0.029763 -2.000657 -4.792617 0
M  V30 45 H 0.920270 -0.475215 -4.928061 0
M  V30 46 H -0.869120 -0.442839 -4.425270 0
M  V30 47 H -3.629516 1.166591 -1.143324 0
M  V30 48 H -5.132935 -0.557247 -2.203531 0
M  V30 49 H -4.523147 -5.337244 -1.428814 0
M  V30 50 H -1.487286 -2.036619 0.721936 0
M  V30 51 H 0.502976 0.114513 3.672483 0
M  V30 END ATOM
M  V30 BEGIN BOND
M  V30 1 1 1 2
M  V30 2 1 2 3
M  V30 3 2 3 4
M  V30 4 1 4 5
M  V30 5 2 5 6
M  V30 6 1 6 7
M  V30 7 1 7 8
M  V30 8 1 8 9
M  V30 9 1 9 10
M  V30 10 2 10 11
M  V30 11 1 11 12
M  V30 12 1 12 13
M  V30 13 2 13 14
M  V30 14 1 14 15
M  V30 15 2 15 16
M  V30 16 1 16 17
M  V30 17 1 17 18
M  V30 18 2 17 19
M  V30 19 2 12 20
M  V30 20 1 20 21
M  V30 21 1 21 22
M  V30 22 2 22 23
M  V30 23 1 23 24
M  V30 24 2 24 25
M  V30 25 1 25 26
M  V30 26 2 26 27
M  V30 27 1 27 28
M  V30 28 1 28 29
M  V30 29 1 20 30
M  V30 30 2 7 31
M  V30 31 1 31 3
M  V30 32 1 30 10
M  V30 33 1 19 13
M  V30 34 2 29 21
M  V30 35 1 28 24
M  V30 36 1 1 32
M  V30 37 1 1 33
M  V30 38 1 1 34
M  V30 39 1 4 35
M  V30 40 1 5 36
M  V30 41 1 6 37
M  V30 42 1 8 38
M  V30 43 1 8 39
M  V30 44 1 9 40
M  V30 45 1 14 41
M  V30 46 1 15 42
M  V30 47 1 16 43
M  V30 48 1 18 44
M  V30 49 1 18 45
M  V30 50 1 18 46
M  V30 51 1 22 47
M  V30 52 1 23 48
M  V30 53 1 26 49
M  V30 54 1 29 50
M  V30 55 1 31 51
M  V30 END BOND
M  V30 END CTAB
M  END
>  <Dataset>  (103) 
ChEMBL_Kinases

>  <Ligand_Instance>  (103) 
nan

>  <PDB_ID>  (103) 
nan

>  <Standardized_SMILES>  (103) 
COc1cccc(CNc2nc(-c3cccc(C)n3)c(-c3ccc4ncnn4c3)s2)c1

>  <Name>  (103) 
nan

>  <Pocket>  (103) 
nan

>  <ATP_Site>  (103) 
nan

>  <Peripheral>  (103) 
nan

>  <Num_H_Atoms_ProtBoundConf>  (103) 
nan

>  <Num_Resolved_Atoms>  (103) 
nan

>  <Num_Not_Resolved_Atoms>  (103) 
nan

$$$$
CHEMBL208790
     RDKit          3D

  0  0  0  0  0  0  0  0  0  0999 V3000
M  V30 BEGIN CTAB
M  V30 COUNTS 56 60 0 0 0
M  V30 BEGIN ATOM
M  V30 1 C 1.522496 -1.795300 2.051287 0
M  V30 2 C 2.636209 -0.859493 1.721552 0
M  V30 3 N 3.857996 -1.337822 1.399385 0
M  V30 4 C 4.656523 -0.271959 1.155662 0
M  V30 5 C 5.982247 -0.174222 0.790684 0
M  V30 6 C 6.551467 1.081072 0.604248 0
M  V30 7 C 5.800365 2.244739 0.781206 0
M  V30 8 C 4.452062 2.173021 1.151886 0
M  V30 9 C 3.947203 0.900949 1.321108 0
M  V30 10 C 2.666209 0.539238 1.679726 0
M  V30 11 C 1.456383 1.300367 1.989943 0
M  V30 12 C 0.430151 1.326103 0.874080 0 CFG=2
M  V30 13 N 1.012312 1.937080 -0.331265 0
M  V30 14 C -0.686639 2.206855 1.334792 0
M  V30 15 O -1.721318 2.414719 0.442930 0
M  V30 16 C -2.576101 1.521164 -0.123107 0
M  V30 17 C -3.441601 2.236642 -0.966034 0
M  V30 18 N -4.429894 1.645910 -1.693652 0
M  V30 19 C -4.633984 0.316050 -1.642533 0
M  V30 20 C -3.794589 -0.405137 -0.820378 0
M  V30 21 C -3.943003 -1.845973 -0.708659 0
M  V30 22 C -5.145897 -2.512259 -0.816742 0
M  V30 23 C -5.202078 -3.901003 -0.698956 0
M  V30 24 C -4.048748 -4.638649 -0.470670 0
M  V30 25 N -3.771225 -5.961069 -0.312595 0
M  V30 26 N -2.458954 -6.114776 -0.114972 0
M  V30 27 C -1.845961 -4.927870 -0.136125 0
M  V30 28 C -0.377934 -4.682865 0.047872 0
M  V30 29 C -2.832839 -4.006830 -0.357462 0
M  V30 30 C -2.834645 -2.642447 -0.481232 0
M  V30 31 C -2.789897 0.169867 -0.076088 0
M  V30 32 H 1.312550 -2.534254 1.280886 0
M  V30 33 H 1.841478 -2.379235 2.952184 0
M  V30 34 H 0.593184 -1.270087 2.356348 0
M  V30 35 H 4.210956 -2.314746 1.326794 0
M  V30 36 H 6.569942 -1.061720 0.651979 0
M  V30 37 H 7.603134 1.114057 0.315277 0
M  V30 38 H 6.251621 3.218045 0.633641 0
M  V30 39 H 3.844872 3.048975 1.296444 0
M  V30 40 H 1.018257 0.902040 2.926243 0
M  V30 41 H 1.713916 2.370870 2.210942 0
M  V30 42 H 0.182726 0.308367 0.603983 0
M  V30 43 H 1.660210 2.717278 -0.085116 0
M  V30 44 H 0.229421 2.378274 -0.865089 0
M  V30 45 H -0.214882 3.221963 1.513559 0
M  V30 46 H -1.046452 1.923866 2.359872 0
M  V30 47 H -3.485488 3.315713 -1.182781 0
M  V30 48 H -5.399713 -0.218627 -2.193323 0
M  V30 49 H -6.027723 -1.925530 -0.993415 0
M  V30 50 H -6.139536 -4.428695 -0.782480 0
M  V30 51 H -4.476151 -6.731308 -0.342071 0
M  V30 52 H 0.194151 -5.449742 -0.512671 0
M  V30 53 H -0.103244 -3.664307 -0.289941 0
M  V30 54 H -0.178947 -4.844246 1.144040 0
M  V30 55 H -1.875654 -2.134177 -0.392383 0
M  V30 56 H -2.091436 -0.304737 0.594031 0
M  V30 END ATOM
M  V30 BEGIN BOND
M  V30 1 1 1 2
M  V30 2 1 2 3
M  V30 3 1 3 4
M  V30 4 2 4 5
M  V30 5 1 5 6
M  V30 6 2 6 7
M  V30 7 1 7 8
M  V30 8 2 8 9
M  V30 9 1 9 10
M  V30 10 1 10 11
M  V30 11 1 11 12
M  V30 12 1 12 13
M  V30 13 1 12 14
M  V30 14 1 14 15
M  V30 15 1 15 16
M  V30 16 2 16 17
M  V30 17 1 17 18
M  V30 18 2 18 19
M  V30 19 1 19 20
M  V30 20 1 20 21
M  V30 21 2 21 22
M  V30 22 1 22 23
M  V30 23 2 23 24
M  V30 24 1 24 25
M  V30 25 1 25 26
M  V30 26 2 26 27
M  V30 27 1 27 28
M  V30 28 1 27 29
M  V30 29 2 29 30
M  V30 30 2 20 31
M  V30 31 2 10 2
M  V30 32 1 31 16
M  V30 33 1 9 4
M  V30 34 1 30 21
M  V30 35 1 29 24
M  V30 36 1 1 32
M  V30 37 1 1 33
M  V30 38 1 1 34
M  V30 39 1 3 35
M  V30 40 1 5 36
M  V30 41 1 6 37
M  V30 42 1 7 38
M  V30 43 1 8 39
M  V30 44 1 11 40
M  V30 45 1 11 41
M  V30 46 1 12 42 CFG=3
M  V30 47 1 13 43
M  V30 48 1 13 44
M  V30 49 1 14 45
M  V30 50 1 14 46
M  V30 51 1 17 47
M  V30 52 1 19 48
M  V30 53 1 22 49
M  V30 54 1 23 50
M  V30 55 1 25 51
M  V30 56 1 28 52
M  V30 57 1 28 53
M  V30 58 1 28 54
M  V30 59 1 30 55
M  V30 60 1 31 56
M  V30 END BOND
M  V30 END CTAB
M  END
>  <Dataset>  (104) 
ChEMBL_Kinases

>  <Ligand_Instance>  (104) 
nan

>  <PDB_ID>  (104) 
nan

>  <Standardized_SMILES>  (104) 
Cc1[nH]c2ccccc2c1C[C@H](N)COc1cncc(-c2ccc3[nH]nc(C)c3c2)c1

>  <Name>  (104) 
nan

>  <Pocket>  (104) 
nan

>  <ATP_Site>  (104) 
nan

>  <Peripheral>  (104) 
nan

>  <Num_H_Atoms_ProtBoundConf>  (104) 
nan

>  <Num_Resolved_Atoms>  (104) 
nan

>  <Num_Not_Resolved_Atoms>  (104) 
nan

$$$$
CHEMBL208761
     RDKit          3D

  0  0  0  0  0  0  0  0  0  0999 V3000
M  V30 BEGIN CTAB
M  V30 COUNTS 73 79 0 0 0
M  V30 BEGIN ATOM
M  V30 1 C 2.052089 -0.508321 4.701620 0
M  V30 2 C 2.666060 -1.627384 3.921566 0
M  V30 3 C 2.208069 -2.920605 4.494539 0
M  V30 4 O 2.412754 -3.268853 5.685569 0
M  V30 5 N 1.523082 -3.667774 3.496910 0
M  V30 6 C 1.547809 -2.855064 2.331727 0
M  V30 7 C 1.003564 -3.161617 1.110764 0
M  V30 8 C 1.104925 -2.268585 0.072678 0
M  V30 9 C 1.744989 -1.026422 0.173694 0
M  V30 10 N 1.887768 -0.064421 -0.873661 0
M  V30 11 C 2.511122 1.183220 -0.783704 0 CFG=2
M  V30 12 C 1.744086 2.379988 -0.347010 0
M  V30 13 O 1.108550 2.416145 0.859081 0
M  V30 14 C 0.056536 1.725773 1.344683 0
M  V30 15 C -0.083066 2.210537 2.665467 0
M  V30 16 N -1.038449 1.791250 3.552286 0
M  V30 17 C -1.935359 0.837523 3.162854 0
M  V30 18 C -1.853778 0.324752 1.888863 0
M  V30 19 C -2.714864 -0.689714 1.293446 0
M  V30 20 C -3.017367 -0.729509 -0.063874 0
M  V30 21 C -3.833474 -1.690257 -0.622729 0
M  V30 22 C -4.378262 -2.658844 0.193876 0
M  V30 23 C -4.122157 -2.683854 1.555501 0
M  V30 24 C -3.287585 -1.682611 2.059223 0
M  V30 25 C -4.833374 -3.828447 2.182821 0
M  V30 26 C -5.787145 -3.333442 3.229778 0
M  V30 27 C -5.514740 -4.430764 1.004869 0
M  V30 28 O -6.256181 -5.448579 1.039273 0
M  V30 29 N -5.237652 -3.721696 -0.201678 0
M  V30 30 C -0.883563 0.771186 1.032678 0
M  V30 31 C 3.268139 1.514409 -2.066318 0
M  V30 32 C 2.480077 1.575990 -3.282359 0
M  V30 33 C 1.947291 2.791450 -3.735653 0
M  V30 34 N 1.219958 2.632816 -4.856729 0
M  V30 35 C 1.231733 1.342645 -5.197142 0
M  V30 36 C 0.686119 0.618020 -6.233205 0
M  V30 37 C 0.883459 -0.747278 -6.349649 0
M  V30 38 C 1.656172 -1.361111 -5.377434 0
M  V30 39 C 2.209307 -0.654983 -4.334380 0
M  V30 40 C 1.997245 0.720623 -4.235554 0
M  V30 41 C 2.265556 -0.803472 1.447656 0
M  V30 42 C 2.191196 -1.663621 2.519068 0
M  V30 43 H 2.880558 0.080504 5.157624 0
M  V30 44 H 1.454442 0.120602 4.011241 0
M  V30 45 H 1.393299 -0.844300 5.516955 0
M  V30 46 H 3.777773 -1.628273 3.967752 0
M  V30 47 H 1.101059 -4.613506 3.624259 0
M  V30 48 H 0.477766 -4.089763 0.888081 0
M  V30 49 H 0.678521 -2.499463 -0.898445 0
M  V30 50 H 1.432723 -0.442157 -1.715813 0
M  V30 51 H 3.354540 1.110351 0.022163 0
M  V30 52 H 0.981690 2.550816 -1.194801 0
M  V30 53 H 2.371213 3.320117 -0.442240 0
M  V30 54 H 0.469004 2.956951 3.252910 0
M  V30 55 H -2.734034 0.416550 3.751664 0
M  V30 56 H -2.583931 0.035709 -0.694605 0
M  V30 57 H -4.010362 -1.636776 -1.694896 0
M  V30 58 H -3.090018 -1.708827 3.135088 0
M  V30 59 H -4.134612 -4.584886 2.582064 0
M  V30 60 H -6.596227 -4.045283 3.457599 0
M  V30 61 H -5.176203 -3.250249 4.176588 0
M  V30 62 H -6.116124 -2.319922 2.983954 0
M  V30 63 H -5.590014 -3.939901 -1.156089 0
M  V30 64 H -0.673625 0.492811 -0.010939 0
M  V30 65 H 4.100824 0.765489 -2.216330 0
M  V30 66 H 3.814334 2.483503 -1.917204 0
M  V30 67 H 2.056036 3.790751 -3.298275 0
M  V30 68 H 0.716683 3.352526 -5.402397 0
M  V30 69 H 0.092313 1.093861 -6.979092 0
M  V30 70 H 0.481850 -1.363158 -7.137280 0
M  V30 71 H 1.866677 -2.423552 -5.384063 0
M  V30 72 H 2.824504 -1.144712 -3.560517 0
M  V30 73 H 2.789436 0.119461 1.678760 0
M  V30 END ATOM
M  V30 BEGIN BOND
M  V30 1 1 1 2
M  V30 2 1 2 3
M  V30 3 2 3 4
M  V30 4 1 3 5
M  V30 5 1 5 6
M  V30 6 2 6 7
M  V30 7 1 7 8
M  V30 8 2 8 9
M  V30 9 1 9 10
M  V30 10 1 10 11
M  V30 11 1 11 12
M  V30 12 1 12 13
M  V30 13 1 13 14
M  V30 14 2 14 15
M  V30 15 1 15 16
M  V30 16 2 16 17
M  V30 17 1 17 18
M  V30 18 1 18 19
M  V30 19 2 19 20
M  V30 20 1 20 21
M  V30 21 2 21 22
M  V30 22 1 22 23
M  V30 23 2 23 24
M  V30 24 1 23 25
M  V30 25 1 25 26
M  V30 26 1 25 27
M  V30 27 2 27 28
M  V30 28 1 27 29
M  V30 29 2 18 30
M  V30 30 1 11 31
M  V30 31 1 31 32
M  V30 32 2 32 33
M  V30 33 1 33 34
M  V30 34 1 34 35
M  V30 35 2 35 36
M  V30 36 1 36 37
M  V30 37 2 37 38
M  V30 38 1 38 39
M  V30 39 2 39 40
M  V30 40 1 9 41
M  V30 41 2 41 42
M  V30 42 1 42 2
M  V30 43 1 42 6
M  V30 44 1 30 14
M  V30 45 1 40 32
M  V30 46 1 24 19
M  V30 47 1 40 35
M  V30 48 1 29 22
M  V30 49 1 1 43
M  V30 50 1 1 44
M  V30 51 1 1 45
M  V30 52 1 2 46
M  V30 53 1 5 47
M  V30 54 1 7 48
M  V30 55 1 8 49
M  V30 56 1 10 50
M  V30 57 1 11 51 CFG=1
M  V30 58 1 12 52
M  V30 59 1 12 53
M  V30 60 1 15 54
M  V30 61 1 17 55
M  V30 62 1 20 56
M  V30 63 1 21 57
M  V30 64 1 24 58
M  V30 65 1 25 59
M  V30 66 1 26 60
M  V30 67 1 26 61
M  V30 68 1 26 62
M  V30 69 1 29 63
M  V30 70 1 30 64
M  V30 71 1 31 65
M  V30 72 1 31 66
M  V30 73 1 33 67
M  V30 74 1 34 68
M  V30 75 1 36 69
M  V30 76 1 37 70
M  V30 77 1 38 71
M  V30 78 1 39 72
M  V30 79 1 41 73
M  V30 END BOND
M  V30 END CTAB
M  END
>  <Dataset>  (105) 
ChEMBL_Kinases

>  <Ligand_Instance>  (105) 
nan

>  <PDB_ID>  (105) 
nan

>  <Standardized_SMILES>  (105) 
CC1C(=O)Nc2ccc(N[C@H](COc3cncc(-c4ccc5c(c4)C(C)C(=O)N5)c3)Cc3c[nH]c4ccccc34)cc21

>  <Name>  (105) 
nan

>  <Pocket>  (105) 
nan

>  <ATP_Site>  (105) 
nan

>  <Peripheral>  (105) 
nan

>  <Num_H_Atoms_ProtBoundConf>  (105) 
nan

>  <Num_Resolved_Atoms>  (105) 
nan

>  <Num_Not_Resolved_Atoms>  (105) 
nan

$$$$
CHEMBL2087462
     RDKit          3D

  0  0  0  0  0  0  0  0  0  0999 V3000
M  V30 BEGIN CTAB
M  V30 COUNTS 42 44 0 0 0
M  V30 BEGIN ATOM
M  V30 1 O 1.305549 -1.702204 1.212385 0
M  V30 2 C 1.565262 -0.543871 1.590413 0
M  V30 3 N 2.851336 -0.233631 1.077995 0
M  V30 4 O 3.486260 -1.189700 0.337683 0
M  V30 5 C 3.092560 -0.954487 -0.978915 0
M  V30 6 C 3.703864 -1.928483 -1.954775 0 CFG=2
M  V30 7 O 5.077680 -1.853308 -1.924964 0
M  V30 8 C 3.276593 -1.440546 -3.341202 0
M  V30 9 O 3.720960 -0.125037 -3.504138 0
M  V30 10 C 0.843817 0.427717 2.381223 0
M  V30 11 C 1.369690 1.651164 2.687487 0
M  V30 12 C 0.717848 2.588903 3.444431 0
M  V30 13 C -0.525538 2.223730 3.891439 0
M  V30 14 C -1.308237 3.034640 4.666980 0
M  V30 15 N -2.566716 2.705169 5.149472 0
M  V30 16 S -2.680170 1.005650 4.411233 0
M  V30 17 C -1.117922 1.013678 3.624049 0
M  V30 18 C -0.403361 0.070906 2.832575 0
M  V30 19 N -1.120358 -1.117522 2.642233 0
M  V30 20 C -1.904021 -1.718783 1.633649 0
M  V30 21 C -1.606814 -2.970120 1.099463 0
M  V30 22 C -2.283658 -3.637805 0.114850 0
M  V30 23 C -3.384279 -2.989337 -0.400696 0
M  V30 24 I -4.474980 -3.957199 -1.920414 0
M  V30 25 C -3.767984 -1.751775 0.052653 0
M  V30 26 C -3.020927 -1.164303 1.045524 0
M  V30 27 F -3.456190 0.043430 1.424500 0
M  V30 28 H 3.379352 0.657874 1.203092 0
M  V30 29 H 1.985464 -1.018375 -0.989409 0
M  V30 30 H 3.375830 0.093566 -1.228217 0
M  V30 31 H 3.279577 -2.916154 -1.763878 0
M  V30 32 H 5.483473 -1.370132 -2.675933 0
M  V30 33 H 2.185035 -1.498697 -3.467586 0
M  V30 34 H 3.832934 -2.059412 -4.075685 0
M  V30 35 H 2.955323 0.466707 -3.670898 0
M  V30 36 H 2.364234 1.941660 2.329887 0
M  V30 37 H 1.203847 3.540022 3.643297 0
M  V30 38 H -1.167132 4.033484 5.063095 0
M  V30 39 H -1.059884 -1.742340 3.490231 0
M  V30 40 H -0.731474 -3.508278 1.499091 0
M  V30 41 H -1.973158 -4.606627 -0.231645 0
M  V30 42 H -4.638794 -1.292720 -0.388861 0
M  V30 END ATOM
M  V30 BEGIN BOND
M  V30 1 2 1 2
M  V30 2 1 2 3
M  V30 3 1 3 4
M  V30 4 1 4 5
M  V30 5 1 5 6
M  V30 6 1 6 7
M  V30 7 1 6 8
M  V30 8 1 8 9
M  V30 9 1 2 10
M  V30 10 2 10 11
M  V30 11 1 11 12
M  V30 12 2 12 13
M  V30 13 1 13 14
M  V30 14 2 14 15
M  V30 15 1 15 16
M  V30 16 1 16 17
M  V30 17 2 17 18
M  V30 18 1 18 19
M  V30 19 1 19 20
M  V30 20 2 20 21
M  V30 21 1 21 22
M  V30 22 2 22 23
M  V30 23 1 23 24
M  V30 24 1 23 25
M  V30 25 2 25 26
M  V30 26 1 26 27
M  V30 27 1 18 10
M  V30 28 1 26 20
M  V30 29 1 17 13
M  V30 30 1 3 28
M  V30 31 1 5 29
M  V30 32 1 5 30
M  V30 33 1 6 31 CFG=1
M  V30 34 1 7 32
M  V30 35 1 8 33
M  V30 36 1 8 34
M  V30 37 1 9 35
M  V30 38 1 11 36
M  V30 39 1 12 37
M  V30 40 1 14 38
M  V30 41 1 19 39
M  V30 42 1 21 40
M  V30 43 1 22 41
M  V30 44 1 25 42
M  V30 END BOND
M  V30 END CTAB
M  END
>  <Dataset>  (106) 
ChEMBL_Kinases

>  <Ligand_Instance>  (106) 
nan

>  <PDB_ID>  (106) 
nan

>  <Standardized_SMILES>  (106) 
O=C(NOC[C@H](O)CO)c1ccc2cnsc2c1Nc1ccc(I)cc1F

>  <Name>  (106) 
nan

>  <Pocket>  (106) 
nan

>  <ATP_Site>  (106) 
nan

>  <Peripheral>  (106) 
nan

>  <Num_H_Atoms_ProtBoundConf>  (106) 
nan

>  <Num_Resolved_Atoms>  (106) 
nan

>  <Num_Not_Resolved_Atoms>  (106) 
nan

$$$$
CHEMBL2088214
     RDKit          3D

  0  0  0  0  0  0  0  0  0  0999 V3000
M  V30 BEGIN CTAB
M  V30 COUNTS 53 57 0 0 0
M  V30 BEGIN ATOM
M  V30 1 C -0.648803 -1.687240 5.272969 0
M  V30 2 C 0.546333 -1.730448 4.396340 0
M  V30 3 C 1.714873 -2.309891 4.834842 0
M  V30 4 C 2.867160 -2.374169 4.066675 0
M  V30 5 C 2.711570 -1.793707 2.818956 0
M  V30 6 C 1.564067 -1.202543 2.338134 0
M  V30 7 C 1.650040 -0.650156 0.979475 0
M  V30 8 N 2.064582 0.386080 0.266752 0
M  V30 9 C 2.025200 0.581279 -0.842823 0
M  V30 10 N 2.359092 1.600075 -1.773139 0
M  V30 11 C 1.308364 2.436850 -2.411392 0
M  V30 12 C 0.203525 2.611449 -1.438665 0
M  V30 13 C 0.663043 3.430903 -0.412359 0
M  V30 14 C -0.126670 3.635789 0.710442 0
M  V30 15 C -1.376690 3.003165 0.771577 0
M  V30 16 C -1.856721 2.176914 -0.257221 0
M  V30 17 C -3.176765 1.544347 -0.155844 0
M  V30 18 C -1.036342 2.003887 -1.347691 0
M  V30 19 C -1.463646 1.210378 -2.501696 0
M  V30 20 S 1.187783 -1.011161 -1.431697 0
M  V30 21 C 1.074769 -1.657415 0.262401 0
M  V30 22 C 0.403204 -2.950129 0.043539 0
M  V30 23 C 1.043993 -4.120709 -0.259612 0
M  V30 24 C 0.197538 -5.201506 -0.441329 0
M  V30 25 C -1.177361 -5.031173 -0.310433 0
M  V30 26 N -2.135969 -5.970241 -0.464156 0
M  V30 27 C -3.322407 -5.351101 -0.255246 0
M  V30 28 N -3.071127 -4.064444 0.019629 0
M  V30 29 N -1.768370 -3.877112 -0.015525 0
M  V30 30 C -0.984432 -2.786772 0.172647 0
M  V30 31 N 0.495000 -1.183359 3.145172 0
M  V30 32 H -1.540798 -1.328742 4.757726 0
M  V30 33 H -0.898496 -2.699506 5.671594 0
M  V30 34 H -0.402403 -1.054737 6.173192 0
M  V30 35 H 1.753288 -2.736858 5.829756 0
M  V30 36 H 3.817842 -2.825600 4.383359 0
M  V30 37 H 3.615050 -1.854434 2.215250 0
M  V30 38 H 3.357343 1.800319 -2.049134 0
M  V30 39 H 0.950355 1.754206 -3.237926 0
M  V30 40 H 1.748839 3.369023 -2.767540 0
M  V30 41 H 1.593796 3.970965 -0.328660 0
M  V30 42 H 0.159093 4.259275 1.576241 0
M  V30 43 H -2.033193 3.142066 1.645311 0
M  V30 44 H -3.796784 1.584869 -1.073956 0
M  V30 45 H -3.761364 2.179286 0.583012 0
M  V30 46 H -3.160889 0.545832 0.308503 0
M  V30 47 H -2.567932 1.255948 -2.668286 0
M  V30 48 H -1.044790 1.667520 -3.444422 0
M  V30 49 H -1.231208 0.160104 -2.385535 0
M  V30 50 H 2.110258 -4.020725 -0.317944 0
M  V30 51 H 0.710807 -6.122779 -0.675179 0
M  V30 52 H -4.262723 -5.899714 -0.322769 0
M  V30 53 H -1.464858 -1.828138 0.414289 0
M  V30 END ATOM
M  V30 BEGIN BOND
M  V30 1 1 1 2
M  V30 2 2 2 3
M  V30 3 1 3 4
M  V30 4 2 4 5
M  V30 5 1 5 6
M  V30 6 1 6 7
M  V30 7 1 7 8
M  V30 8 2 8 9
M  V30 9 1 9 10
M  V30 10 1 10 11
M  V30 11 1 11 12
M  V30 12 2 12 13
M  V30 13 1 13 14
M  V30 14 2 14 15
M  V30 15 1 15 16
M  V30 16 1 16 17
M  V30 17 2 16 18
M  V30 18 1 18 19
M  V30 19 1 9 20
M  V30 20 1 20 21
M  V30 21 1 21 22
M  V30 22 1 22 23
M  V30 23 2 23 24
M  V30 24 1 24 25
M  V30 25 2 25 26
M  V30 26 1 26 27
M  V30 27 2 27 28
M  V30 28 1 28 29
M  V30 29 1 29 30
M  V30 30 2 6 31
M  V30 31 1 31 2
M  V30 32 2 21 7
M  V30 33 2 30 22
M  V30 34 1 18 12
M  V30 35 1 29 25
M  V30 36 1 1 32
M  V30 37 1 1 33
M  V30 38 1 1 34
M  V30 39 1 3 35
M  V30 40 1 4 36
M  V30 41 1 5 37
M  V30 42 1 10 38
M  V30 43 1 11 39
M  V30 44 1 11 40
M  V30 45 1 13 41
M  V30 46 1 14 42
M  V30 47 1 15 43
M  V30 48 1 17 44
M  V30 49 1 17 45
M  V30 50 1 17 46
M  V30 51 1 19 47
M  V30 52 1 19 48
M  V30 53 1 19 49
M  V30 54 1 23 50
M  V30 55 1 24 51
M  V30 56 1 27 52
M  V30 57 1 30 53
M  V30 END BOND
M  V30 END CTAB
M  END
>  <Dataset>  (107) 
ChEMBL_Kinases

>  <Ligand_Instance>  (107) 
nan

>  <PDB_ID>  (107) 
nan

>  <Standardized_SMILES>  (107) 
Cc1cccc(-c2nc(NCc3cccc(C)c3C)sc2-c2ccc3ncnn3c2)n1

>  <Name>  (107) 
nan

>  <Pocket>  (107) 
nan

>  <ATP_Site>  (107) 
nan

>  <Peripheral>  (107) 
nan

>  <Num_H_Atoms_ProtBoundConf>  (107) 
nan

>  <Num_Resolved_Atoms>  (107) 
nan

>  <Num_Not_Resolved_Atoms>  (107) 
nan

$$$$
CHEMBL209616
     RDKit          3D

  0  0  0  0  0  0  0  0  0  0999 V3000
M  V30 BEGIN CTAB
M  V30 COUNTS 58 59 0 0 0
M  V30 BEGIN ATOM
M  V30 1 C -0.416147 -4.277821 2.695518 0
M  V30 2 C 0.788568 -3.395176 2.502958 0
M  V30 3 C 0.642375 -2.163895 3.355184 0
M  V30 4 C 0.757327 -2.965174 0.991182 0
M  V30 5 C 1.926942 -2.080509 0.755009 0
M  V30 6 C 2.019948 -1.589890 -0.601595 0
M  V30 7 C 1.893988 -0.262583 -0.846286 0
M  V30 8 C 1.658575 0.756737 0.224028 0
M  V30 9 C 1.634070 2.061234 -0.495011 0
M  V30 10 C 2.987693 2.756759 -0.503221 0
M  V30 11 O 2.831592 3.919846 -1.257334 0
M  V30 12 C 0.594670 2.973979 0.134155 0
M  V30 13 O -0.658339 2.320135 0.066790 0
M  V30 14 C -1.821781 2.894746 0.560440 0
M  V30 15 O -1.822061 4.017992 1.089083 0
M  V30 16 C -3.075407 2.157347 0.453981 0
M  V30 17 C -4.252454 2.699355 0.934589 0
M  V30 18 C -5.453106 1.998100 0.835098 0
M  V30 19 C -5.472238 0.748356 0.251092 0
M  V30 20 C -4.315363 0.165783 -0.244718 0
M  V30 21 O -4.259848 -1.093900 -0.847697 0
M  V30 22 C -3.135741 0.901704 -0.124893 0
M  V30 23 O 1.318229 1.786718 -1.848260 0
M  V30 24 C 1.937070 0.543304 -2.088432 0
M  V30 25 O 2.482872 0.056240 -3.137310 0
M  V30 26 C 0.601001 -4.185148 0.185106 0
M  V30 27 C 0.506818 -4.014612 -1.310326 0
M  V30 28 C 1.656626 -5.238595 0.414876 0
M  V30 29 H -0.748041 -4.278484 3.768688 0
M  V30 30 H -1.267883 -3.871340 2.084736 0
M  V30 31 H -0.223657 -5.323388 2.382892 0
M  V30 32 H 1.748427 -3.854597 2.730847 0
M  V30 33 H 0.039226 -2.459797 4.258839 0
M  V30 34 H 0.074873 -1.344514 2.898326 0
M  V30 35 H 1.626090 -1.814652 3.759274 0
M  V30 36 H -0.164793 -2.355558 0.924839 0
M  V30 37 H 2.885070 -2.508153 1.148828 0
M  V30 38 H 1.771953 -1.189623 1.439480 0
M  V30 39 H 2.200662 -2.035782 -1.555196 0
M  V30 40 H 0.773583 0.559529 0.836223 0
M  V30 41 H 2.536692 0.777526 0.925097 0
M  V30 42 H 3.692824 2.103768 -1.066863 0
M  V30 43 H 3.340931 2.975231 0.524054 0
M  V30 44 H 3.030580 3.760056 -2.220776 0
M  V30 45 H 0.848962 3.040304 1.203990 0
M  V30 46 H 0.586944 3.964490 -0.319540 0
M  V30 47 H -4.281761 3.685613 1.404023 0
M  V30 48 H -6.409505 2.364875 1.190989 0
M  V30 49 H -6.385784 0.160262 0.149750 0
M  V30 50 H -4.020404 -1.117031 -1.849318 0
M  V30 51 H -2.184989 0.500612 -0.495798 0
M  V30 52 H -0.369858 -4.685977 0.483293 0
M  V30 53 H -0.268807 -4.715277 -1.742559 0
M  V30 54 H 1.451084 -4.185483 -1.851252 0
M  V30 55 H 0.113867 -3.010950 -1.538577 0
M  V30 56 H 2.554771 -5.048343 -0.212918 0
M  V30 57 H 1.267652 -6.229532 0.045237 0
M  V30 58 H 1.970016 -5.392668 1.436652 0
M  V30 END ATOM
M  V30 BEGIN BOND
M  V30 1 1 1 2
M  V30 2 1 2 3
M  V30 3 1 2 4
M  V30 4 1 4 5
M  V30 5 1 5 6
M  V30 6 2 6 7
M  V30 7 1 7 8
M  V30 8 1 8 9
M  V30 9 1 9 10
M  V30 10 1 10 11
M  V30 11 1 9 12
M  V30 12 1 12 13
M  V30 13 1 13 14
M  V30 14 2 14 15
M  V30 15 1 14 16
M  V30 16 2 16 17
M  V30 17 1 17 18
M  V30 18 2 18 19
M  V30 19 1 19 20
M  V30 20 1 20 21
M  V30 21 2 20 22
M  V30 22 1 9 23
M  V30 23 1 23 24
M  V30 24 2 24 25
M  V30 25 1 4 26
M  V30 26 1 26 27
M  V30 27 1 26 28
M  V30 28 1 24 7
M  V30 29 1 22 16
M  V30 30 1 1 29
M  V30 31 1 1 30
M  V30 32 1 1 31
M  V30 33 1 2 32
M  V30 34 1 3 33
M  V30 35 1 3 34
M  V30 36 1 3 35
M  V30 37 1 4 36
M  V30 38 1 5 37
M  V30 39 1 5 38
M  V30 40 1 6 39
M  V30 41 1 8 40
M  V30 42 1 8 41
M  V30 43 1 10 42
M  V30 44 1 10 43
M  V30 45 1 11 44
M  V30 46 1 12 45
M  V30 47 1 12 46
M  V30 48 1 17 47
M  V30 49 1 18 48
M  V30 50 1 19 49
M  V30 51 1 21 50
M  V30 52 1 22 51
M  V30 53 1 26 52
M  V30 54 1 27 53
M  V30 55 1 27 54
M  V30 56 1 27 55
M  V30 57 1 28 56
M  V30 58 1 28 57
M  V30 59 1 28 58
M  V30 END BOND
M  V30 END CTAB
M  END
>  <Dataset>  (108) 
ChEMBL_Kinases

>  <Ligand_Instance>  (108) 
nan

>  <PDB_ID>  (108) 
nan

>  <Standardized_SMILES>  (108) 
CC(C)C(C/C=C1\CC(CO)(COC(=O)c2cccc(O)c2)OC1=O)C(C)C

>  <Name>  (108) 
nan

>  <Pocket>  (108) 
nan

>  <ATP_Site>  (108) 
nan

>  <Peripheral>  (108) 
nan

>  <Num_H_Atoms_ProtBoundConf>  (108) 
nan

>  <Num_Resolved_Atoms>  (108) 
nan

>  <Num_Not_Resolved_Atoms>  (108) 
nan

$$$$
CHEMBL209615
     RDKit          3D

  0  0  0  0  0  0  0  0  0  0999 V3000
M  V30 BEGIN CTAB
M  V30 COUNTS 58 59 0 0 0
M  V30 BEGIN ATOM
M  V30 1 C -0.389107 -3.540928 3.251035 0
M  V30 2 C 0.876797 -2.905041 2.632342 0
M  V30 3 C 1.061409 -1.607505 3.346332 0
M  V30 4 C 0.576068 -2.817984 1.172572 0
M  V30 5 C 1.654406 -2.252693 0.328867 0
M  V30 6 C 2.061287 -0.889031 0.637902 0
M  V30 7 C 1.907141 0.185712 -0.158379 0
M  V30 8 C 2.281246 1.626673 0.041923 0
M  V30 9 C 1.706010 2.310096 -1.120651 0
M  V30 10 C 2.683554 3.354644 -1.705546 0
M  V30 11 O 2.108902 3.939788 -2.828227 0
M  V30 12 C 0.434192 3.040621 -0.906717 0
M  V30 13 O -0.701496 2.375878 -0.582296 0
M  V30 14 C -1.055188 1.679829 0.496330 0
M  V30 15 O -0.468453 1.420565 1.554780 0
M  V30 16 C -2.401512 1.072517 0.489056 0
M  V30 17 C -2.903584 0.327351 1.529601 0
M  V30 18 C -4.164404 -0.248141 1.537073 0
M  V30 19 C -4.975345 -0.069155 0.437656 0
M  V30 20 C -4.544065 0.664589 -0.644470 0
M  V30 21 O -5.348181 0.857886 -1.766447 0
M  V30 22 C -3.280655 1.202340 -0.573692 0
M  V30 23 O 1.474190 1.333886 -2.138280 0
M  V30 24 C 1.262997 0.097440 -1.492402 0
M  V30 25 O 0.630000 -0.837637 -2.040745 0
M  V30 26 C 0.127230 -4.188007 0.712994 0
M  V30 27 C -0.183489 -4.098152 -0.777424 0
M  V30 28 C 1.180887 -5.234613 0.913611 0
M  V30 29 H -0.493844 -3.231908 4.303611 0
M  V30 30 H -1.288582 -3.196496 2.701960 0
M  V30 31 H -0.353808 -4.639154 3.218016 0
M  V30 32 H 1.740069 -3.569333 2.842566 0
M  V30 33 H 0.518662 -1.669662 4.333366 0
M  V30 34 H 0.600671 -0.773999 2.820463 0
M  V30 35 H 2.125273 -1.477331 3.638086 0
M  V30 36 H -0.335131 -2.143606 1.102244 0
M  V30 37 H 1.520772 -2.414764 -0.747055 0
M  V30 38 H 2.576806 -2.906748 0.572138 0
M  V30 39 H 2.557270 -0.556458 1.539512 0
M  V30 40 H 1.995156 2.043592 1.004828 0
M  V30 41 H 3.416388 1.693840 0.035907 0
M  V30 42 H 3.636929 2.889972 -1.954657 0
M  V30 43 H 2.854846 4.132570 -0.936467 0
M  V30 44 H 2.177250 3.380103 -3.634611 0
M  V30 45 H 0.616415 3.796678 -0.049904 0
M  V30 46 H 0.223067 3.676790 -1.826837 0
M  V30 47 H -2.299064 0.164448 2.408202 0
M  V30 48 H -4.507896 -0.825143 2.384068 0
M  V30 49 H -5.966706 -0.502973 0.405869 0
M  V30 50 H -4.989233 0.870106 -2.712694 0
M  V30 51 H -2.972292 1.774895 -1.443739 0
M  V30 52 H -0.792174 -4.516597 1.231311 0
M  V30 53 H -0.993876 -4.822752 -1.046548 0
M  V30 54 H 0.708480 -4.324945 -1.380001 0
M  V30 55 H -0.583809 -3.088066 -1.014896 0
M  V30 56 H 2.068947 -4.995686 0.257422 0
M  V30 57 H 0.848203 -6.228884 0.553642 0
M  V30 58 H 1.524980 -5.377268 1.934664 0
M  V30 END ATOM
M  V30 BEGIN BOND
M  V30 1 1 1 2
M  V30 2 1 2 3
M  V30 3 1 2 4
M  V30 4 1 4 5
M  V30 5 1 5 6
M  V30 6 2 6 7
M  V30 7 1 7 8
M  V30 8 1 8 9
M  V30 9 1 9 10
M  V30 10 1 10 11
M  V30 11 1 9 12
M  V30 12 1 12 13
M  V30 13 1 13 14
M  V30 14 2 14 15
M  V30 15 1 14 16
M  V30 16 2 16 17
M  V30 17 1 17 18
M  V30 18 2 18 19
M  V30 19 1 19 20
M  V30 20 1 20 21
M  V30 21 2 20 22
M  V30 22 1 9 23
M  V30 23 1 23 24
M  V30 24 2 24 25
M  V30 25 1 4 26
M  V30 26 1 26 27
M  V30 27 1 26 28
M  V30 28 1 24 7
M  V30 29 1 22 16
M  V30 30 1 1 29
M  V30 31 1 1 30
M  V30 32 1 1 31
M  V30 33 1 2 32
M  V30 34 1 3 33
M  V30 35 1 3 34
M  V30 36 1 3 35
M  V30 37 1 4 36
M  V30 38 1 5 37
M  V30 39 1 5 38
M  V30 40 1 6 39
M  V30 41 1 8 40
M  V30 42 1 8 41
M  V30 43 1 10 42
M  V30 44 1 10 43
M  V30 45 1 11 44
M  V30 46 1 12 45
M  V30 47 1 12 46
M  V30 48 1 17 47
M  V30 49 1 18 48
M  V30 50 1 19 49
M  V30 51 1 21 50
M  V30 52 1 22 51
M  V30 53 1 26 52
M  V30 54 1 27 53
M  V30 55 1 27 54
M  V30 56 1 27 55
M  V30 57 1 28 56
M  V30 58 1 28 57
M  V30 59 1 28 58
M  V30 END BOND
M  V30 END CTAB
M  END
>  <Dataset>  (109) 
ChEMBL_Kinases

>  <Ligand_Instance>  (109) 
nan

>  <PDB_ID>  (109) 
nan

>  <Standardized_SMILES>  (109) 
CC(C)C(C/C=C1/CC(CO)(COC(=O)c2cccc(O)c2)OC1=O)C(C)C

>  <Name>  (109) 
nan

>  <Pocket>  (109) 
nan

>  <ATP_Site>  (109) 
nan

>  <Peripheral>  (109) 
nan

>  <Num_H_Atoms_ProtBoundConf>  (109) 
nan

>  <Num_Resolved_Atoms>  (109) 
nan

>  <Num_Not_Resolved_Atoms>  (109) 
nan

$$$$
CHEMBL209612
     RDKit          3D

  0  0  0  0  0  0  0  0  0  0999 V3000
M  V30 BEGIN CTAB
M  V30 COUNTS 51 53 0 0 0
M  V30 BEGIN ATOM
M  V30 1 C 0.172674 -2.711887 2.738828 0
M  V30 2 O 1.358985 -1.971403 2.734110 0
M  V30 3 C 1.488287 -1.288873 3.922581 0
M  V30 4 C 2.754520 -0.462955 3.988138 0 CFG=2
M  V30 5 C 2.749340 0.257535 5.326730 0
M  V30 6 N 2.783426 0.523934 2.925983 0
M  V30 7 C 2.740634 0.115513 1.565349 0
M  V30 8 N 3.874911 -0.138802 0.888824 0
M  V30 9 C 3.871960 -0.527128 -0.399634 0
M  V30 10 C 2.700241 -0.685837 -1.098551 0
M  V30 11 C 1.531360 -0.427682 -0.414413 0
M  V30 12 N 0.274380 -0.568916 -1.068218 0
M  V30 13 C -1.060641 -0.372154 -0.613951 0
M  V30 14 O -2.133388 -0.528935 -1.292109 0
M  V30 15 N -1.436105 0.041082 0.699430 0
M  V30 16 C -2.795374 0.212320 1.065482 0
M  V30 17 C -3.666135 -0.731814 1.603563 0
M  V30 18 C -4.964421 -0.375514 1.897727 0
M  V30 19 C -5.466530 0.881100 1.689227 0
M  V30 20 C -4.586286 1.800610 1.155336 0
M  V30 21 C -3.278221 1.488554 0.845437 0
M  V30 22 F -2.537864 2.509074 0.325224 0
M  V30 23 C 0.290777 -0.987690 -2.452794 0
M  V30 24 C 0.347770 -0.156792 -3.553013 0
M  V30 25 C 0.355411 -0.729135 -4.809062 0
M  V30 26 C 0.308135 -2.095663 -4.994529 0
M  V30 27 F 0.316744 -2.630460 -6.230636 0
M  V30 28 C 0.251104 -2.916892 -3.877202 0
M  V30 29 C 0.242329 -2.360133 -2.597810 0
M  V30 30 N 1.608282 -0.044019 0.869478 0
M  V30 31 H 0.288094 -3.412502 3.616477 0
M  V30 32 H 0.026664 -3.256804 1.795047 0
M  V30 33 H -0.711450 -2.100227 2.991868 0
M  V30 34 H 1.508093 -2.015180 4.758874 0
M  V30 35 H 0.652641 -0.595340 4.118692 0
M  V30 36 H 3.672180 -1.091613 3.989353 0
M  V30 37 H 2.149319 -0.320458 6.048768 0
M  V30 38 H 2.260624 1.260044 5.196814 0
M  V30 39 H 3.778973 0.352948 5.719144 0
M  V30 40 H 2.835918 1.562090 3.099538 0
M  V30 41 H 4.798990 -0.725304 -0.920420 0
M  V30 42 H 2.651139 -0.994513 -2.129632 0
M  V30 43 H -0.667512 0.221899 1.412224 0
M  V30 44 H -3.210744 -1.701347 1.743635 0
M  V30 45 H -5.596529 -1.140985 2.311412 0
M  V30 46 H -6.499055 1.083638 1.946468 0
M  V30 47 H -4.981143 2.806684 0.986234 0
M  V30 48 H 0.382472 0.900793 -3.328546 0
M  V30 49 H 0.400892 -0.038889 -5.642449 0
M  V30 50 H 0.215141 -3.976632 -4.051436 0
M  V30 51 H 0.196691 -3.062044 -1.776929 0
M  V30 END ATOM
M  V30 BEGIN BOND
M  V30 1 1 1 2
M  V30 2 1 2 3
M  V30 3 1 3 4
M  V30 4 1 4 5
M  V30 5 1 4 6
M  V30 6 1 6 7
M  V30 7 2 7 8
M  V30 8 1 8 9
M  V30 9 2 9 10
M  V30 10 1 10 11
M  V30 11 1 11 12
M  V30 12 1 12 13
M  V30 13 2 13 14
M  V30 14 1 13 15
M  V30 15 1 15 16
M  V30 16 2 16 17
M  V30 17 1 17 18
M  V30 18 2 18 19
M  V30 19 1 19 20
M  V30 20 2 20 21
M  V30 21 1 21 22
M  V30 22 1 12 23
M  V30 23 2 23 24
M  V30 24 1 24 25
M  V30 25 2 25 26
M  V30 26 1 26 27
M  V30 27 1 26 28
M  V30 28 2 28 29
M  V30 29 2 11 30
M  V30 30 1 30 7
M  V30 31 1 21 16
M  V30 32 1 29 23
M  V30 33 1 1 31
M  V30 34 1 1 32
M  V30 35 1 1 33
M  V30 36 1 3 34
M  V30 37 1 3 35
M  V30 38 1 4 36 CFG=1
M  V30 39 1 5 37
M  V30 40 1 5 38
M  V30 41 1 5 39
M  V30 42 1 6 40
M  V30 43 1 9 41
M  V30 44 1 10 42
M  V30 45 1 15 43
M  V30 46 1 17 44
M  V30 47 1 18 45
M  V30 48 1 19 46
M  V30 49 1 20 47
M  V30 50 1 24 48
M  V30 51 1 25 49
M  V30 52 1 28 50
M  V30 53 1 29 51
M  V30 END BOND
M  V30 END CTAB
M  END
>  <Dataset>  (110) 
ChEMBL_Kinases

>  <Ligand_Instance>  (110) 
nan

>  <PDB_ID>  (110) 
nan

>  <Standardized_SMILES>  (110) 
COC[C@H](C)Nc1nccc(N(C(=O)Nc2ccccc2F)c2ccc(F)cc2)n1

>  <Name>  (110) 
nan

>  <Pocket>  (110) 
nan

>  <ATP_Site>  (110) 
nan

>  <Peripheral>  (110) 
nan

>  <Num_H_Atoms_ProtBoundConf>  (110) 
nan

>  <Num_Resolved_Atoms>  (110) 
nan

>  <Num_Not_Resolved_Atoms>  (110) 
nan

$$$$
CHEMBL209564
     RDKit          3D

  0  0  0  0  0  0  0  0  0  0999 V3000
M  V30 BEGIN CTAB
M  V30 COUNTS 61 66 0 0 0
M  V30 BEGIN ATOM
M  V30 1 N 1.026382 -3.302414 0.029927 0
M  V30 2 C 2.274131 -3.979683 0.404115 0 CFG=2
M  V30 3 C 2.675804 -3.290476 1.760387 0
M  V30 4 O 2.896164 -2.007599 1.574933 0
M  V30 5 C 3.118094 -0.770717 1.390789 0
M  V30 6 C 4.208210 -0.077304 0.843502 0
M  V30 7 N 4.163120 1.266568 0.750697 0
M  V30 8 C 3.108137 1.982060 1.162174 0
M  V30 9 C 1.978983 1.436141 1.715461 0
M  V30 10 C 0.752748 2.103593 2.118850 0
M  V30 11 C 0.553103 3.356040 2.618310 0
M  V30 12 C -0.717531 3.813517 2.886305 0
M  V30 13 C -1.858897 3.032405 2.666844 0
M  V30 14 C -3.168066 3.368600 2.935928 0
M  V30 15 N -4.180775 2.519030 2.727495 0
M  V30 16 C -4.018000 1.268344 2.240794 0
M  V30 17 C -5.110881 0.340283 2.048865 0
M  V30 18 C -4.975238 -0.938234 1.554276 0
M  V30 19 C -6.022690 -1.820327 1.385659 0
M  V30 20 N -7.235723 -1.379322 1.733339 0
M  V30 21 C -7.450361 -0.150598 2.221276 0
M  V30 22 C -6.382412 0.745124 2.390413 0
M  V30 23 C -2.716703 0.831036 1.931912 0
M  V30 24 C -1.733648 1.754872 2.167899 0
M  V30 25 C -0.420798 1.339708 1.910172 0
M  V30 26 C 2.056538 0.031702 1.803081 0
M  V30 27 C 3.363293 -3.691398 -0.594187 0
M  V30 28 C 2.831290 -4.041593 -1.957289 0
M  V30 29 C 2.763792 -5.075127 -2.866018 0
M  V30 30 N 2.021982 -4.674408 -3.905944 0
M  V30 31 C 1.563049 -3.417279 -3.780113 0
M  V30 32 C 0.796485 -2.583645 -4.566686 0
M  V30 33 C 0.497807 -1.284188 -4.166991 0
M  V30 34 C 0.984802 -0.833143 -2.956182 0
M  V30 35 C 1.738942 -1.701470 -2.212841 0
M  V30 36 C 2.071605 -3.026384 -2.565860 0
M  V30 37 H 0.815633 -2.479694 0.611569 0
M  V30 38 H 0.218922 -3.969560 -0.045042 0
M  V30 39 H 2.132278 -4.993140 0.592230 0
M  V30 40 H 1.825876 -3.504810 2.431119 0
M  V30 41 H 3.556744 -3.852191 2.087391 0
M  V30 42 H 5.019573 -0.717525 0.529106 0
M  V30 43 H 3.094845 3.063541 1.078736 0
M  V30 44 H 1.439874 3.928371 2.765941 0
M  V30 45 H -0.894282 4.798374 3.276630 0
M  V30 46 H -3.329214 4.374579 3.333021 0
M  V30 47 H -4.024908 -1.323294 1.273566 0
M  V30 48 H -5.857555 -2.828902 0.991523 0
M  V30 49 H -8.489057 0.106093 2.476482 0
M  V30 50 H -6.592712 1.750957 2.789785 0
M  V30 51 H -2.485896 -0.140983 1.540373 0
M  V30 52 H -0.310468 0.336069 1.491354 0
M  V30 53 H 1.192634 -0.462321 2.255180 0
M  V30 54 H 4.191353 -4.400811 -0.358043 0
M  V30 55 H 3.736175 -2.675057 -0.614929 0
M  V30 56 H 3.286108 -5.951921 -2.587138 0
M  V30 57 H 1.824512 -5.284661 -4.732148 0
M  V30 58 H 0.409581 -2.914860 -5.507587 0
M  V30 59 H -0.096746 -0.599427 -4.741541 0
M  V30 60 H 0.764598 0.170887 -2.620124 0
M  V30 61 H 2.091580 -1.234046 -1.283315 0
M  V30 END ATOM
M  V30 BEGIN BOND
M  V30 1 1 1 2
M  V30 2 1 2 3
M  V30 3 1 3 4
M  V30 4 1 4 5
M  V30 5 2 5 6
M  V30 6 1 6 7
M  V30 7 2 7 8
M  V30 8 1 8 9
M  V30 9 1 9 10
M  V30 10 2 10 11
M  V30 11 1 11 12
M  V30 12 2 12 13
M  V30 13 1 13 14
M  V30 14 2 14 15
M  V30 15 1 15 16
M  V30 16 1 16 17
M  V30 17 2 17 18
M  V30 18 1 18 19
M  V30 19 2 19 20
M  V30 20 1 20 21
M  V30 21 2 21 22
M  V30 22 2 16 23
M  V30 23 1 23 24
M  V30 24 2 24 25
M  V30 25 2 9 26
M  V30 26 1 2 27
M  V30 27 1 27 28
M  V30 28 2 28 29
M  V30 29 1 29 30
M  V30 30 1 30 31
M  V30 31 2 31 32
M  V30 32 1 32 33
M  V30 33 2 33 34
M  V30 34 1 34 35
M  V30 35 2 35 36
M  V30 36 1 26 5
M  V30 37 1 36 28
M  V30 38 1 25 10
M  V30 39 1 36 31
M  V30 40 1 24 13
M  V30 41 1 22 17
M  V30 42 1 1 37
M  V30 43 1 1 38
M  V30 44 1 2 39 CFG=1
M  V30 45 1 3 40
M  V30 46 1 3 41
M  V30 47 1 6 42
M  V30 48 1 8 43
M  V30 49 1 11 44
M  V30 50 1 12 45
M  V30 51 1 14 46
M  V30 52 1 18 47
M  V30 53 1 19 48
M  V30 54 1 21 49
M  V30 55 1 22 50
M  V30 56 1 23 51
M  V30 57 1 25 52
M  V30 58 1 26 53
M  V30 59 1 27 54
M  V30 60 1 27 55
M  V30 61 1 29 56
M  V30 62 1 30 57
M  V30 63 1 32 58
M  V30 64 1 33 59
M  V30 65 1 34 60
M  V30 66 1 35 61
M  V30 END BOND
M  V30 END CTAB
M  END
>  <Dataset>  (111) 
ChEMBL_Kinases

>  <Ligand_Instance>  (111) 
nan

>  <PDB_ID>  (111) 
nan

>  <Standardized_SMILES>  (111) 
N[C@H](COc1cncc(-c2ccc3cnc(-c4ccncc4)cc3c2)c1)Cc1c[nH]c2ccccc12

>  <Name>  (111) 
nan

>  <Pocket>  (111) 
nan

>  <ATP_Site>  (111) 
nan

>  <Peripheral>  (111) 
nan

>  <Num_H_Atoms_ProtBoundConf>  (111) 
nan

>  <Num_Resolved_Atoms>  (111) 
nan

>  <Num_Not_Resolved_Atoms>  (111) 
nan

$$$$
CHEMBL209547
     RDKit          3D

  0  0  0  0  0  0  0  0  0  0999 V3000
M  V30 BEGIN CTAB
M  V30 COUNTS 42 44 0 0 0
M  V30 BEGIN ATOM
M  V30 1 C 0.312117 -7.192138 -2.590767 0
M  V30 2 N 0.788226 -7.346658 -1.245620 0
M  V30 3 C 1.066402 -6.329860 -0.292758 0
M  V30 4 N 1.516645 -6.490581 0.977260 0
M  V30 5 C 1.723356 -5.399162 1.736001 0
M  V30 6 C 1.511309 -4.092270 1.323463 0
M  V30 7 C 1.060428 -4.004530 0.040593 0
M  V30 8 C 0.784660 -2.655354 -0.548960 0
M  V30 9 C 0.344984 -2.182194 -1.741532 0
M  V30 10 C 0.233465 -0.835551 -1.859394 0
M  V30 11 C 0.542054 -0.045163 -0.853430 0
M  V30 12 C 0.492450 1.425313 -0.774844 0
M  V30 13 O 0.112750 2.086433 -1.766709 0
M  V30 14 N 0.871889 2.100893 0.417295 0
M  V30 15 C 0.722196 3.529309 0.201760 0
M  V30 16 C 1.130002 4.226485 1.482174 0
M  V30 17 C 0.312462 3.844438 2.649125 0
M  V30 18 C 0.532095 2.844197 3.564651 0
M  V30 19 C -0.340968 2.610715 4.605892 0
M  V30 20 C -1.482904 3.404577 4.745873 0
M  V30 21 C -1.724271 4.410719 3.843563 0
M  V30 22 C -0.825650 4.605572 2.822233 0
M  V30 23 S 1.049252 -1.149676 0.438228 0
M  V30 24 N 0.844921 -5.056287 -0.737433 0
M  V30 25 H -0.608852 -7.813584 -2.760997 0
M  V30 26 H 1.044557 -7.597325 -3.341729 0
M  V30 27 H 0.051305 -6.157267 -2.829678 0
M  V30 28 H 0.952711 -8.346183 -0.923547 0
M  V30 29 H 2.088130 -5.595674 2.754919 0
M  V30 30 H 1.687617 -3.242779 1.958360 0
M  V30 31 H 0.138248 -2.968505 -2.454100 0
M  V30 32 H -0.122250 -0.423531 -2.819882 0
M  V30 33 H 1.173125 1.467593 1.186115 0
M  V30 34 H -0.343922 3.789404 -0.034460 0
M  V30 35 H 1.354553 3.838617 -0.644515 0
M  V30 36 H 2.179874 4.015489 1.755274 0
M  V30 37 H 1.103006 5.342405 1.332211 0
M  V30 38 H 1.428420 2.268143 3.409258 0
M  V30 39 H -0.049686 1.800006 5.246270 0
M  V30 40 H -2.066042 3.109454 5.596080 0
M  V30 41 H -2.619404 4.982961 4.009025 0
M  V30 42 H -1.104368 5.429002 2.156446 0
M  V30 END ATOM
M  V30 BEGIN BOND
M  V30 1 1 1 2
M  V30 2 1 2 3
M  V30 3 2 3 4
M  V30 4 1 4 5
M  V30 5 2 5 6
M  V30 6 1 6 7
M  V30 7 1 7 8
M  V30 8 2 8 9
M  V30 9 1 9 10
M  V30 10 2 10 11
M  V30 11 1 11 12
M  V30 12 2 12 13
M  V30 13 1 12 14
M  V30 14 1 14 15
M  V30 15 1 15 16
M  V30 16 1 16 17
M  V30 17 2 17 18
M  V30 18 1 18 19
M  V30 19 2 19 20
M  V30 20 1 20 21
M  V30 21 2 21 22
M  V30 22 1 11 23
M  V30 23 2 7 24
M  V30 24 1 24 3
M  V30 25 1 23 8
M  V30 26 1 22 17
M  V30 27 1 1 25
M  V30 28 1 1 26
M  V30 29 1 1 27
M  V30 30 1 2 28
M  V30 31 1 5 29
M  V30 32 1 6 30
M  V30 33 1 9 31
M  V30 34 1 10 32
M  V30 35 1 14 33
M  V30 36 1 15 34
M  V30 37 1 15 35
M  V30 38 1 16 36
M  V30 39 1 16 37
M  V30 40 1 18 38
M  V30 41 1 19 39
M  V30 42 1 20 40
M  V30 43 1 21 41
M  V30 44 1 22 42
M  V30 END BOND
M  V30 END CTAB
M  END
>  <Dataset>  (112) 
ChEMBL_Kinases

>  <Ligand_Instance>  (112) 
nan

>  <PDB_ID>  (112) 
nan

>  <Standardized_SMILES>  (112) 
CNc1nccc(-c2ccc(C(=O)NCCc3ccccc3)s2)n1

>  <Name>  (112) 
nan

>  <Pocket>  (112) 
nan

>  <ATP_Site>  (112) 
nan

>  <Peripheral>  (112) 
nan

>  <Num_H_Atoms_ProtBoundConf>  (112) 
nan

>  <Num_Resolved_Atoms>  (112) 
nan

>  <Num_Not_Resolved_Atoms>  (112) 
nan

$$$$
CHEMBL209541
     RDKit          3D

  0  0  0  0  0  0  0  0  0  0999 V3000
M  V30 BEGIN CTAB
M  V30 COUNTS 37 41 0 0 0
M  V30 BEGIN ATOM
M  V30 1 O 3.758212 0.623093 1.813509 0
M  V30 2 C 2.889602 -0.283549 1.838045 0
M  V30 3 N 2.967839 -1.535688 2.550118 0
M  V30 4 C 1.776986 -2.256034 2.302154 0
M  V30 5 O 1.697694 -3.362090 2.852131 0
M  V30 6 C 0.916449 -1.511009 1.445374 0
M  V30 7 C 1.592232 -0.348760 1.183174 0
M  V30 8 C 1.046545 0.621467 0.367224 0
M  V30 9 C 1.583502 1.920980 -0.013884 0
M  V30 10 C 1.596325 2.203275 -1.385736 0
M  V30 11 C 2.046762 3.368758 -1.963847 0
M  V30 12 C 2.524009 4.332219 -1.099833 0
M  V30 13 Cl 3.120025 5.851899 -1.746412 0
M  V30 14 C 2.534985 4.108449 0.261120 0
M  V30 15 C 2.073011 2.924459 0.795352 0
M  V30 16 C -0.217684 0.392691 -0.191046 0
M  V30 17 C -0.894837 -0.772452 0.071630 0
M  V30 18 N -2.099369 -1.232459 -0.329602 0
M  V30 19 C -2.253153 -2.441911 0.239241 0
M  V30 20 C -3.352585 -3.271047 0.093676 0
M  V30 21 C -3.394990 -4.493635 0.729764 0
M  V30 22 C -2.297948 -4.859154 1.517932 0
M  V30 23 O -2.348582 -6.085792 2.151780 0
M  V30 24 C -1.243065 -3.983262 1.614286 0
M  V30 25 C -1.157801 -2.769975 1.006282 0
M  V30 26 C -0.310505 -1.710472 0.891923 0
M  V30 27 H 3.833761 -1.751315 3.126336 0
M  V30 28 H 1.223777 1.457633 -2.095390 0
M  V30 29 H 2.028317 3.519527 -3.020123 0
M  V30 30 H 2.904201 4.848671 0.957742 0
M  V30 31 H 2.057788 2.719620 1.841927 0
M  V30 32 H -0.735152 1.101650 -0.851980 0
M  V30 33 H -2.774567 -0.718540 -0.970383 0
M  V30 34 H -4.206075 -3.005846 -0.509177 0
M  V30 35 H -4.257821 -5.130031 0.607810 0
M  V30 36 H -2.568324 -6.090003 3.135216 0
M  V30 37 H -0.461918 -4.337791 2.226638 0
M  V30 END ATOM
M  V30 BEGIN BOND
M  V30 1 2 1 2
M  V30 2 1 2 3
M  V30 3 1 3 4
M  V30 4 2 4 5
M  V30 5 1 4 6
M  V30 6 2 6 7
M  V30 7 1 7 8
M  V30 8 1 8 9
M  V30 9 2 9 10
M  V30 10 1 10 11
M  V30 11 2 11 12
M  V30 12 1 12 13
M  V30 13 1 12 14
M  V30 14 2 14 15
M  V30 15 2 8 16
M  V30 16 1 16 17
M  V30 17 1 17 18
M  V30 18 1 18 19
M  V30 19 2 19 20
M  V30 20 1 20 21
M  V30 21 2 21 22
M  V30 22 1 22 23
M  V30 23 1 22 24
M  V30 24 2 24 25
M  V30 25 1 25 26
M  V30 26 1 7 2
M  V30 27 1 15 9
M  V30 28 2 26 17
M  V30 29 1 26 6
M  V30 30 1 25 19
M  V30 31 1 3 27
M  V30 32 1 10 28
M  V30 33 1 11 29
M  V30 34 1 14 30
M  V30 35 1 15 31
M  V30 36 1 16 32
M  V30 37 1 18 33
M  V30 38 1 20 34
M  V30 39 1 21 35
M  V30 40 1 23 36
M  V30 41 1 24 37
M  V30 END BOND
M  V30 END CTAB
M  END
>  <Dataset>  (113) 
ChEMBL_Kinases

>  <Ligand_Instance>  (113) 
nan

>  <PDB_ID>  (113) 
nan

>  <Standardized_SMILES>  (113) 
O=C1NC(=O)c2c1c(-c1ccc(Cl)cc1)cc1[nH]c3ccc(O)cc3c21

>  <Name>  (113) 
nan

>  <Pocket>  (113) 
nan

>  <ATP_Site>  (113) 
nan

>  <Peripheral>  (113) 
nan

>  <Num_H_Atoms_ProtBoundConf>  (113) 
nan

>  <Num_Resolved_Atoms>  (113) 
nan

>  <Num_Not_Resolved_Atoms>  (113) 
nan

$$$$
CHEMBL209520
     RDKit          3D

  0  0  0  0  0  0  0  0  0  0999 V3000
M  V30 BEGIN CTAB
M  V30 COUNTS 45 47 0 0 0
M  V30 BEGIN ATOM
M  V30 1 N 0.398150 -0.115597 4.048420 0
M  V30 2 C -0.281156 -0.230880 2.809373 0
M  V30 3 N 0.323409 -1.011947 2.005689 0
M  V30 4 C 1.555200 -1.641909 2.442398 0
M  V30 5 C 2.649949 -0.857482 1.715082 0
M  V30 6 C 2.357811 -1.040118 0.244999 0
M  V30 7 C 3.548495 -0.916363 -0.642293 0
M  V30 8 C 4.557073 -0.029017 0.051666 0
M  V30 9 C 5.070233 -0.799633 1.239822 0
M  V30 10 C 4.004810 -1.390796 2.101724 0
M  V30 11 C -1.514752 0.412598 2.399140 0
M  V30 12 C -2.099716 1.228622 3.306843 0
M  V30 13 O -1.790663 1.618856 4.599408 0
M  V30 14 N -3.304009 1.888697 2.975092 0
M  V30 15 S -3.611717 1.300403 1.257194 0
M  V30 16 C -2.120179 0.269072 1.206756 0
M  V30 17 N -1.812427 -0.468813 0.063432 0
M  V30 18 C -2.606674 -0.476937 -1.112130 0
M  V30 19 C -2.265619 -0.106621 -2.384252 0
M  V30 20 C -3.188159 -0.186242 -3.409940 0
M  V30 21 C -4.471203 -0.640855 -3.170625 0
M  V30 22 C -4.826937 -1.017961 -1.888065 0
M  V30 23 C -3.891300 -0.934192 -0.862414 0
M  V30 24 F -4.386684 -1.337994 0.335702 0
M  V30 25 H 1.258177 0.404987 4.286290 0
M  V30 26 H -0.279735 -0.730043 4.586043 0
M  V30 27 H 1.609550 -2.699500 2.062681 0
M  V30 28 H 1.696542 -1.686537 3.520355 0
M  V30 29 H 2.569332 0.198597 2.031920 0
M  V30 30 H 1.642309 -0.207463 -0.021230 0
M  V30 31 H 1.764510 -1.966839 0.044423 0
M  V30 32 H 3.296206 -0.478899 -1.625194 0
M  V30 33 H 3.983053 -1.922017 -0.804747 0
M  V30 34 H 4.060956 0.928523 0.342412 0
M  V30 35 H 5.418400 0.144334 -0.625726 0
M  V30 36 H 5.679733 -1.642356 0.804573 0
M  V30 37 H 5.767756 -0.112372 1.790253 0
M  V30 38 H 4.041609 -2.496725 2.109295 0
M  V30 39 H 4.184328 -1.070106 3.149266 0
M  V30 40 H -2.209460 1.160369 5.398979 0
M  V30 41 H -0.962867 -1.063752 0.018540 0
M  V30 42 H -1.244665 0.236159 -2.482899 0
M  V30 43 H -2.802318 0.133149 -4.366875 0
M  V30 44 H -5.091254 -0.654468 -4.053260 0
M  V30 45 H -5.847265 -1.362935 -1.777973 0
M  V30 END ATOM
M  V30 BEGIN BOND
M  V30 1 1 1 2
M  V30 2 2 2 3
M  V30 3 1 3 4
M  V30 4 1 4 5
M  V30 5 1 5 6
M  V30 6 1 6 7
M  V30 7 1 7 8
M  V30 8 1 8 9
M  V30 9 1 9 10
M  V30 10 1 2 11
M  V30 11 1 11 12
M  V30 12 1 12 13
M  V30 13 2 12 14
M  V30 14 1 14 15
M  V30 15 1 15 16
M  V30 16 1 16 17
M  V30 17 1 17 18
M  V30 18 2 18 19
M  V30 19 1 19 20
M  V30 20 2 20 21
M  V30 21 1 21 22
M  V30 22 2 22 23
M  V30 23 1 23 24
M  V30 24 1 10 5
M  V30 25 2 16 11
M  V30 26 1 23 18
M  V30 27 1 1 25
M  V30 28 1 1 26
M  V30 29 1 4 27
M  V30 30 1 4 28
M  V30 31 1 5 29
M  V30 32 1 6 30
M  V30 33 1 6 31
M  V30 34 1 7 32
M  V30 35 1 7 33
M  V30 36 1 8 34
M  V30 37 1 8 35
M  V30 38 1 9 36
M  V30 39 1 9 37
M  V30 40 1 10 38
M  V30 41 1 10 39
M  V30 42 1 13 40
M  V30 43 1 17 41
M  V30 44 1 19 42
M  V30 45 1 20 43
M  V30 46 1 21 44
M  V30 47 1 22 45
M  V30 END BOND
M  V30 END CTAB
M  END
>  <Dataset>  (114) 
ChEMBL_Kinases

>  <Ligand_Instance>  (114) 
nan

>  <PDB_ID>  (114) 
nan

>  <Standardized_SMILES>  (114) 
N/C(=N\CC1CCCCC1)c1c(O)nsc1Nc1ccccc1F

>  <Name>  (114) 
nan

>  <Pocket>  (114) 
nan

>  <ATP_Site>  (114) 
nan

>  <Peripheral>  (114) 
nan

>  <Num_H_Atoms_ProtBoundConf>  (114) 
nan

>  <Num_Resolved_Atoms>  (114) 
nan

>  <Num_Not_Resolved_Atoms>  (114) 
nan

$$$$
CHEMBL209513
     RDKit          3D

  0  0  0  0  0  0  0  0  0  0999 V3000
M  V30 BEGIN CTAB
M  V30 COUNTS 56 60 0 0 0
M  V30 BEGIN ATOM
M  V30 1 C 3.437239 -3.066862 4.798497 0
M  V30 2 C 2.367359 -2.972802 3.995255 0
M  V30 3 C 2.349063 -2.008080 2.915665 0
M  V30 4 N 3.488591 -1.257242 2.832749 0
M  V30 5 C 3.581280 -0.312368 1.847105 0
M  V30 6 C 2.479348 -0.221397 1.022307 0
M  V30 7 O 2.602268 0.744023 0.034198 0
M  V30 8 C 1.519842 0.942052 -0.896575 0
M  V30 9 C 1.863196 2.023477 -1.870875 0 CFG=1
M  V30 10 N 3.083240 1.696791 -2.615869 0
M  V30 11 C 0.794143 2.344339 -2.876320 0
M  V30 12 C -0.491004 2.796517 -2.316861 0
M  V30 13 C -0.836079 4.149940 -2.221788 0
M  V30 14 N -2.049301 4.283174 -1.657364 0
M  V30 15 C -2.539329 3.068569 -1.366757 0
M  V30 16 C -3.723532 2.600897 -0.795288 0
M  V30 17 C -3.955885 1.240802 -0.628555 0
M  V30 18 C -2.977791 0.330981 -1.044641 0
M  V30 19 C -1.822391 0.825843 -1.603416 0
M  V30 20 C -1.581718 2.163305 -1.772540 0
M  V30 21 C 1.327772 -0.974742 1.099989 0
M  V30 22 C 1.248248 -1.922277 2.096774 0
M  V30 23 C 0.121543 -2.812227 2.337910 0
M  V30 24 C -0.463035 -3.118642 3.540098 0
M  V30 25 C -1.544634 -4.003633 3.582072 0
M  V30 26 C -2.041817 -4.580807 2.433065 0
M  V30 27 C -3.105390 -5.459613 2.420222 0
M  V30 28 N -3.574568 -6.011887 1.284240 0
M  V30 29 C -3.029370 -5.737671 0.079727 0
M  V30 30 C -1.947326 -4.853197 0.027518 0
M  V30 31 C -1.479373 -4.296784 1.200303 0
M  V30 32 C -0.402368 -3.411158 1.187775 0
M  V30 33 H 4.420676 -2.624498 4.951353 0
M  V30 34 H 4.404524 -2.552344 4.861213 0
M  V30 35 H 2.298236 -3.709706 4.765052 0
M  V30 36 H 4.459602 0.305376 1.740694 0
M  V30 37 H 0.626875 1.212083 -0.268908 0
M  V30 38 H 1.268372 0.030151 -1.446599 0
M  V30 39 H 2.084655 2.940203 -1.288893 0
M  V30 40 H 3.856002 1.762105 -1.893666 0
M  V30 41 H 3.038122 0.685083 -2.874548 0
M  V30 42 H 1.212812 3.131883 -3.572495 0
M  V30 43 H 0.622840 1.472702 -3.572614 0
M  V30 44 H -0.237188 4.986344 -2.545672 0
M  V30 45 H -2.546008 5.192493 -1.468761 0
M  V30 46 H -4.452722 3.323402 -0.487339 0
M  V30 47 H -4.895964 0.904842 -0.176131 0
M  V30 48 H -3.192127 -0.727086 -0.899394 0
M  V30 49 H -1.074529 0.116283 -1.921410 0
M  V30 50 H 0.488015 -0.871936 0.433925 0
M  V30 51 H -0.042327 -2.647858 4.392127 0
M  V30 52 H -1.993161 -4.236897 4.517585 0
M  V30 53 H -3.558555 -5.692572 3.390574 0
M  V30 54 H -3.406857 -6.184007 -0.850748 0
M  V30 55 H -1.468714 -4.598865 -0.930374 0
M  V30 56 H 0.012701 -3.212364 0.199252 0
M  V30 END ATOM
M  V30 BEGIN BOND
M  V30 1 2 1 2
M  V30 2 1 2 3
M  V30 3 2 3 4
M  V30 4 1 4 5
M  V30 5 2 5 6
M  V30 6 1 6 7
M  V30 7 1 7 8
M  V30 8 1 8 9
M  V30 9 1 9 10
M  V30 10 1 9 11
M  V30 11 1 11 12
M  V30 12 2 12 13
M  V30 13 1 13 14
M  V30 14 1 14 15
M  V30 15 2 15 16
M  V30 16 1 16 17
M  V30 17 2 17 18
M  V30 18 1 18 19
M  V30 19 2 19 20
M  V30 20 1 6 21
M  V30 21 2 21 22
M  V30 22 1 22 23
M  V30 23 2 23 24
M  V30 24 1 24 25
M  V30 25 2 25 26
M  V30 26 1 26 27
M  V30 27 2 27 28
M  V30 28 1 28 29
M  V30 29 2 29 30
M  V30 30 1 30 31
M  V30 31 2 31 32
M  V30 32 1 22 3
M  V30 33 1 32 23
M  V30 34 1 20 12
M  V30 35 1 31 26
M  V30 36 1 20 15
M  V30 37 1 1 33
M  V30 38 1 1 34
M  V30 39 1 2 35
M  V30 40 1 5 36
M  V30 41 1 8 37
M  V30 42 1 8 38
M  V30 43 1 9 39 CFG=1
M  V30 44 1 10 40
M  V30 45 1 10 41
M  V30 46 1 11 42
M  V30 47 1 11 43
M  V30 48 1 13 44
M  V30 49 1 14 45
M  V30 50 1 16 46
M  V30 51 1 17 47
M  V30 52 1 18 48
M  V30 53 1 19 49
M  V30 54 1 21 50
M  V30 55 1 24 51
M  V30 56 1 25 52
M  V30 57 1 27 53
M  V30 58 1 29 54
M  V30 59 1 30 55
M  V30 60 1 32 56
M  V30 END BOND
M  V30 END CTAB
M  END
>  <Dataset>  (115) 
ChEMBL_Kinases

>  <Ligand_Instance>  (115) 
nan

>  <PDB_ID>  (115) 
nan

>  <Standardized_SMILES>  (115) 
C=Cc1ncc(OC[C@@H](N)Cc2c[nH]c3ccccc23)cc1-c1ccc2cnccc2c1

>  <Name>  (115) 
nan

>  <Pocket>  (115) 
nan

>  <ATP_Site>  (115) 
nan

>  <Peripheral>  (115) 
nan

>  <Num_H_Atoms_ProtBoundConf>  (115) 
nan

>  <Num_Resolved_Atoms>  (115) 
nan

>  <Num_Not_Resolved_Atoms>  (115) 
nan

$$$$
CHEMBL209503
     RDKit          3D

  0  0  0  0  0  0  0  0  0  0999 V3000
M  V30 BEGIN CTAB
M  V30 COUNTS 63 69 0 0 0
M  V30 BEGIN ATOM
M  V30 1 O 7.591519 4.332947 3.713154 0
M  V30 2 C 6.394243 3.729645 3.322771 0
M  V30 3 N 5.382469 4.153194 2.906361 0
M  V30 4 C 4.298472 3.494960 2.563215 0
M  V30 5 C 3.101892 3.970104 2.072888 0
M  V30 6 C 2.061451 3.134045 1.762332 0
M  V30 7 C 2.124264 1.769044 1.912287 0
M  V30 8 N 1.046981 0.915879 1.613971 0
M  V30 9 C 0.873505 -0.515336 1.640327 0 CFG=2
M  V30 10 C 1.659571 -1.096630 0.484332 0
M  V30 11 O 1.374316 -0.644237 -0.750056 0
M  V30 12 C 0.459413 -0.509237 -1.674835 0
M  V30 13 C 1.130063 0.144626 -2.736037 0
M  V30 14 N 0.493685 0.468410 -3.909288 0
M  V30 15 C -0.809314 0.163170 -4.076558 0
M  V30 16 C -1.539428 -0.472745 -3.096861 0
M  V30 17 C -2.941758 -0.859023 -3.145014 0
M  V30 18 C -3.567273 -1.915145 -2.547207 0
M  V30 19 C -4.903945 -2.181683 -2.665680 0
M  V30 20 C -5.724592 -1.371653 -3.421059 0
M  V30 21 N -7.024718 -1.620260 -3.543321 0
M  V30 22 C -7.736419 -0.826888 -4.262261 0
M  V30 23 O -9.068430 -0.804647 -4.581810 0
M  V30 24 S -6.500973 0.497135 -4.909246 0
M  V30 25 C -5.037038 -0.253521 -4.048328 0
M  V30 26 C -3.708058 -0.013664 -3.913049 0
M  V30 27 C -0.846430 -0.769646 -1.947632 0
M  V30 28 C -0.517862 -0.997494 1.791610 0
M  V30 29 C -0.539705 -2.503233 1.830991 0
M  V30 30 C -0.847840 -3.532150 0.971038 0
M  V30 31 N -0.675429 -4.728112 1.551587 0
M  V30 32 C -0.250301 -4.547551 2.808040 0
M  V30 33 C 0.054423 -5.481925 3.775232 0
M  V30 34 C 0.474352 -5.054221 5.012270 0
M  V30 35 C 0.571173 -3.696281 5.227465 0
M  V30 36 C 0.260926 -2.791805 4.244423 0
M  V30 37 C -0.161467 -3.187186 2.996487 0
M  V30 38 C 3.300181 1.252533 2.398871 0
M  V30 39 C 4.348115 2.091746 2.711557 0
M  V30 40 S 6.016326 1.842632 3.356616 0
M  V30 41 H 8.077432 4.061222 4.580614 0
M  V30 42 H 2.893459 5.017804 1.898376 0
M  V30 43 H 1.104977 3.514094 1.370293 0
M  V30 44 H 0.162671 1.371077 1.301987 0
M  V30 45 H 1.429785 -0.940983 2.556582 0
M  V30 46 H 2.746237 -0.853146 0.701124 0
M  V30 47 H 1.676392 -2.235825 0.572648 0
M  V30 48 H 2.166723 0.503708 -2.872583 0
M  V30 49 H -1.359828 0.394856 -4.977981 0
M  V30 50 H -2.865097 -2.525387 -1.957938 0
M  V30 51 H -5.188861 -3.070562 -2.107477 0
M  V30 52 H -9.667319 -0.001271 -4.567070 0
M  V30 53 H -3.481923 0.872553 -4.482744 0
M  V30 54 H -1.300018 -1.259952 -1.117995 0
M  V30 55 H -1.267407 -0.574589 1.119760 0
M  V30 56 H -0.857965 -0.654753 2.822622 0
M  V30 57 H -1.180878 -3.324581 -0.027780 0
M  V30 58 H -0.864087 -5.618515 1.040747 0
M  V30 59 H -0.017650 -6.533593 3.619267 0
M  V30 60 H 0.719446 -5.773121 5.786771 0
M  V30 61 H 0.906863 -3.364352 6.219403 0
M  V30 62 H 0.365213 -1.761990 4.511885 0
M  V30 63 H 3.530011 0.238940 2.590199 0
M  V30 END ATOM
M  V30 BEGIN BOND
M  V30 1 1 1 2
M  V30 2 2 2 3
M  V30 3 1 3 4
M  V30 4 2 4 5
M  V30 5 1 5 6
M  V30 6 2 6 7
M  V30 7 1 7 8
M  V30 8 1 8 9
M  V30 9 1 9 10
M  V30 10 1 10 11
M  V30 11 1 11 12
M  V30 12 2 12 13
M  V30 13 1 13 14
M  V30 14 2 14 15
M  V30 15 1 15 16
M  V30 16 1 16 17
M  V30 17 2 17 18
M  V30 18 1 18 19
M  V30 19 2 19 20
M  V30 20 1 20 21
M  V30 21 2 21 22
M  V30 22 1 22 23
M  V30 23 1 22 24
M  V30 24 1 24 25
M  V30 25 2 25 26
M  V30 26 2 16 27
M  V30 27 1 9 28
M  V30 28 1 28 29
M  V30 29 2 29 30
M  V30 30 1 30 31
M  V30 31 1 31 32
M  V30 32 2 32 33
M  V30 33 1 33 34
M  V30 34 2 34 35
M  V30 35 1 35 36
M  V30 36 2 36 37
M  V30 37 1 7 38
M  V30 38 2 38 39
M  V30 39 1 39 40
M  V30 40 1 40 2
M  V30 41 1 39 4
M  V30 42 1 27 12
M  V30 43 1 37 29
M  V30 44 1 26 17
M  V30 45 1 37 32
M  V30 46 1 25 20
M  V30 47 1 1 41
M  V30 48 1 5 42
M  V30 49 1 6 43
M  V30 50 1 8 44
M  V30 51 1 9 45 CFG=1
M  V30 52 1 10 46
M  V30 53 1 10 47
M  V30 54 1 13 48
M  V30 55 1 15 49
M  V30 56 1 18 50
M  V30 57 1 19 51
M  V30 58 1 23 52
M  V30 59 1 26 53
M  V30 60 1 27 54
M  V30 61 1 28 55
M  V30 62 1 28 56
M  V30 63 1 30 57
M  V30 64 1 31 58
M  V30 65 1 33 59
M  V30 66 1 34 60
M  V30 67 1 35 61
M  V30 68 1 36 62
M  V30 69 1 38 63
M  V30 END BOND
M  V30 END CTAB
M  END
>  <Dataset>  (116) 
ChEMBL_Kinases

>  <Ligand_Instance>  (116) 
nan

>  <PDB_ID>  (116) 
nan

>  <Standardized_SMILES>  (116) 
Oc1nc2ccc(N[C@H](COc3cncc(-c4ccc5nc(O)sc5c4)c3)Cc3c[nH]c4ccccc34)cc2s1

>  <Name>  (116) 
nan

>  <Pocket>  (116) 
nan

>  <ATP_Site>  (116) 
nan

>  <Peripheral>  (116) 
nan

>  <Num_H_Atoms_ProtBoundConf>  (116) 
nan

>  <Num_Resolved_Atoms>  (116) 
nan

>  <Num_Not_Resolved_Atoms>  (116) 
nan

$$$$
CHEMBL209502
     RDKit          3D

  0  0  0  0  0  0  0  0  0  0999 V3000
M  V30 BEGIN CTAB
M  V30 COUNTS 51 53 0 0 0
M  V30 BEGIN ATOM
M  V30 1 C 0.526214 -6.791645 0.113711 0
M  V30 2 C 0.644069 -5.298804 0.011070 0
M  V30 3 C 0.875409 -4.522976 1.143927 0
M  V30 4 C 0.981430 -3.144917 1.029047 0
M  V30 5 C 0.852649 -2.555407 -0.234868 0
M  V30 6 N 0.972621 -1.139807 -0.256203 0
M  V30 7 C 1.942292 -0.421880 -0.962539 0
M  V30 8 S 3.190051 -1.084885 -1.949470 0
M  V30 9 N 3.922997 0.570104 -2.435543 0
M  V30 10 C 3.057820 1.388738 -1.734667 0
M  V30 11 O 3.583653 2.636911 -2.080787 0
M  V30 12 C 2.020866 0.934014 -0.960236 0
M  V30 13 C 1.267933 1.997322 -0.312693 0
M  V30 14 N 0.940872 3.159437 -0.824243 0
M  V30 15 N 0.839813 1.785724 1.026417 0
M  V30 16 C -0.443063 2.265936 1.493927 0
M  V30 17 C -0.660980 1.957633 2.956387 0
M  V30 18 C -0.622097 0.484255 3.258435 0
M  V30 19 C -1.959135 -0.167722 3.245404 0
M  V30 20 C -3.002724 0.481600 2.403664 0
M  V30 21 C -3.127772 1.962021 2.552131 0
M  V30 22 C -2.009246 2.486540 3.423933 0
M  V30 23 C 0.623070 -3.324398 -1.357868 0
M  V30 24 C 0.486261 -2.667118 -2.683731 0
M  V30 25 C 0.517320 -4.696939 -1.245232 0
M  V30 26 H -0.493751 -7.144335 -0.207753 0
M  V30 27 H 1.249213 -7.327491 -0.504912 0
M  V30 28 H 0.600275 -7.064255 1.181996 0
M  V30 29 H 0.975777 -4.973562 2.122463 0
M  V30 30 H 1.160139 -2.581367 1.926120 0
M  V30 31 H 0.230810 -0.706107 0.329040 0
M  V30 32 H 3.259327 3.129898 -2.902369 0
M  V30 33 H 1.178219 3.475836 -1.766652 0
M  V30 34 H 1.454975 1.266056 1.721149 0
M  V30 35 H -0.438266 3.380810 1.390161 0
M  V30 36 H -1.284675 1.921087 0.878631 0
M  V30 37 H 0.105242 2.487590 3.563316 0
M  V30 38 H 0.143415 -0.019554 2.606215 0
M  V30 39 H -0.187266 0.331795 4.294018 0
M  V30 40 H -1.828789 -1.206655 2.876933 0
M  V30 41 H -2.360040 -0.200838 4.289823 0
M  V30 42 H -3.979104 0.002232 2.716409 0
M  V30 43 H -2.947016 0.251995 1.316325 0
M  V30 44 H -3.176084 2.502016 1.585527 0
M  V30 45 H -4.075647 2.225690 3.083827 0
M  V30 46 H -2.177282 2.102770 4.440673 0
M  V30 47 H -2.068351 3.579133 3.435194 0
M  V30 48 H 1.300139 -2.904909 -3.389800 0
M  V30 49 H -0.465122 -3.089422 -3.121892 0
M  V30 50 H 0.314370 -1.595567 -2.606549 0
M  V30 51 H 0.336874 -5.263286 -2.153207 0
M  V30 END ATOM
M  V30 BEGIN BOND
M  V30 1 1 1 2
M  V30 2 2 2 3
M  V30 3 1 3 4
M  V30 4 2 4 5
M  V30 5 1 5 6
M  V30 6 1 6 7
M  V30 7 1 7 8
M  V30 8 1 8 9
M  V30 9 2 9 10
M  V30 10 1 10 11
M  V30 11 1 10 12
M  V30 12 1 12 13
M  V30 13 2 13 14 CFG=2
M  V30 14 1 13 15
M  V30 15 1 15 16
M  V30 16 1 16 17
M  V30 17 1 17 18
M  V30 18 1 18 19
M  V30 19 1 19 20
M  V30 20 1 20 21
M  V30 21 1 21 22
M  V30 22 1 5 23
M  V30 23 1 23 24
M  V30 24 2 23 25
M  V30 25 1 25 2
M  V30 26 2 12 7
M  V30 27 1 22 17
M  V30 28 1 1 26
M  V30 29 1 1 27
M  V30 30 1 1 28
M  V30 31 1 3 29
M  V30 32 1 4 30
M  V30 33 1 6 31
M  V30 34 1 11 32
M  V30 35 1 14 33
M  V30 36 1 15 34
M  V30 37 1 16 35
M  V30 38 1 16 36
M  V30 39 1 17 37
M  V30 40 1 18 38
M  V30 41 1 18 39
M  V30 42 1 19 40
M  V30 43 1 19 41
M  V30 44 1 20 42
M  V30 45 1 20 43
M  V30 46 1 21 44
M  V30 47 1 21 45
M  V30 48 1 22 46
M  V30 49 1 22 47
M  V30 50 1 24 48
M  V30 51 1 24 49
M  V30 52 1 24 50
M  V30 53 1 25 51
M  V30 END BOND
M  V30 END CTAB
M  END
>  <Dataset>  (117) 
ChEMBL_Kinases

>  <Ligand_Instance>  (117) 
nan

>  <PDB_ID>  (117) 
nan

>  <Standardized_SMILES>  (117) 
Cc1ccc(Nc2snc(O)c2C(=N)NCC2CCCCC2)c(C)c1

>  <Name>  (117) 
nan

>  <Pocket>  (117) 
nan

>  <ATP_Site>  (117) 
nan

>  <Peripheral>  (117) 
nan

>  <Num_H_Atoms_ProtBoundConf>  (117) 
nan

>  <Num_Resolved_Atoms>  (117) 
nan

>  <Num_Not_Resolved_Atoms>  (117) 
nan

$$$$
CHEMBL209489
     RDKit          3D

  0  0  0  0  0  0  0  0  0  0999 V3000
M  V30 BEGIN CTAB
M  V30 COUNTS 47 49 0 0 0
M  V30 BEGIN ATOM
M  V30 1 N 0.908022 -1.626422 -0.389383 0
M  V30 2 C -0.341291 -1.373925 0.194998 0
M  V30 3 N -1.380978 -1.852222 -0.379498 0
M  V30 4 C -1.153726 -2.621964 -1.612496 0
M  V30 5 C -2.096556 -2.142370 -2.700104 0
M  V30 6 C -1.914261 -0.702734 -3.012655 0
M  V30 7 C -3.150026 0.127949 -3.011007 0
M  V30 8 C -4.435689 -0.562024 -3.270851 0
M  V30 9 C -4.292297 -2.033860 -3.642449 0
M  V30 10 C -3.486339 -2.610142 -2.467438 0
M  V30 11 C -0.292728 -0.577706 1.395064 0
M  V30 12 C -1.527621 -0.361975 1.928863 0
M  V30 13 O -2.835339 -0.723758 1.609743 0
M  V30 14 N -1.777431 0.379334 3.071958 0
M  V30 15 S -0.031131 0.893856 3.533114 0
M  V30 16 C 0.716650 0.053445 2.156686 0
M  V30 17 N 2.077501 -0.118122 1.652244 0
M  V30 18 C 2.266794 0.723942 0.517493 0
M  V30 19 C 1.328459 1.645922 0.091924 0
M  V30 20 C 1.470084 2.462084 -1.032607 0
M  V30 21 C 2.621842 2.353051 -1.780383 0
M  V30 22 Cl 2.772110 3.385764 -3.187469 0
M  V30 23 C 3.576619 1.447534 -1.387471 0
M  V30 24 N 4.749236 1.365610 -2.205519 0 CHG=1 VAL=4
M  V30 25 O 5.156851 2.410331 -2.799894 0
M  V30 26 O 5.345371 0.111593 -2.274257 0 CHG=-1 VAL=1
M  V30 27 C 3.414580 0.646746 -0.266869 0
M  V30 28 H 1.715271 -1.615216 -1.034361 0
M  V30 29 H 1.846429 -1.918892 -0.677856 0
M  V30 30 H -0.124516 -2.471804 -1.936374 0
M  V30 31 H -1.404175 -3.667316 -1.348469 0
M  V30 32 H -1.741578 -2.717242 -3.616106 0
M  V30 33 H -1.223730 -0.277931 -2.223829 0
M  V30 34 H -1.325530 -0.540668 -3.958452 0
M  V30 35 H -3.209604 0.749254 -2.067237 0
M  V30 36 H -3.039226 0.903421 -3.804962 0
M  V30 37 H -5.005923 -0.586013 -2.298515 0
M  V30 38 H -5.112681 -0.034573 -3.978758 0
M  V30 39 H -3.634535 -2.054942 -4.556741 0
M  V30 40 H -5.265165 -2.492238 -3.767617 0
M  V30 41 H -3.526929 -3.719647 -2.594055 0
M  V30 42 H -3.929418 -2.287918 -1.524557 0
M  V30 43 H -2.938142 -1.729700 1.414314 0
M  V30 44 H 2.886205 -0.694200 1.940750 0
M  V30 45 H 0.408418 1.790704 0.622936 0
M  V30 46 H 0.697297 3.165598 -1.320935 0
M  V30 47 H 4.166991 -0.065283 0.038498 0
M  V30 END ATOM
M  V30 BEGIN BOND
M  V30 1 1 1 2
M  V30 2 2 2 3
M  V30 3 1 3 4
M  V30 4 1 4 5
M  V30 5 1 5 6
M  V30 6 1 6 7
M  V30 7 1 7 8
M  V30 8 1 8 9
M  V30 9 1 9 10
M  V30 10 1 2 11
M  V30 11 1 11 12
M  V30 12 1 12 13
M  V30 13 2 12 14
M  V30 14 1 14 15
M  V30 15 1 15 16
M  V30 16 1 16 17
M  V30 17 1 17 18
M  V30 18 2 18 19
M  V30 19 1 19 20
M  V30 20 2 20 21
M  V30 21 1 21 22
M  V30 22 1 21 23
M  V30 23 1 23 24
M  V30 24 2 24 25
M  V30 25 1 24 26
M  V30 26 2 23 27
M  V30 27 1 10 5
M  V30 28 2 16 11
M  V30 29 1 27 18
M  V30 30 1 1 28
M  V30 31 1 1 29
M  V30 32 1 4 30
M  V30 33 1 4 31
M  V30 34 1 5 32
M  V30 35 1 6 33
M  V30 36 1 6 34
M  V30 37 1 7 35
M  V30 38 1 7 36
M  V30 39 1 8 37
M  V30 40 1 8 38
M  V30 41 1 9 39
M  V30 42 1 9 40
M  V30 43 1 10 41
M  V30 44 1 10 42
M  V30 45 1 13 43
M  V30 46 1 17 44
M  V30 47 1 19 45
M  V30 48 1 20 46
M  V30 49 1 27 47
M  V30 END BOND
M  V30 END CTAB
M  END
>  <Dataset>  (118) 
ChEMBL_Kinases

>  <Ligand_Instance>  (118) 
nan

>  <PDB_ID>  (118) 
nan

>  <Standardized_SMILES>  (118) 
N/C(=N\CC1CCCCC1)c1c(O)nsc1Nc1ccc(Cl)c([N+](=O)[O-])c1

>  <Name>  (118) 
nan

>  <Pocket>  (118) 
nan

>  <ATP_Site>  (118) 
nan

>  <Peripheral>  (118) 
nan

>  <Num_H_Atoms_ProtBoundConf>  (118) 
nan

>  <Num_Resolved_Atoms>  (118) 
nan

>  <Num_Not_Resolved_Atoms>  (118) 
nan

$$$$
CHEMBL209475
     RDKit          3D

  0  0  0  0  0  0  0  0  0  0999 V3000
M  V30 BEGIN CTAB
M  V30 COUNTS 34 35 0 0 0
M  V30 BEGIN ATOM
M  V30 1 C -0.744570 -3.547495 4.344979 0
M  V30 2 N -0.098632 -4.724375 3.774056 0
M  V30 3 C 0.529455 -4.649284 2.501033 0
M  V30 4 N 1.134650 -5.704634 1.938271 0
M  V30 5 C 1.729280 -5.636581 0.734844 0
M  V30 6 C 1.750069 -4.468339 0.006441 0
M  V30 7 C 1.132307 -3.408067 0.590895 0
M  V30 8 C 1.045333 -2.039669 -0.044489 0
M  V30 9 C 1.524285 -1.572180 -1.256749 0
M  V30 10 C 1.279094 -0.277379 -1.539253 0
M  V30 11 C 0.606634 0.487139 -0.673650 0
M  V30 12 C 0.251336 1.941040 -0.834402 0
M  V30 13 O 0.597476 2.530150 -1.858406 0
M  V30 14 N -0.475678 2.523567 0.245052 0
M  V30 15 C -0.874159 3.910266 0.205790 0
M  V30 16 C -1.772932 4.159773 -0.974812 0
M  V30 17 N -2.201653 5.542450 -1.054451 0
M  V30 18 S 0.233833 -0.550323 0.666460 0
M  V30 19 N 0.543391 -3.490031 1.791331 0
M  V30 20 H -1.707344 -3.351426 3.796153 0
M  V30 21 H -0.095993 -2.655090 4.210009 0
M  V30 22 H -0.959258 -3.774138 5.394724 0
M  V30 23 H -0.075680 -5.642165 4.269460 0
M  V30 24 H 2.237158 -6.467736 0.230495 0
M  V30 25 H 2.168538 -4.231241 -0.951844 0
M  V30 26 H 2.047665 -2.316445 -1.842611 0
M  V30 27 H 1.642613 0.138919 -2.495542 0
M  V30 28 H -0.718244 1.911394 1.082221 0
M  V30 29 H -1.489056 4.106560 1.112754 0
M  V30 30 H -0.003859 4.599017 0.210294 0
M  V30 31 H -1.233345 3.954101 -1.919786 0
M  V30 32 H -2.659746 3.524403 -0.912276 0
M  V30 33 H -2.484405 5.827115 -1.997493 0
M  V30 34 H -2.860171 5.807220 -0.291253 0
M  V30 END ATOM
M  V30 BEGIN BOND
M  V30 1 1 1 2
M  V30 2 1 2 3
M  V30 3 2 3 4
M  V30 4 1 4 5
M  V30 5 2 5 6
M  V30 6 1 6 7
M  V30 7 1 7 8
M  V30 8 2 8 9
M  V30 9 1 9 10
M  V30 10 2 10 11
M  V30 11 1 11 12
M  V30 12 2 12 13
M  V30 13 1 12 14
M  V30 14 1 14 15
M  V30 15 1 15 16
M  V30 16 1 16 17
M  V30 17 1 11 18
M  V30 18 2 7 19
M  V30 19 1 19 3
M  V30 20 1 18 8
M  V30 21 1 1 20
M  V30 22 1 1 21
M  V30 23 1 1 22
M  V30 24 1 2 23
M  V30 25 1 5 24
M  V30 26 1 6 25
M  V30 27 1 9 26
M  V30 28 1 10 27
M  V30 29 1 14 28
M  V30 30 1 15 29
M  V30 31 1 15 30
M  V30 32 1 16 31
M  V30 33 1 16 32
M  V30 34 1 17 33
M  V30 35 1 17 34
M  V30 END BOND
M  V30 END CTAB
M  END
>  <Dataset>  (119) 
ChEMBL_Kinases

>  <Ligand_Instance>  (119) 
nan

>  <PDB_ID>  (119) 
nan

>  <Standardized_SMILES>  (119) 
CNc1nccc(-c2ccc(C(=O)NCCN)s2)n1

>  <Name>  (119) 
nan

>  <Pocket>  (119) 
nan

>  <ATP_Site>  (119) 
nan

>  <Peripheral>  (119) 
nan

>  <Num_H_Atoms_ProtBoundConf>  (119) 
nan

>  <Num_Resolved_Atoms>  (119) 
nan

>  <Num_Not_Resolved_Atoms>  (119) 
nan

$$$$
CHEMBL209442
     RDKit          3D

  0  0  0  0  0  0  0  0  0  0999 V3000
M  V30 BEGIN CTAB
M  V30 COUNTS 66 70 0 0 0
M  V30 BEGIN ATOM
M  V30 1 C 1.684847 -1.061020 5.387186 0
M  V30 2 C 1.252546 -1.371417 3.947870 0
M  V30 3 C 0.775385 -2.808316 3.968430 0
M  V30 4 C 2.508329 -1.294063 3.110796 0
M  V30 5 C 2.159387 -0.470314 1.855924 0
M  V30 6 N 1.090634 -1.072950 1.145667 0
M  V30 7 C 0.416403 -0.776795 -0.077217 0
M  V30 8 N 0.708732 0.228706 -0.902067 0
M  V30 9 C 0.068906 0.532997 -2.043107 0
M  V30 10 C 0.580836 1.623597 -2.791739 0
M  V30 11 C 0.130988 2.346136 -3.853439 0
M  V30 12 C 0.673054 3.419549 -4.510673 0
M  V30 13 C 1.883632 3.874283 -4.041875 0
M  V30 14 C 2.444199 3.225138 -2.967784 0
M  V30 15 C 1.809772 2.160511 -2.390413 0
M  V30 16 Cl 2.736823 1.486396 -1.050116 0
M  V30 17 C -0.974687 -0.291962 -2.352177 0
M  V30 18 C -1.329410 -1.342511 -1.555221 0
M  V30 19 N -0.619968 -1.545165 -0.445908 0
M  V30 20 N -2.341182 -2.304623 -1.762838 0
M  V30 21 C -2.624972 -3.365309 -0.848115 0
M  V30 22 C -3.504019 -3.357658 0.212541 0
M  V30 23 Cl -4.368540 -1.867978 0.459729 0
M  V30 24 C -3.626290 -4.514152 0.981946 0
M  V30 25 C -2.907970 -5.650432 0.722244 0
M  V30 26 C -2.031426 -5.632280 -0.349343 0
M  V30 27 C -1.882913 -4.506074 -1.134200 0
M  V30 28 Cl -0.741113 -4.651377 -2.439377 0
M  V30 29 C -3.128101 -2.227969 -2.940173 0
M  V30 30 O -4.058019 -2.997289 -3.268224 0
M  V30 31 N -2.752657 -1.141339 -3.767061 0
M  V30 32 C -1.759573 -0.062689 -3.565330 0
M  V30 33 C 1.809020 0.884306 2.441645 0
M  V30 34 C 0.482601 0.779123 3.160508 0
M  V30 35 C 0.494470 1.774713 4.312088 0
M  V30 36 C -0.586301 1.255270 2.187375 0
M  V30 37 N 0.202298 -0.542378 3.507415 0
M  V30 38 H 1.883093 -0.005716 5.560358 0
M  V30 39 H 0.834116 -1.357699 6.059108 0
M  V30 40 H 2.573060 -1.687259 5.611384 0
M  V30 41 H 0.743592 -3.251073 4.984930 0
M  V30 42 H -0.286614 -2.910887 3.598082 0
M  V30 43 H 1.404250 -3.486887 3.346817 0
M  V30 44 H 3.340683 -0.779480 3.632068 0
M  V30 45 H 2.818253 -2.296139 2.739335 0
M  V30 46 H 3.063647 -0.354686 1.225171 0
M  V30 47 H 0.717293 -1.939788 1.649567 0
M  V30 48 H -0.813344 2.058102 -4.248744 0
M  V30 49 H 0.190682 3.893303 -5.350312 0
M  V30 50 H 2.362618 4.716685 -4.516974 0
M  V30 51 H 3.390652 3.622975 -2.645683 0
M  V30 52 H -4.329744 -4.440990 1.794748 0
M  V30 53 H -3.048824 -6.528304 1.364342 0
M  V30 54 H -1.482710 -6.562964 -0.514090 0
M  V30 55 H -3.274784 -1.086484 -4.693346 0
M  V30 56 H -1.193483 -0.096038 -4.513543 0
M  V30 57 H -2.418810 0.834851 -3.497732 0
M  V30 58 H 2.598772 1.106005 3.201013 0
M  V30 59 H 1.814389 1.712417 1.747160 0
M  V30 60 H -0.058194 2.714616 4.043009 0
M  V30 61 H -0.043177 1.377325 5.191743 0
M  V30 62 H 1.527805 2.137826 4.543658 0
M  V30 63 H -1.299912 0.437361 1.919570 0
M  V30 64 H -0.160030 1.740542 1.288052 0
M  V30 65 H -1.238143 2.050275 2.645790 0
M  V30 66 H -0.734078 -0.926852 3.406789 0
M  V30 END ATOM
M  V30 BEGIN BOND
M  V30 1 1 1 2
M  V30 2 1 2 3
M  V30 3 1 2 4
M  V30 4 1 4 5
M  V30 5 1 5 6
M  V30 6 1 6 7
M  V30 7 2 7 8
M  V30 8 1 8 9
M  V30 9 1 9 10
M  V30 10 2 10 11
M  V30 11 1 11 12
M  V30 12 2 12 13
M  V30 13 1 13 14
M  V30 14 2 14 15
M  V30 15 1 15 16
M  V30 16 2 9 17
M  V30 17 1 17 18
M  V30 18 2 18 19
M  V30 19 1 18 20
M  V30 20 1 20 21
M  V30 21 2 21 22
M  V30 22 1 22 23
M  V30 23 1 22 24
M  V30 24 2 24 25
M  V30 25 1 25 26
M  V30 26 2 26 27
M  V30 27 1 27 28
M  V30 28 1 20 29
M  V30 29 2 29 30
M  V30 30 1 29 31
M  V30 31 1 31 32
M  V30 32 1 5 33
M  V30 33 1 33 34
M  V30 34 1 34 35
M  V30 35 1 34 36
M  V30 36 1 34 37
M  V30 37 1 37 2
M  V30 38 1 19 7
M  V30 39 1 27 21
M  V30 40 1 15 10
M  V30 41 1 32 17
M  V30 42 1 1 38
M  V30 43 1 1 39
M  V30 44 1 1 40
M  V30 45 1 3 41
M  V30 46 1 3 42
M  V30 47 1 3 43
M  V30 48 1 4 44
M  V30 49 1 4 45
M  V30 50 1 5 46
M  V30 51 1 6 47
M  V30 52 1 11 48
M  V30 53 1 12 49
M  V30 54 1 13 50
M  V30 55 1 14 51
M  V30 56 1 24 52
M  V30 57 1 25 53
M  V30 58 1 26 54
M  V30 59 1 31 55
M  V30 60 1 32 56
M  V30 61 1 32 57
M  V30 62 1 33 58
M  V30 63 1 33 59
M  V30 64 1 35 60
M  V30 65 1 35 61
M  V30 66 1 35 62
M  V30 67 1 36 63
M  V30 68 1 36 64
M  V30 69 1 36 65
M  V30 70 1 37 66
M  V30 END BOND
M  V30 END CTAB
M  END
>  <Dataset>  (120) 
ChEMBL_Kinases

>  <Ligand_Instance>  (120) 
nan

>  <PDB_ID>  (120) 
nan

>  <Standardized_SMILES>  (120) 
CC1(C)CC(Nc2nc(-c3ccccc3Cl)c3c(n2)N(c2c(Cl)cccc2Cl)C(=O)NC3)CC(C)(C)N1

>  <Name>  (120) 
nan

>  <Pocket>  (120) 
nan

>  <ATP_Site>  (120) 
nan

>  <Peripheral>  (120) 
nan

>  <Num_H_Atoms_ProtBoundConf>  (120) 
nan

>  <Num_Resolved_Atoms>  (120) 
nan

>  <Num_Not_Resolved_Atoms>  (120) 
nan

$$$$
CHEMBL2094331
     RDKit          3D

  0  0  0  0  0  0  0  0  0  0999 V3000
M  V30 BEGIN CTAB
M  V30 COUNTS 27 29 0 0 0
M  V30 BEGIN ATOM
M  V30 1 O 2.465646 -0.366565 0.442603 0
M  V30 2 C 1.534372 -1.137066 0.752859 0
M  V30 3 N 1.707016 -2.467939 1.170667 0
M  V30 4 C 0.400448 -3.026438 1.435203 0
M  V30 5 C 0.117611 -4.307638 1.864152 0
M  V30 6 C -1.224536 -4.633871 2.053806 0
M  V30 7 C -2.202664 -3.680241 1.809803 0
M  V30 8 C -1.852093 -2.413193 1.381278 0
M  V30 9 C -0.532352 -2.041002 1.178242 0
M  V30 10 C 0.116809 -0.806632 0.738477 0
M  V30 11 C -0.491834 0.323809 0.414557 0
M  V30 12 C 0.262671 1.497341 -0.006025 0
M  V30 13 C -0.007463 2.266006 -1.114635 0
M  V30 14 C 0.777929 3.387919 -1.385526 0
M  V30 15 C 1.806601 3.690537 -0.523985 0
M  V30 16 C 2.082440 2.925634 0.588130 0
M  V30 17 N 1.289537 1.878705 0.770881 0
M  V30 18 H 2.607932 -2.939423 1.267164 0
M  V30 19 H 0.898019 -5.033836 2.049006 0
M  V30 20 H -1.509755 -5.631814 2.392616 0
M  V30 21 H -3.262557 -3.939595 1.960131 0
M  V30 22 H -2.598354 -1.661407 1.189686 0
M  V30 23 H -1.563741 0.362029 0.466657 0
M  V30 24 H -0.839758 1.940865 -1.730433 0
M  V30 25 H 0.541527 3.963768 -2.257716 0
M  V30 26 H 2.443453 4.571736 -0.708731 0
M  V30 27 H 2.878757 3.133948 1.279368 0
M  V30 END ATOM
M  V30 BEGIN BOND
M  V30 1 2 1 2
M  V30 2 1 2 3
M  V30 3 1 3 4
M  V30 4 2 4 5
M  V30 5 1 5 6
M  V30 6 2 6 7
M  V30 7 1 7 8
M  V30 8 2 8 9
M  V30 9 1 9 10
M  V30 10 2 10 11
M  V30 11 1 11 12
M  V30 12 2 12 13
M  V30 13 1 13 14
M  V30 14 2 14 15
M  V30 15 1 15 16
M  V30 16 2 16 17
M  V30 17 1 10 2
M  V30 18 1 17 12
M  V30 19 1 9 4
M  V30 20 1 3 18
M  V30 21 1 5 19
M  V30 22 1 6 20
M  V30 23 1 7 21
M  V30 24 1 8 22
M  V30 25 1 11 23
M  V30 26 1 13 24
M  V30 27 1 14 25
M  V30 28 1 15 26
M  V30 29 1 16 27
M  V30 END BOND
M  V30 END CTAB
M  END
>  <Dataset>  (121) 
ChEMBL_Kinases

>  <Ligand_Instance>  (121) 
nan

>  <PDB_ID>  (121) 
nan

>  <Standardized_SMILES>  (121) 
O=C1Nc2ccccc2/C1=C/c1ccccn1

>  <Name>  (121) 
nan

>  <Pocket>  (121) 
nan

>  <ATP_Site>  (121) 
nan

>  <Peripheral>  (121) 
nan

>  <Num_H_Atoms_ProtBoundConf>  (121) 
nan

>  <Num_Resolved_Atoms>  (121) 
nan

>  <Num_Not_Resolved_Atoms>  (121) 
nan

$$$$
CHEMBL2093991
     RDKit          3D

  0  0  0  0  0  0  0  0  0  0999 V3000
M  V30 BEGIN CTAB
M  V30 COUNTS 53 55 0 0 0
M  V30 BEGIN ATOM
M  V30 1 C 3.232860 -4.509308 -2.563845 0
M  V30 2 N 2.157654 -3.966677 -1.731634 0
M  V30 3 C 1.054355 -4.838841 -1.374237 0
M  V30 4 C 2.144281 -2.613279 -1.253844 0
M  V30 5 C 1.107224 -2.155665 -0.478197 0
M  V30 6 C 1.156734 -0.844300 -0.052649 0
M  V30 7 C 2.169689 0.043965 -0.347066 0
M  V30 8 C 2.175911 1.427025 0.123433 0
M  V30 9 O 3.119668 2.221673 -0.160776 0
M  V30 10 O 1.166990 1.938679 0.893306 0
M  V30 11 C 1.026375 3.217888 1.411501 0
M  V30 12 C -0.293901 3.233927 2.192112 0
M  V30 13 C -0.508545 4.599054 2.789876 0
M  V30 14 O -0.542187 5.595681 1.832199 0
M  V30 15 C -1.435014 2.801697 1.312377 0
M  V30 16 C -1.598466 1.348446 1.669525 0
M  V30 17 C -2.412701 0.482202 1.091683 0
M  V30 18 C -2.693040 -0.928733 1.308178 0
M  V30 19 C -2.867604 -1.529353 2.538990 0
M  V30 20 C -3.111225 -2.874671 2.708577 0
M  V30 21 C -3.176163 -3.621191 1.562376 0
M  V30 22 N -3.428501 -5.020567 1.728918 0 CHG=1 VAL=4
M  V30 23 O -3.509410 -5.813742 0.751914 0
M  V30 24 O -3.636760 -5.875156 2.775950 0 CHG=-1 VAL=1
M  V30 25 C -3.020773 -3.140726 0.290150 0
M  V30 26 C -2.781451 -1.787692 0.222742 0
M  V30 27 C -0.667288 1.051291 2.768058 0
M  V30 28 O -0.271647 -0.055192 3.211600 0
M  V30 29 O -0.279848 2.294623 3.255183 0
M  V30 30 C 3.189461 -0.454843 -1.126765 0
M  V30 31 C 3.175240 -1.750558 -1.567879 0
M  V30 32 H 3.239222 -5.627837 -2.422083 0
M  V30 33 H 4.190070 -4.078471 -2.208385 0
M  V30 34 H 3.024274 -4.231131 -3.615998 0
M  V30 35 H 0.056517 -4.350638 -1.503434 0
M  V30 36 H 1.073875 -5.748868 -1.997822 0
M  V30 37 H 1.152390 -5.198094 -0.307783 0
M  V30 38 H 0.273256 -2.795830 -0.203963 0
M  V30 39 H 0.322273 -0.521532 0.554422 0
M  V30 40 H 0.974621 4.032196 0.676730 0
M  V30 41 H 1.859309 3.458458 2.093771 0
M  V30 42 H -1.410828 4.552573 3.420228 0
M  V30 43 H 0.343912 4.744575 3.512459 0
M  V30 44 H 0.224567 6.229167 2.007413 0
M  V30 45 H -1.218235 2.919103 0.242208 0
M  V30 46 H -2.361311 3.381091 1.593343 0
M  V30 47 H -3.031193 0.868527 0.264915 0
M  V30 48 H -2.821094 -0.920523 3.417715 0
M  V30 49 H -3.242736 -3.313887 3.679481 0
M  V30 50 H -3.072877 -3.737506 -0.612556 0
M  V30 51 H -2.646410 -1.334157 -0.763741 0
M  V30 52 H 3.994394 0.231883 -1.367137 0
M  V30 53 H 4.020155 -2.048735 -2.173937 0
M  V30 END ATOM
M  V30 BEGIN BOND
M  V30 1 1 1 2
M  V30 2 1 2 3
M  V30 3 1 2 4
M  V30 4 2 4 5
M  V30 5 1 5 6
M  V30 6 2 6 7
M  V30 7 1 7 8
M  V30 8 2 8 9
M  V30 9 1 8 10
M  V30 10 1 10 11
M  V30 11 1 11 12
M  V30 12 1 12 13
M  V30 13 1 13 14
M  V30 14 1 12 15
M  V30 15 1 15 16
M  V30 16 2 16 17 CFG=2
M  V30 17 1 17 18
M  V30 18 2 18 19
M  V30 19 1 19 20
M  V30 20 2 20 21
M  V30 21 1 21 22
M  V30 22 2 22 23
M  V30 23 1 22 24
M  V30 24 1 21 25
M  V30 25 2 25 26
M  V30 26 1 16 27
M  V30 27 2 27 28
M  V30 28 1 27 29
M  V30 29 1 7 30
M  V30 30 2 30 31
M  V30 31 1 31 4
M  V30 32 1 29 12
M  V30 33 1 26 18
M  V30 34 1 1 32
M  V30 35 1 1 33
M  V30 36 1 1 34
M  V30 37 1 3 35
M  V30 38 1 3 36
M  V30 39 1 3 37
M  V30 40 1 5 38
M  V30 41 1 6 39
M  V30 42 1 11 40
M  V30 43 1 11 41
M  V30 44 1 13 42
M  V30 45 1 13 43
M  V30 46 1 14 44
M  V30 47 1 15 45
M  V30 48 1 15 46
M  V30 49 1 17 47
M  V30 50 1 19 48
M  V30 51 1 20 49
M  V30 52 1 25 50
M  V30 53 1 26 51
M  V30 54 1 30 52
M  V30 55 1 31 53
M  V30 END BOND
M  V30 END CTAB
M  END
>  <Dataset>  (122) 
ChEMBL_Kinases

>  <Ligand_Instance>  (122) 
nan

>  <PDB_ID>  (122) 
nan

>  <Standardized_SMILES>  (122) 
CN(C)c1ccc(C(=O)OCC2(CO)CC(=Cc3ccc([N+](=O)[O-])cc3)C(=O)O2)cc1

>  <Name>  (122) 
nan

>  <Pocket>  (122) 
nan

>  <ATP_Site>  (122) 
nan

>  <Peripheral>  (122) 
nan

>  <Num_H_Atoms_ProtBoundConf>  (122) 
nan

>  <Num_Resolved_Atoms>  (122) 
nan

>  <Num_Not_Resolved_Atoms>  (122) 
nan

$$$$
CHEMBL2089064
     RDKit          3D

  0  0  0  0  0  0  0  0  0  0999 V3000
M  V30 BEGIN CTAB
M  V30 COUNTS 63 68 0 0 0
M  V30 BEGIN ATOM
M  V30 1 C 2.863007 0.246018 5.881089 0
M  V30 2 N 3.502054 1.151465 4.974359 0
M  V30 3 C 3.778188 0.595726 3.685267 0
M  V30 4 C 2.907568 2.471721 4.965790 0
M  V30 5 C 1.493887 2.297246 4.546155 0
M  V30 6 C 0.937087 3.381052 3.658702 0
M  V30 7 N 1.920943 3.541365 2.597647 0
M  V30 8 C 1.788038 3.062550 1.268361 0
M  V30 9 C 2.566599 3.372197 0.150544 0
M  V30 10 C 2.262549 2.760655 -1.048409 0
M  V30 11 C 1.226585 1.866021 -1.172128 0
M  V30 12 N 0.684107 1.116731 -2.141061 0
M  V30 13 C -0.353087 0.379575 -1.710616 0
M  V30 14 C -1.160732 -0.553783 -2.482671 0
M  V30 15 O -0.812040 -0.637057 -3.675995 0
M  V30 16 C -2.256475 -1.301926 -1.886917 0
M  V30 17 C -2.871348 -0.841663 -0.748784 0
M  V30 18 C -3.872081 -1.637673 -0.248883 0
M  V30 19 N -4.232144 -2.790320 -0.824343 0
M  V30 20 C -3.658998 -3.291628 -1.945594 0
M  V30 21 C -4.249765 -4.520202 -2.401888 0
M  V30 22 C -5.611783 -4.706921 -2.122176 0
M  V30 23 N -6.306455 -5.804348 -2.463849 0
M  V30 24 C -5.726988 -6.817613 -3.109547 0
M  V30 25 C -4.410173 -6.718058 -3.415855 0
M  V30 26 C -3.798701 -7.777476 -4.057987 0
M  V30 27 C -2.445143 -7.704422 -4.349874 0
M  V30 28 C -1.730109 -6.573120 -3.992105 0
M  V30 29 C -2.391476 -5.555784 -3.358039 0
M  V30 30 C -3.722107 -5.587994 -3.056702 0
M  V30 31 C -2.670762 -2.489359 -2.430808 0
M  V30 32 N -0.443352 0.702502 -0.409623 0
M  V30 33 C 0.487437 1.592847 -0.041929 0
M  V30 34 N 0.783006 2.187209 1.123337 0
M  V30 35 C 3.049154 4.247934 3.149244 0
M  V30 36 C 3.724989 3.481422 4.257909 0
M  V30 37 H 2.303920 -0.504339 5.283451 0
M  V30 38 H 2.108315 0.813569 6.464320 0
M  V30 39 H 3.579543 -0.238183 6.573705 0
M  V30 40 H 4.710908 0.009360 3.620913 0
M  V30 41 H 2.942467 -0.126007 3.462198 0
M  V30 42 H 3.662790 1.381386 2.917334 0
M  V30 43 H 2.893143 2.766405 6.062001 0
M  V30 44 H 1.354661 1.313787 4.043298 0
M  V30 45 H 0.830602 2.253170 5.436851 0
M  V30 46 H 0.741427 4.298874 4.209449 0
M  V30 47 H -0.019397 2.955367 3.251520 0
M  V30 48 H 3.355345 4.082670 0.338071 0
M  V30 49 H 2.863567 3.001623 -1.911185 0
M  V30 50 H 1.091286 1.167900 -3.092427 0
M  V30 51 H -2.662829 0.052078 -0.226365 0
M  V30 52 H -4.405714 -1.322974 0.660042 0
M  V30 53 H -6.182168 -3.947827 -1.599330 0
M  V30 54 H -6.279810 -7.702347 -3.386830 0
M  V30 55 H -4.381614 -8.646759 -4.323816 0
M  V30 56 H -1.989309 -8.562626 -4.861588 0
M  V30 57 H -0.698132 -6.620724 -4.262148 0
M  V30 58 H -1.765571 -4.756524 -3.089623 0
M  V30 59 H -2.185798 -2.752844 -3.338430 0
M  V30 60 H 2.680441 5.224215 3.526910 0
M  V30 61 H 3.752512 4.495217 2.337218 0
M  V30 62 H 4.663575 3.045922 3.802273 0
M  V30 63 H 4.128895 4.242153 4.959860 0
M  V30 END ATOM
M  V30 BEGIN BOND
M  V30 1 1 1 2
M  V30 2 1 2 3
M  V30 3 1 2 4
M  V30 4 1 4 5
M  V30 5 1 5 6
M  V30 6 1 6 7
M  V30 7 1 7 8
M  V30 8 2 8 9
M  V30 9 1 9 10
M  V30 10 2 10 11
M  V30 11 1 11 12
M  V30 12 1 12 13
M  V30 13 1 13 14
M  V30 14 2 14 15
M  V30 15 1 14 16
M  V30 16 2 16 17
M  V30 17 1 17 18
M  V30 18 2 18 19
M  V30 19 1 19 20
M  V30 20 1 20 21
M  V30 21 2 21 22
M  V30 22 1 22 23
M  V30 23 2 23 24
M  V30 24 1 24 25
M  V30 25 2 25 26
M  V30 26 1 26 27
M  V30 27 2 27 28
M  V30 28 1 28 29
M  V30 29 2 29 30
M  V30 30 2 20 31
M  V30 31 2 13 32
M  V30 32 1 32 33
M  V30 33 2 33 34
M  V30 34 1 7 35
M  V30 35 1 35 36
M  V30 36 1 36 4
M  V30 37 1 34 8
M  V30 38 1 33 11
M  V30 39 1 31 16
M  V30 40 1 30 21
M  V30 41 1 30 25
M  V30 42 1 1 37
M  V30 43 1 1 38
M  V30 44 1 1 39
M  V30 45 1 3 40
M  V30 46 1 3 41
M  V30 47 1 3 42
M  V30 48 1 4 43
M  V30 49 1 5 44
M  V30 50 1 5 45
M  V30 51 1 6 46
M  V30 52 1 6 47
M  V30 53 1 9 48
M  V30 54 1 10 49
M  V30 55 1 12 50
M  V30 56 1 17 51
M  V30 57 1 18 52
M  V30 58 1 22 53
M  V30 59 1 24 54
M  V30 60 1 26 55
M  V30 61 1 27 56
M  V30 62 1 28 57
M  V30 63 1 29 58
M  V30 64 1 31 59
M  V30 65 1 35 60
M  V30 66 1 35 61
M  V30 67 1 36 62
M  V30 68 1 36 63
M  V30 END BOND
M  V30 END CTAB
M  END
>  <Dataset>  (123) 
ChEMBL_Kinases

>  <Ligand_Instance>  (123) 
nan

>  <PDB_ID>  (123) 
nan

>  <Standardized_SMILES>  (123) 
CN(C)C1CCN(c2ccc3[nH]c(C(=O)c4ccnc(-c5cncc6ccccc56)c4)nc3n2)CC1

>  <Name>  (123) 
nan

>  <Pocket>  (123) 
nan

>  <ATP_Site>  (123) 
nan

>  <Peripheral>  (123) 
nan

>  <Num_H_Atoms_ProtBoundConf>  (123) 
nan

>  <Num_Resolved_Atoms>  (123) 
nan

>  <Num_Not_Resolved_Atoms>  (123) 
nan

$$$$
CHEMBL2089065
     RDKit          3D

  0  0  0  0  0  0  0  0  0  0999 V3000
M  V30 BEGIN CTAB
M  V30 COUNTS 65 70 0 0 0
M  V30 BEGIN ATOM
M  V30 1 C 5.130712 -0.610297 5.388244 0
M  V30 2 N 3.940265 -0.887790 4.607890 0
M  V30 3 C 3.255722 -2.060415 5.122299 0
M  V30 4 C 3.006297 0.229823 4.664147 0
M  V30 5 C 1.808612 -0.152256 3.828375 0
M  V30 6 C 2.264326 -0.160971 2.405899 0
M  V30 7 N 2.617891 1.175234 1.932084 0
M  V30 8 C 1.947540 1.874269 0.885941 0
M  V30 9 C 2.213950 3.140801 0.405338 0
M  V30 10 C 1.455614 3.663895 -0.624249 0
M  V30 11 C 0.413440 2.957753 -1.211645 0
M  V30 12 N -0.472447 3.216292 -2.209919 0
M  V30 13 C -1.242120 2.116697 -2.308307 0
M  V30 14 C -2.326109 2.007472 -3.280684 0
M  V30 15 O -2.549892 2.975309 -4.043143 0
M  V30 16 C -3.166113 0.821709 -3.409699 0
M  V30 17 C -4.440543 0.894895 -3.917996 0
M  V30 18 C -5.260441 -0.222461 -4.051899 0
M  V30 19 C -4.794183 -1.462504 -3.664782 0
M  V30 20 C -5.615621 -2.636457 -3.789857 0
M  V30 21 N -6.277622 -3.583519 -3.880413 0
M  V30 22 C -3.514982 -1.586522 -3.146252 0
M  V30 23 C -2.976566 -2.895574 -2.719656 0
M  V30 24 C -2.304936 -3.632139 -3.698349 0
M  V30 25 N -1.782316 -4.844758 -3.382061 0
M  V30 26 C -1.896431 -5.358107 -2.139484 0
M  V30 27 C -2.558886 -4.632600 -1.172514 0
M  V30 28 C -2.705039 -5.108307 0.113135 0
M  V30 29 C -3.361824 -4.404582 1.098539 0
M  V30 30 C -3.890999 -3.171423 0.769089 0
M  V30 31 C -3.786526 -2.622529 -0.501977 0
M  V30 32 C -3.110518 -3.394476 -1.435944 0
M  V30 33 C -2.745854 -0.440691 -3.036803 0
M  V30 34 N -0.836808 1.213930 -1.395993 0
M  V30 35 C 0.198582 1.699636 -0.686678 0
M  V30 36 N 0.934808 1.185333 0.316688 0
M  V30 37 C 3.732449 1.638022 2.691997 0
M  V30 38 C 3.570729 1.513566 4.174250 0
M  V30 39 H 5.422924 -1.568223 5.861920 0
M  V30 40 H 5.950623 -0.307035 4.725427 0
M  V30 41 H 4.894927 0.112526 6.192185 0
M  V30 42 H 2.380970 -1.794967 5.759764 0
M  V30 43 H 3.942347 -2.651773 5.788309 0
M  V30 44 H 2.908799 -2.747587 4.345564 0
M  V30 45 H 2.668525 0.403503 5.717755 0
M  V30 46 H 0.955763 0.535711 3.956050 0
M  V30 47 H 1.444223 -1.184752 4.050226 0
M  V30 48 H 3.114933 -0.819126 2.232635 0
M  V30 49 H 1.411086 -0.577948 1.806482 0
M  V30 50 H 3.021994 3.645299 0.885919 0
M  V30 51 H 1.687064 4.660970 -0.981857 0
M  V30 52 H -0.509193 4.105532 -2.761452 0
M  V30 53 H -4.865300 1.836771 -4.239449 0
M  V30 54 H -6.269829 -0.123750 -4.461083 0
M  V30 55 H -2.183862 -3.258969 -4.727704 0
M  V30 56 H -1.472241 -6.336114 -1.893193 0
M  V30 57 H -2.295209 -6.084895 0.404710 0
M  V30 58 H -3.463989 -4.801235 2.104720 0
M  V30 59 H -4.408313 -2.611769 1.535929 0
M  V30 60 H -4.183827 -1.671908 -0.791110 0
M  V30 61 H -1.772564 -0.585617 -2.634226 0
M  V30 62 H 3.953939 2.690268 2.423007 0
M  V30 63 H 4.626396 1.061727 2.350758 0
M  V30 64 H 4.549598 1.667771 4.707961 0
M  V30 65 H 2.934989 2.341529 4.549935 0
M  V30 END ATOM
M  V30 BEGIN BOND
M  V30 1 1 1 2
M  V30 2 1 2 3
M  V30 3 1 2 4
M  V30 4 1 4 5
M  V30 5 1 5 6
M  V30 6 1 6 7
M  V30 7 1 7 8
M  V30 8 2 8 9
M  V30 9 1 9 10
M  V30 10 2 10 11
M  V30 11 1 11 12
M  V30 12 1 12 13
M  V30 13 1 13 14
M  V30 14 2 14 15
M  V30 15 1 14 16
M  V30 16 2 16 17
M  V30 17 1 17 18
M  V30 18 2 18 19
M  V30 19 1 19 20
M  V30 20 3 20 21
M  V30 21 1 19 22
M  V30 22 1 22 23
M  V30 23 2 23 24
M  V30 24 1 24 25
M  V30 25 2 25 26
M  V30 26 1 26 27
M  V30 27 2 27 28
M  V30 28 1 28 29
M  V30 29 2 29 30
M  V30 30 1 30 31
M  V30 31 2 31 32
M  V30 32 2 22 33
M  V30 33 2 13 34
M  V30 34 1 34 35
M  V30 35 2 35 36
M  V30 36 1 7 37
M  V30 37 1 37 38
M  V30 38 1 38 4
M  V30 39 1 36 8
M  V30 40 1 35 11
M  V30 41 1 33 16
M  V30 42 1 32 23
M  V30 43 1 32 27
M  V30 44 1 1 39
M  V30 45 1 1 40
M  V30 46 1 1 41
M  V30 47 1 3 42
M  V30 48 1 3 43
M  V30 49 1 3 44
M  V30 50 1 4 45
M  V30 51 1 5 46
M  V30 52 1 5 47
M  V30 53 1 6 48
M  V30 54 1 6 49
M  V30 55 1 9 50
M  V30 56 1 10 51
M  V30 57 1 12 52
M  V30 58 1 17 53
M  V30 59 1 18 54
M  V30 60 1 24 55
M  V30 61 1 26 56
M  V30 62 1 28 57
M  V30 63 1 29 58
M  V30 64 1 30 59
M  V30 65 1 31 60
M  V30 66 1 33 61
M  V30 67 1 37 62
M  V30 68 1 37 63
M  V30 69 1 38 64
M  V30 70 1 38 65
M  V30 END BOND
M  V30 END CTAB
M  END
>  <Dataset>  (124) 
ChEMBL_Kinases

>  <Ligand_Instance>  (124) 
nan

>  <PDB_ID>  (124) 
nan

>  <Standardized_SMILES>  (124) 
CN(C)C1CCN(c2ccc3[nH]c(C(=O)c4ccc(C#N)c(-c5cncc6ccccc56)c4)nc3n2)CC1

>  <Name>  (124) 
nan

>  <Pocket>  (124) 
nan

>  <ATP_Site>  (124) 
nan

>  <Peripheral>  (124) 
nan

>  <Num_H_Atoms_ProtBoundConf>  (124) 
nan

>  <Num_Resolved_Atoms>  (124) 
nan

>  <Num_Not_Resolved_Atoms>  (124) 
nan

$$$$
CHEMBL2089255
     RDKit          3D

  0  0  0  0  0  0  0  0  0  0999 V3000
M  V30 BEGIN CTAB
M  V30 COUNTS 44 45 0 0 0
M  V30 BEGIN ATOM
M  V30 1 C -0.108720 -3.377914 1.141221 0
M  V30 2 C -0.904474 -3.645558 -0.117630 0
M  V30 3 C 0.056089 -3.673268 -1.289260 0
M  V30 4 C -1.617108 -4.964949 0.053439 0
M  V30 5 N -1.867464 -2.572032 -0.261422 0
M  V30 6 C -1.518115 -1.214213 -0.393912 0
M  V30 7 N -0.226749 -0.805531 -0.376238 0
M  V30 8 C 0.054541 0.527117 -0.498776 0
M  V30 9 N 1.424401 0.975268 -0.479399 0
M  V30 10 C 2.240739 1.346990 0.620924 0
M  V30 11 C 3.552616 1.764594 0.372915 0
M  V30 12 C 4.245195 2.094197 1.512458 0
M  V30 13 C 3.783473 2.051252 2.804785 0
M  V30 14 C 4.596310 2.421633 3.955375 0
M  V30 15 N 3.987843 2.342356 5.248549 0
M  V30 16 O 5.786990 2.788027 3.721179 0
M  V30 17 C 2.482490 1.627158 2.933753 0
M  V30 18 C 1.639559 1.254474 1.881421 0
M  V30 19 C -0.928921 1.483454 -0.641378 0
M  V30 20 C -2.253586 1.097053 -0.663102 0
M  V30 21 N -3.307035 2.043041 -0.808547 0
M  V30 22 C -2.505164 -0.249127 -0.537444 0
M  V30 23 C -3.853032 -0.677649 -0.558502 0
M  V30 24 N -4.971623 -1.011470 -0.573860 0
M  V30 25 H 0.862423 -2.871437 0.927434 0
M  V30 26 H -0.750814 -2.775834 1.820304 0
M  V30 27 H 0.069551 -4.352410 1.668361 0
M  V30 28 H -0.491041 -3.431203 -2.222210 0
M  V30 29 H 0.885714 -2.953196 -1.141760 0
M  V30 30 H 0.436905 -4.707456 -1.395622 0
M  V30 31 H -2.730989 -4.865668 0.070140 0
M  V30 32 H -1.416231 -5.676662 -0.795380 0
M  V30 33 H -1.322583 -5.460727 1.018671 0
M  V30 34 H -2.882506 -2.831076 -0.265349 0
M  V30 35 H 1.676993 0.961171 -1.481529 0
M  V30 36 H 3.920339 1.801967 -0.631115 0
M  V30 37 H 5.275084 2.423232 1.355306 0
M  V30 38 H 3.233132 3.034277 5.409896 0
M  V30 39 H 4.197515 1.697909 6.029921 0
M  V30 40 H 2.008164 1.553676 3.923735 0
M  V30 41 H 0.623534 0.924352 1.996797 0
M  V30 42 H -0.639352 2.521346 -0.734243 0
M  V30 43 H -4.261372 1.657573 -1.055938 0
M  V30 44 H -3.084836 3.054444 -0.666379 0
M  V30 END ATOM
M  V30 BEGIN BOND
M  V30 1 1 1 2
M  V30 2 1 2 3
M  V30 3 1 2 4
M  V30 4 1 2 5
M  V30 5 1 5 6
M  V30 6 2 6 7
M  V30 7 1 7 8
M  V30 8 1 8 9
M  V30 9 1 9 10
M  V30 10 2 10 11
M  V30 11 1 11 12
M  V30 12 2 12 13
M  V30 13 1 13 14
M  V30 14 1 14 15
M  V30 15 2 14 16
M  V30 16 1 13 17
M  V30 17 2 17 18
M  V30 18 2 8 19
M  V30 19 1 19 20
M  V30 20 1 20 21
M  V30 21 2 20 22
M  V30 22 1 22 23
M  V30 23 3 23 24
M  V30 24 1 22 6
M  V30 25 1 18 10
M  V30 26 1 1 25
M  V30 27 1 1 26
M  V30 28 1 1 27
M  V30 29 1 3 28
M  V30 30 1 3 29
M  V30 31 1 3 30
M  V30 32 1 4 31
M  V30 33 1 4 32
M  V30 34 1 4 33
M  V30 35 1 5 34
M  V30 36 1 9 35
M  V30 37 1 11 36
M  V30 38 1 12 37
M  V30 39 1 15 38
M  V30 40 1 15 39
M  V30 41 1 17 40
M  V30 42 1 18 41
M  V30 43 1 19 42
M  V30 44 1 21 43
M  V30 45 1 21 44
M  V30 END BOND
M  V30 END CTAB
M  END
>  <Dataset>  (125) 
ChEMBL_Kinases

>  <Ligand_Instance>  (125) 
nan

>  <PDB_ID>  (125) 
nan

>  <Standardized_SMILES>  (125) 
CC(C)(C)Nc1nc(Nc2ccc(C(N)=O)cc2)cc(N)c1C#N

>  <Name>  (125) 
nan

>  <Pocket>  (125) 
nan

>  <ATP_Site>  (125) 
nan

>  <Peripheral>  (125) 
nan

>  <Num_H_Atoms_ProtBoundConf>  (125) 
nan

>  <Num_Resolved_Atoms>  (125) 
nan

>  <Num_Not_Resolved_Atoms>  (125) 
nan

$$$$
CHEMBL208932
     RDKit          3D

  0  0  0  0  0  0  0  0  0  0999 V3000
M  V30 BEGIN CTAB
M  V30 COUNTS 54 57 0 0 0
M  V30 BEGIN ATOM
M  V30 1 C -0.687154 -2.416958 5.374086 0
M  V30 2 C -0.384591 -2.253490 3.884285 0 CFG=2
M  V30 3 N 1.035921 -2.051460 3.747905 0
M  V30 4 C 1.684912 -1.859174 2.474061 0
M  V30 5 N 3.031063 -1.668645 2.356711 0
M  V30 6 C 3.604879 -1.492462 1.155727 0
M  V30 7 C 2.854701 -1.498145 0.003164 0
M  V30 8 C 1.518654 -1.686852 0.114881 0
M  V30 9 N 0.742911 -1.691560 -1.091351 0
M  V30 10 C 0.138021 -0.527225 -1.691930 0
M  V30 11 O -0.570946 -0.296762 -2.725955 0
M  V30 12 N 0.364862 0.682520 -0.987552 0
M  V30 13 C 0.039255 2.064705 -1.091013 0
M  V30 14 C -1.056371 2.726080 -0.573690 0
M  V30 15 C -1.199091 4.083447 -0.782038 0
M  V30 16 C -0.249229 4.776983 -1.505338 0
M  V30 17 C 0.865540 4.147284 -2.041075 0
M  V30 18 C 0.989137 2.772209 -1.817356 0
M  V30 19 Cl 2.436410 2.046391 -2.532765 0
M  V30 20 C 0.420780 -2.827615 -1.922342 0
M  V30 21 C -0.771051 -3.434555 -1.525124 0
M  V30 22 C -1.265896 -4.547133 -2.191003 0
M  V30 23 C -0.546576 -5.030579 -3.251097 0
M  V30 24 C 0.632066 -4.425350 -3.639087 0
M  V30 25 F 1.369958 -4.878568 -4.685321 0
M  V30 26 C 1.126595 -3.320676 -2.980578 0
M  V30 27 N 0.959348 -1.862856 1.337356 0
M  V30 28 C -1.202487 -1.128819 3.394195 0
M  V30 29 C -2.316989 -1.322443 2.610040 0
M  V30 30 C -3.135904 -0.333703 2.110071 0
M  V30 31 C -2.805281 0.968355 2.426567 0
M  V30 32 C -1.693353 1.228447 3.213420 0
M  V30 33 C -0.923762 0.192199 3.676060 0
M  V30 34 H -0.992443 -1.430994 5.773981 0
M  V30 35 H -1.510412 -3.158170 5.509132 0
M  V30 36 H 0.229320 -2.806012 5.882754 0
M  V30 37 H -0.735256 -3.173914 3.371143 0
M  V30 38 H 1.688240 -2.033150 4.587416 0
M  V30 39 H 4.683500 -1.346001 1.136963 0
M  V30 40 H 3.326749 -1.357028 -0.938611 0
M  V30 41 H 0.933877 0.718217 -0.093410 0
M  V30 42 H -1.731524 2.081442 -0.026680 0
M  V30 43 H -2.081216 4.555609 -0.352452 0
M  V30 44 H -0.364028 5.847853 -1.668390 0
M  V30 45 H 1.586075 4.722501 -2.600399 0
M  V30 46 H -1.396712 -3.100732 -0.686753 0
M  V30 47 H -2.207249 -5.024563 -1.875389 0
M  V30 48 H -0.913149 -5.904616 -3.792515 0
M  V30 49 H 2.034377 -2.777607 -3.205138 0
M  V30 50 H -2.592164 -2.340815 2.351034 0
M  V30 51 H -4.001005 -0.569480 1.495631 0
M  V30 52 H -3.476213 1.734135 2.013964 0
M  V30 53 H -1.530314 2.272254 3.396555 0
M  V30 54 H -0.065828 0.434026 4.285946 0
M  V30 END ATOM
M  V30 BEGIN BOND
M  V30 1 1 1 2
M  V30 2 1 2 3
M  V30 3 1 3 4
M  V30 4 2 4 5
M  V30 5 1 5 6
M  V30 6 2 6 7
M  V30 7 1 7 8
M  V30 8 1 8 9
M  V30 9 1 9 10
M  V30 10 2 10 11
M  V30 11 1 10 12
M  V30 12 1 12 13
M  V30 13 2 13 14
M  V30 14 1 14 15
M  V30 15 2 15 16
M  V30 16 1 16 17
M  V30 17 2 17 18
M  V30 18 1 18 19
M  V30 19 1 9 20
M  V30 20 2 20 21
M  V30 21 1 21 22
M  V30 22 2 22 23
M  V30 23 1 23 24
M  V30 24 1 24 25
M  V30 25 2 24 26
M  V30 26 2 8 27
M  V30 27 1 2 28
M  V30 28 2 28 29
M  V30 29 1 29 30
M  V30 30 2 30 31
M  V30 31 1 31 32
M  V30 32 2 32 33
M  V30 33 1 27 4
M  V30 34 1 33 28
M  V30 35 1 18 13
M  V30 36 1 26 20
M  V30 37 1 1 34
M  V30 38 1 1 35
M  V30 39 1 1 36
M  V30 40 1 2 37 CFG=3
M  V30 41 1 3 38
M  V30 42 1 6 39
M  V30 43 1 7 40
M  V30 44 1 12 41
M  V30 45 1 14 42
M  V30 46 1 15 43
M  V30 47 1 16 44
M  V30 48 1 17 45
M  V30 49 1 21 46
M  V30 50 1 22 47
M  V30 51 1 23 48
M  V30 52 1 26 49
M  V30 53 1 29 50
M  V30 54 1 30 51
M  V30 55 1 31 52
M  V30 56 1 32 53
M  V30 57 1 33 54
M  V30 END BOND
M  V30 END CTAB
M  END
>  <Dataset>  (126) 
ChEMBL_Kinases

>  <Ligand_Instance>  (126) 
nan

>  <PDB_ID>  (126) 
nan

>  <Standardized_SMILES>  (126) 
C[C@H](Nc1nccc(N(C(=O)Nc2ccccc2Cl)c2cccc(F)c2)n1)c1ccccc1

>  <Name>  (126) 
nan

>  <Pocket>  (126) 
nan

>  <ATP_Site>  (126) 
nan

>  <Peripheral>  (126) 
nan

>  <Num_H_Atoms_ProtBoundConf>  (126) 
nan

>  <Num_Resolved_Atoms>  (126) 
nan

>  <Num_Not_Resolved_Atoms>  (126) 
nan

$$$$
CHEMBL208937
     RDKit          3D

  0  0  0  0  0  0  0  0  0  0999 V3000
M  V30 BEGIN CTAB
M  V30 COUNTS 52 57 0 0 0
M  V30 BEGIN ATOM
M  V30 1 O 1.704441 -4.151972 -1.513357 0
M  V30 2 C 1.759925 -2.767652 -1.375603 0
M  V30 3 N 2.593018 -2.204841 -2.246269 0
M  V30 4 C 2.800994 -0.886233 -2.291959 0
M  V30 5 C 3.681662 -0.365400 -3.202952 0
M  V30 6 C 3.900776 0.985680 -3.236219 0
M  V30 7 C 3.208942 1.760590 -2.332522 0
M  V30 8 C 2.351677 1.175436 -1.458479 0
M  V30 9 C 2.079898 -0.168638 -1.366472 0
M  V30 10 C 1.212503 -0.733504 -0.460945 0
M  V30 11 N 0.495597 0.128675 0.369465 0
M  V30 12 C 0.053261 1.355073 0.946111 0 CFG=1
M  V30 13 C -0.790510 2.109562 -0.068908 0
M  V30 14 N -1.941607 2.767302 0.564904 0
M  V30 15 C -2.890846 1.791544 1.025807 0
M  V30 16 C -2.204597 0.773734 1.912382 0
M  V30 17 C -0.812013 1.247692 2.187952 0
M  V30 18 C -0.901653 2.658856 2.729731 0
M  V30 19 C -1.536150 3.550505 1.704006 0
M  V30 20 C 1.020690 -2.088126 -0.431780 0
M  V30 21 C 0.256709 -2.879001 0.492156 0
M  V30 22 N 0.137487 -4.208867 0.372734 0
M  V30 23 C -0.553871 -4.788914 1.322949 0
M  V30 24 C -0.842173 -6.134891 1.463975 0
M  V30 25 C -1.607724 -6.478545 2.585108 0
M  V30 26 C -2.028787 -5.499982 3.471555 0
M  V30 27 C -1.693983 -4.156915 3.256982 0
M  V30 28 C -0.942538 -3.800783 2.160805 0
M  V30 29 N -0.431967 -2.701044 1.614856 0
M  V30 30 H 2.354596 -4.671206 -0.933540 0
M  V30 31 H 4.181479 -1.066911 -3.878092 0
M  V30 32 H 4.603889 1.318236 -3.977300 0
M  V30 33 H 3.389626 2.821357 -2.367277 0
M  V30 34 H 1.880699 1.873758 -0.795390 0
M  V30 35 H -0.197368 -0.367357 0.910915 0
M  V30 36 H 0.907346 1.996725 1.298616 0
M  V30 37 H -1.214698 1.449309 -0.853281 0
M  V30 38 H -0.238571 2.925145 -0.576664 0
M  V30 39 H -3.413027 1.273864 0.185793 0
M  V30 40 H -3.675965 2.322075 1.596629 0
M  V30 41 H -2.280655 -0.246949 1.511277 0
M  V30 42 H -2.725085 0.749173 2.898149 0
M  V30 43 H -0.305469 0.659570 2.988833 0
M  V30 44 H -1.341106 2.694210 3.727194 0
M  V30 45 H 0.174230 2.995781 2.808808 0
M  V30 46 H -2.403675 4.102526 2.078439 0
M  V30 47 H -0.836608 4.332897 1.295609 0
M  V30 48 H -0.484743 -6.857136 0.736266 0
M  V30 49 H -1.854906 -7.520901 2.731942 0
M  V30 50 H -2.616195 -5.769677 4.330377 0
M  V30 51 H -2.003298 -3.361553 3.925927 0
M  V30 52 H -0.615315 -1.838815 2.144447 0
M  V30 END ATOM
M  V30 BEGIN BOND
M  V30 1 1 1 2
M  V30 2 2 2 3
M  V30 3 1 3 4
M  V30 4 2 4 5
M  V30 5 1 5 6
M  V30 6 2 6 7
M  V30 7 1 7 8
M  V30 8 2 8 9
M  V30 9 1 9 10
M  V30 10 1 10 11
M  V30 11 1 11 12
M  V30 12 1 12 13
M  V30 13 1 13 14
M  V30 14 1 14 15
M  V30 15 1 15 16
M  V30 16 1 16 17
M  V30 17 1 17 18
M  V30 18 1 18 19
M  V30 19 2 10 20
M  V30 20 1 20 21
M  V30 21 2 21 22
M  V30 22 1 22 23
M  V30 23 2 23 24
M  V30 24 1 24 25
M  V30 25 2 25 26
M  V30 26 1 26 27
M  V30 27 2 27 28
M  V30 28 1 28 29
M  V30 29 1 20 2
M  V30 30 1 29 21
M  V30 31 1 9 4
M  V30 32 1 17 12
M  V30 33 1 28 23
M  V30 34 1 19 14
M  V30 35 1 1 30
M  V30 36 1 5 31
M  V30 37 1 6 32
M  V30 38 1 7 33
M  V30 39 1 8 34
M  V30 40 1 11 35
M  V30 41 1 12 36 CFG=1
M  V30 42 1 13 37
M  V30 43 1 13 38
M  V30 44 1 15 39
M  V30 45 1 15 40
M  V30 46 1 16 41
M  V30 47 1 16 42
M  V30 48 1 17 43
M  V30 49 1 18 44
M  V30 50 1 18 45
M  V30 51 1 19 46
M  V30 52 1 19 47
M  V30 53 1 24 48
M  V30 54 1 25 49
M  V30 55 1 26 50
M  V30 56 1 27 51
M  V30 57 1 29 52
M  V30 END BOND
M  V30 END CTAB
M  END
>  <Dataset>  (127) 
ChEMBL_Kinases

>  <Ligand_Instance>  (127) 
nan

>  <PDB_ID>  (127) 
nan

>  <Standardized_SMILES>  (127) 
Oc1nc2ccccc2c(N[C@H]2CN3CCC2CC3)c1-c1nc2ccccc2[nH]1

>  <Name>  (127) 
nan

>  <Pocket>  (127) 
nan

>  <ATP_Site>  (127) 
nan

>  <Peripheral>  (127) 
nan

>  <Num_H_Atoms_ProtBoundConf>  (127) 
nan

>  <Num_Resolved_Atoms>  (127) 
nan

>  <Num_Not_Resolved_Atoms>  (127) 
nan

$$$$
CHEMBL208961
     RDKit          3D

  0  0  0  0  0  0  0  0  0  0999 V3000
M  V30 BEGIN CTAB
M  V30 COUNTS 55 59 0 0 0
M  V30 BEGIN ATOM
M  V30 1 C -2.875614 -3.601867 -0.249581 0
M  V30 2 C -1.471972 -4.066912 -0.063221 0
M  V30 3 C -0.535655 -3.356229 0.659357 0
M  V30 4 C 0.767214 -3.792033 0.830695 0
M  V30 5 C 1.732635 -3.017619 1.601847 0
M  V30 6 C 2.787842 -3.477593 2.348487 0
M  V30 7 N 3.605161 -2.614710 3.018651 0
M  V30 8 C 3.365866 -1.263950 2.942884 0
M  V30 9 C 2.298642 -0.713558 2.193777 0
M  V30 10 O 2.434510 0.599640 2.395635 0
M  V30 11 C 1.815257 1.753886 2.003957 0
M  V30 12 C 1.875612 2.069347 0.558183 0 CFG=1
M  V30 13 N 1.294047 1.109974 -0.330253 0
M  V30 14 C 1.450237 3.500325 0.260853 0
M  V30 15 C 0.096294 3.836705 0.684101 0
M  V30 16 C -0.080005 4.545752 1.883223 0
M  V30 17 N -1.384630 4.753209 2.125112 0
M  V30 18 C -2.118216 4.214462 1.138167 0
M  V30 19 C -3.465177 4.105321 0.826724 0
M  V30 20 C -3.882246 3.452257 -0.336687 0
M  V30 21 C -2.916544 2.906198 -1.189441 0
M  V30 22 C -1.588170 3.014499 -0.881035 0
M  V30 23 C -1.200577 3.661919 0.271095 0
M  V30 24 C 1.538037 -1.660099 1.560092 0
M  V30 25 C 1.130182 -5.001797 0.241171 0
M  V30 26 C 0.178787 -5.695904 -0.476612 0
M  V30 27 C 0.498748 -6.911457 -1.083198 0
M  V30 28 C -0.418999 -7.654764 -1.818440 0
M  V30 29 N -1.684103 -7.177082 -1.952835 0
M  V30 30 C -2.052910 -5.999687 -1.384538 0
M  V30 31 C -1.132054 -5.273247 -0.658201 0
M  V30 32 H -3.142112 -3.476657 -1.317865 0
M  V30 33 H -3.552879 -4.420268 0.132927 0
M  V30 34 H -3.079656 -2.700841 0.373716 0
M  V30 35 H -0.863797 -2.419729 1.100281 0
M  V30 36 H 2.893967 -4.551524 2.346419 0
M  V30 37 H 4.158933 -0.837951 3.562495 0
M  V30 38 H 0.721271 1.774856 2.334722 0
M  V30 39 H 2.214062 2.662771 2.552265 0
M  V30 40 H 2.982406 2.069148 0.289900 0
M  V30 41 H 1.930246 0.277870 -0.469793 0
M  V30 42 H 1.200233 1.620084 -1.265624 0
M  V30 43 H 2.228641 4.158631 0.672148 0
M  V30 44 H 1.561305 3.583139 -0.862726 0
M  V30 45 H 0.647005 4.931474 2.607051 0
M  V30 46 H -1.848846 5.240814 2.920828 0
M  V30 47 H -4.157233 4.550763 1.530623 0
M  V30 48 H -4.966837 3.404721 -0.517614 0
M  V30 49 H -3.327060 2.425083 -2.056594 0
M  V30 50 H -0.894356 2.584630 -1.569775 0
M  V30 51 H 0.753445 -1.165130 1.032633 0
M  V30 52 H 2.139735 -5.399197 0.338984 0
M  V30 53 H 1.493661 -7.289480 -0.978901 0
M  V30 54 H -0.138763 -8.590866 -2.274237 0
M  V30 55 H -3.070489 -5.618261 -1.494587 0
M  V30 END ATOM
M  V30 BEGIN BOND
M  V30 1 1 1 2
M  V30 2 2 2 3
M  V30 3 1 3 4
M  V30 4 1 4 5
M  V30 5 2 5 6
M  V30 6 1 6 7
M  V30 7 2 7 8
M  V30 8 1 8 9
M  V30 9 1 9 10
M  V30 10 1 10 11
M  V30 11 1 11 12
M  V30 12 1 12 13
M  V30 13 1 12 14
M  V30 14 1 14 15
M  V30 15 2 15 16
M  V30 16 1 16 17
M  V30 17 1 17 18
M  V30 18 2 18 19
M  V30 19 1 19 20
M  V30 20 2 20 21
M  V30 21 1 21 22
M  V30 22 2 22 23
M  V30 23 2 9 24
M  V30 24 2 4 25
M  V30 25 1 25 26
M  V30 26 2 26 27
M  V30 27 1 27 28
M  V30 28 2 28 29
M  V30 29 1 29 30
M  V30 30 2 30 31
M  V30 31 1 31 2
M  V30 32 1 24 5
M  V30 33 1 31 26
M  V30 34 1 23 15
M  V30 35 1 23 18
M  V30 36 1 1 32
M  V30 37 1 1 33
M  V30 38 1 1 34
M  V30 39 1 3 35
M  V30 40 1 6 36
M  V30 41 1 8 37
M  V30 42 1 11 38
M  V30 43 1 11 39
M  V30 44 1 12 40 CFG=3
M  V30 45 1 13 41
M  V30 46 1 13 42
M  V30 47 1 14 43
M  V30 48 1 14 44
M  V30 49 1 16 45
M  V30 50 1 17 46
M  V30 51 1 19 47
M  V30 52 1 20 48
M  V30 53 1 21 49
M  V30 54 1 22 50
M  V30 55 1 24 51
M  V30 56 1 25 52
M  V30 57 1 27 53
M  V30 58 1 28 54
M  V30 59 1 30 55
M  V30 END BOND
M  V30 END CTAB
M  END
>  <Dataset>  (128) 
ChEMBL_Kinases

>  <Ligand_Instance>  (128) 
nan

>  <PDB_ID>  (128) 
nan

>  <Standardized_SMILES>  (128) 
Cc1cc(-c2cncc(OC[C@@H](N)Cc3c[nH]c4ccccc34)c2)cc2ccncc12

>  <Name>  (128) 
nan

>  <Pocket>  (128) 
nan

>  <ATP_Site>  (128) 
nan

>  <Peripheral>  (128) 
nan

>  <Num_H_Atoms_ProtBoundConf>  (128) 
nan

>  <Num_Resolved_Atoms>  (128) 
nan

>  <Num_Not_Resolved_Atoms>  (128) 
nan

$$$$
CHEMBL208962
     RDKit          3D

  0  0  0  0  0  0  0  0  0  0999 V3000
M  V30 BEGIN CTAB
M  V30 COUNTS 54 58 0 0 0
M  V30 BEGIN ATOM
M  V30 1 N 2.909439 -5.001638 2.704471 0
M  V30 2 C 3.928662 -4.070865 2.290872 0
M  V30 3 N 5.251864 -4.283327 2.425320 0
M  V30 4 C 6.123208 -3.338643 2.001837 0
M  V30 5 C 5.680636 -2.146226 1.427393 0
M  V30 6 C 4.322884 -1.941278 1.295605 0
M  V30 7 C 3.896844 -0.739162 0.718059 0
M  V30 8 C 2.522851 -0.507028 0.574018 0
M  V30 9 C 2.066006 0.742794 -0.024881 0
M  V30 10 C 2.716476 1.466440 -0.996394 0
M  V30 11 N 2.148244 2.603663 -1.432440 0
M  V30 12 C 0.952729 3.039346 -0.929617 0
M  V30 13 C 0.246912 2.332278 0.067171 0
M  V30 14 O -0.881949 3.064023 0.310383 0
M  V30 15 C -1.844768 2.688619 1.217652 0
M  V30 16 C -2.576455 1.420435 0.984941 0 CFG=1
M  V30 17 N -3.527681 1.278748 2.102691 0
M  V30 18 C -3.431738 1.436967 -0.264261 0
M  V30 19 C -4.089016 0.106838 -0.358098 0
M  V30 20 C -5.342131 -0.428807 -0.123671 0
M  V30 21 N -5.344763 -1.730090 -0.391046 0
M  V30 22 C -4.121964 -2.093553 -0.802423 0
M  V30 23 C -3.644553 -3.336375 -1.190036 0
M  V30 24 C -2.318782 -3.498790 -1.588613 0
M  V30 25 C -1.515501 -2.387878 -1.581220 0
M  V30 26 C -1.984885 -1.155972 -1.197983 0
M  V30 27 C -3.304816 -0.963287 -0.794534 0
M  V30 28 C 0.870736 1.182040 0.475390 0
M  V30 29 C 1.653874 -1.484387 1.012821 0
M  V30 30 C 2.068116 -2.674058 1.584165 0
M  V30 31 C 3.422964 -2.896478 1.723370 0
M  V30 32 H 2.212401 -4.955440 3.488735 0
M  V30 33 H 2.195010 -4.992630 3.480265 0
M  V30 34 H 7.150512 -3.596362 2.150123 0
M  V30 35 H 6.418251 -1.422705 1.104949 0
M  V30 36 H 4.565996 0.030047 0.372088 0
M  V30 37 H 3.652063 1.057396 -1.340480 0
M  V30 38 H 0.728255 3.975561 -1.455415 0
M  V30 39 H -1.418798 2.609470 2.267058 0
M  V30 40 H -2.591694 3.531400 1.334466 0
M  V30 41 H -1.997858 0.500988 0.955582 0
M  V30 42 H -3.241327 0.488513 2.738581 0
M  V30 43 H -3.628791 2.144460 2.655501 0
M  V30 44 H -4.193289 2.265622 -0.203551 0
M  V30 45 H -2.855550 1.637241 -1.180881 0
M  V30 46 H -6.106943 0.269238 0.230448 0
M  V30 47 H -6.192596 -2.315801 -0.278182 0
M  V30 48 H -4.238016 -4.235533 -1.211685 0
M  V30 49 H -1.858329 -4.412655 -1.904009 0
M  V30 50 H -0.461475 -2.461956 -1.887135 0
M  V30 51 H -1.336328 -0.308709 -1.202997 0
M  V30 52 H 0.284809 0.716897 1.231382 0
M  V30 53 H 0.591468 -1.309388 0.903107 0
M  V30 54 H 1.359746 -3.423452 1.919802 0
M  V30 END ATOM
M  V30 BEGIN BOND
M  V30 1 1 1 2
M  V30 2 2 2 3
M  V30 3 1 3 4
M  V30 4 2 4 5
M  V30 5 1 5 6
M  V30 6 2 6 7
M  V30 7 1 7 8
M  V30 8 1 8 9
M  V30 9 2 9 10
M  V30 10 1 10 11
M  V30 11 2 11 12
M  V30 12 1 12 13
M  V30 13 1 13 14
M  V30 14 1 14 15
M  V30 15 1 15 16
M  V30 16 1 16 17
M  V30 17 1 16 18
M  V30 18 1 18 19
M  V30 19 2 19 20
M  V30 20 1 20 21
M  V30 21 1 21 22
M  V30 22 2 22 23
M  V30 23 1 23 24
M  V30 24 2 24 25
M  V30 25 1 25 26
M  V30 26 2 26 27
M  V30 27 2 13 28
M  V30 28 2 8 29
M  V30 29 1 29 30
M  V30 30 2 30 31
M  V30 31 1 31 2
M  V30 32 1 31 6
M  V30 33 1 28 9
M  V30 34 1 27 19
M  V30 35 1 27 22
M  V30 36 1 1 32
M  V30 37 1 1 33
M  V30 38 1 4 34
M  V30 39 1 5 35
M  V30 40 1 7 36
M  V30 41 1 10 37
M  V30 42 1 12 38
M  V30 43 1 15 39
M  V30 44 1 15 40
M  V30 45 1 16 41 CFG=3
M  V30 46 1 17 42
M  V30 47 1 17 43
M  V30 48 1 18 44
M  V30 49 1 18 45
M  V30 50 1 20 46
M  V30 51 1 21 47
M  V30 52 1 23 48
M  V30 53 1 24 49
M  V30 54 1 25 50
M  V30 55 1 26 51
M  V30 56 1 28 52
M  V30 57 1 29 53
M  V30 58 1 30 54
M  V30 END BOND
M  V30 END CTAB
M  END
>  <Dataset>  (129) 
ChEMBL_Kinases

>  <Ligand_Instance>  (129) 
nan

>  <PDB_ID>  (129) 
nan

>  <Standardized_SMILES>  (129) 
Nc1nccc2cc(-c3cncc(OC[C@@H](N)Cc4c[nH]c5ccccc45)c3)ccc12

>  <Name>  (129) 
nan

>  <Pocket>  (129) 
nan

>  <ATP_Site>  (129) 
nan

>  <Peripheral>  (129) 
nan

>  <Num_H_Atoms_ProtBoundConf>  (129) 
nan

>  <Num_Resolved_Atoms>  (129) 
nan

>  <Num_Not_Resolved_Atoms>  (129) 
nan

$$$$
CHEMBL209005
     RDKit          3D

  0  0  0  0  0  0  0  0  0  0999 V3000
M  V30 BEGIN CTAB
M  V30 COUNTS 93 101 0 0 0
M  V30 BEGIN ATOM
M  V30 1 O 0.654201 -6.398392 -3.080582 0
M  V30 2 C 1.353832 -5.525744 -2.524388 0
M  V30 3 N 2.764698 -5.508830 -2.466639 0
M  V30 4 C 3.158155 -4.382722 -1.697694 0
M  V30 5 C 4.439709 -4.006941 -1.375861 0
M  V30 6 C 4.645990 -2.900401 -0.598524 0
M  V30 7 C 3.575063 -2.134947 -0.118756 0
M  V30 8 N 3.807002 -0.983142 0.664769 0
M  V30 9 C 3.016847 0.009954 1.349504 0 CFG=2
M  V30 10 C 2.305962 -0.663484 2.484249 0
M  V30 11 O 1.512857 0.083506 3.266246 0
M  V30 12 C 0.421360 0.823665 3.334006 0
M  V30 13 C 0.440461 1.240166 4.686362 0
M  V30 14 N -0.528215 2.052620 5.234609 0
M  V30 15 C -1.552005 2.471287 4.430946 0
M  V30 16 C -1.629917 2.106416 3.124453 0
M  V30 17 C -2.661923 2.492165 2.168914 0
M  V30 18 C -3.340871 3.694862 2.147985 0
M  V30 19 C -4.317885 3.962738 1.207591 0
M  V30 20 C -4.656616 3.029066 0.243620 0
M  V30 21 C -4.008217 1.822540 0.232925 0
M  V30 22 C -3.046636 1.588891 1.173317 0
M  V30 23 C -4.551409 0.939592 -0.843139 0
M  V30 24 C -5.422394 -0.172085 -0.307979 0
M  V30 25 C -4.742877 -1.074993 0.638199 0
M  V30 26 C -4.011369 -2.209738 0.438067 0
M  V30 27 C -3.482971 -2.898344 1.513378 0
M  V30 28 C -3.640440 -2.518318 2.819122 0
M  V30 29 C -4.386591 -1.361580 3.023301 0
M  V30 30 C -4.931220 -0.647347 1.955224 0
M  V30 31 C -5.496595 1.866023 -1.583017 0
M  V30 32 O -6.023876 1.443496 -2.646847 0
M  V30 33 N -5.576954 3.077745 -0.860296 0
M  V30 34 C -0.642213 1.294371 2.614480 0
M  V30 35 C 2.075457 0.762486 0.456023 0
M  V30 36 C 2.843700 1.471585 -0.638192 0
M  V30 37 C 2.982038 1.147568 -1.967477 0
M  V30 38 N 3.760518 2.065819 -2.581277 0
M  V30 39 C 4.149384 2.998298 -1.701124 0
M  V30 40 C 4.921355 4.150427 -1.707438 0
M  V30 41 C 5.151598 4.940727 -0.594369 0
M  V30 42 C 4.568246 4.538753 0.581178 0
M  V30 43 C 3.802252 3.409648 0.623876 0
M  V30 44 C 3.579736 2.631552 -0.488056 0
M  V30 45 C 2.322508 -2.570376 -0.480889 0
M  V30 46 C 2.069196 -3.669959 -1.256490 0
M  V30 47 C 0.842939 -4.344870 -1.821846 0
M  V30 48 C 0.164203 -3.418500 -2.812053 0
M  V30 49 C -0.961545 -4.012743 -3.524749 0
M  V30 50 C -2.248991 -3.981443 -3.070036 0
M  V30 51 C -3.283486 -4.554327 -3.786696 0
M  V30 52 C -2.992270 -5.165622 -4.982514 0
M  V30 53 C -1.697147 -5.230265 -5.500436 0
M  V30 54 C -0.694588 -4.636421 -4.736305 0
M  V30 55 H 3.367334 -6.220369 -2.925592 0
M  V30 56 H 5.311245 -4.550107 -1.709293 0
M  V30 57 H 5.683492 -2.623980 -0.356746 0
M  V30 58 H 4.848181 -0.776541 0.797725 0
M  V30 59 H 3.680052 0.800615 1.800217 0
M  V30 60 H 1.837984 -1.617288 2.102128 0
M  V30 61 H 3.146771 -1.072942 3.147462 0
M  V30 62 H 1.110071 1.076536 5.554800 0
M  V30 63 H -2.365721 3.107929 4.747492 0
M  V30 64 H -3.065487 4.416748 2.908398 0
M  V30 65 H -4.834161 4.925937 1.222757 0
M  V30 66 H -2.506246 0.637065 1.175718 0
M  V30 67 H -3.802863 0.621175 -1.554642 0
M  V30 68 H -6.385565 0.198374 0.050143 0
M  V30 69 H -5.648319 -0.814006 -1.210178 0
M  V30 70 H -3.914646 -2.465511 -0.603441 0
M  V30 71 H -2.917064 -3.784137 1.303345 0
M  V30 72 H -3.235710 -3.042590 3.650609 0
M  V30 73 H -4.518526 -1.050733 4.051728 0
M  V30 74 H -5.491203 0.241978 2.279558 0
M  V30 75 H -6.222874 3.849074 -1.138561 0
M  V30 76 H -0.535407 0.897619 1.613507 0
M  V30 77 H 1.672399 1.640876 1.058693 0
M  V30 78 H 1.201699 0.240900 0.103573 0
M  V30 79 H 2.521001 0.280754 -2.412088 0
M  V30 80 H 4.050849 2.100914 -3.582196 0
M  V30 81 H 5.349796 4.410261 -2.665336 0
M  V30 82 H 5.774196 5.808826 -0.751436 0
M  V30 83 H 4.789610 5.207042 1.423787 0
M  V30 84 H 3.398706 3.206805 1.624818 0
M  V30 85 H 1.437023 -2.074608 -0.178919 0
M  V30 86 H 0.225325 -4.637223 -0.973196 0
M  V30 87 H -0.189481 -2.517731 -2.249625 0
M  V30 88 H 0.910416 -3.053480 -3.559432 0
M  V30 89 H -2.363440 -3.476488 -2.120191 0
M  V30 90 H -4.271671 -4.487265 -3.360826 0
M  V30 91 H -3.854171 -5.591495 -5.485434 0
M  V30 92 H -1.559070 -5.726292 -6.440656 0
M  V30 93 H 0.283863 -4.730219 -5.217525 0
M  V30 END ATOM
M  V30 BEGIN BOND
M  V30 1 2 1 2
M  V30 2 1 2 3
M  V30 3 1 3 4
M  V30 4 2 4 5
M  V30 5 1 5 6
M  V30 6 2 6 7
M  V30 7 1 7 8
M  V30 8 1 8 9
M  V30 9 1 9 10
M  V30 10 1 10 11
M  V30 11 1 11 12
M  V30 12 2 12 13
M  V30 13 1 13 14
M  V30 14 2 14 15
M  V30 15 1 15 16
M  V30 16 1 16 17
M  V30 17 2 17 18
M  V30 18 1 18 19
M  V30 19 2 19 20
M  V30 20 1 20 21
M  V30 21 2 21 22
M  V30 22 1 21 23
M  V30 23 1 23 24
M  V30 24 1 24 25
M  V30 25 2 25 26
M  V30 26 1 26 27
M  V30 27 2 27 28
M  V30 28 1 28 29
M  V30 29 2 29 30
M  V30 30 1 23 31
M  V30 31 2 31 32
M  V30 32 1 31 33
M  V30 33 2 16 34
M  V30 34 1 9 35
M  V30 35 1 35 36
M  V30 36 2 36 37
M  V30 37 1 37 38
M  V30 38 1 38 39
M  V30 39 2 39 40
M  V30 40 1 40 41
M  V30 41 2 41 42
M  V30 42 1 42 43
M  V30 43 2 43 44
M  V30 44 1 7 45
M  V30 45 2 45 46
M  V30 46 1 46 47
M  V30 47 1 47 48
M  V30 48 1 48 49
M  V30 49 2 49 50
M  V30 50 1 50 51
M  V30 51 2 51 52
M  V30 52 1 52 53
M  V30 53 2 53 54
M  V30 54 1 47 2
M  V30 55 1 54 49
M  V30 56 1 46 4
M  V30 57 1 34 12
M  V30 58 1 44 36
M  V30 59 1 22 17
M  V30 60 1 30 25
M  V30 61 1 44 39
M  V30 62 1 33 20
M  V30 63 1 3 55
M  V30 64 1 5 56
M  V30 65 1 6 57
M  V30 66 1 8 58
M  V30 67 1 9 59 CFG=1
M  V30 68 1 10 60
M  V30 69 1 10 61
M  V30 70 1 13 62
M  V30 71 1 15 63
M  V30 72 1 18 64
M  V30 73 1 19 65
M  V30 74 1 22 66
M  V30 75 1 23 67
M  V30 76 1 24 68
M  V30 77 1 24 69
M  V30 78 1 26 70
M  V30 79 1 27 71
M  V30 80 1 28 72
M  V30 81 1 29 73
M  V30 82 1 30 74
M  V30 83 1 33 75
M  V30 84 1 34 76
M  V30 85 1 35 77
M  V30 86 1 35 78
M  V30 87 1 37 79
M  V30 88 1 38 80
M  V30 89 1 40 81
M  V30 90 1 41 82
M  V30 91 1 42 83
M  V30 92 1 43 84
M  V30 93 1 45 85
M  V30 94 1 47 86
M  V30 95 1 48 87
M  V30 96 1 48 88
M  V30 97 1 50 89
M  V30 98 1 51 90
M  V30 99 1 52 91
M  V30 100 1 53 92
M  V30 101 1 54 93
M  V30 END BOND
M  V30 END CTAB
M  END
>  <Dataset>  (130) 
ChEMBL_Kinases

>  <Ligand_Instance>  (130) 
nan

>  <PDB_ID>  (130) 
nan

>  <Standardized_SMILES>  (130) 
O=C1Nc2ccc(N[C@H](COc3cncc(-c4ccc5c(c4)C(Cc4ccccc4)C(=O)N5)c3)Cc3c[nH]c4ccccc34)cc2C1Cc1ccccc1

>  <Name>  (130) 
nan

>  <Pocket>  (130) 
nan

>  <ATP_Site>  (130) 
nan

>  <Peripheral>  (130) 
nan

>  <Num_H_Atoms_ProtBoundConf>  (130) 
nan

>  <Num_Resolved_Atoms>  (130) 
nan

>  <Num_Not_Resolved_Atoms>  (130) 
nan

$$$$
CHEMBL2093990
     RDKit          3D

  0  0  0  0  0  0  0  0  0  0999 V3000
M  V30 BEGIN CTAB
M  V30 COUNTS 45 46 0 0 0
M  V30 BEGIN ATOM
M  V30 1 C -0.316014 -4.549326 1.419614 0
M  V30 2 C -0.222448 -3.080647 1.066293 0
M  V30 3 C -1.038318 -2.290048 2.051425 0
M  V30 4 C -0.775435 -2.907695 -0.335971 0
M  V30 5 C 1.187369 -2.619043 1.139467 0
M  V30 6 O 1.934775 -3.558123 1.487249 0
M  V30 7 O 1.580233 -1.319678 0.852343 0
M  V30 8 C 2.976046 -1.012819 0.956961 0
M  V30 9 C 3.232648 0.413534 0.609583 0
M  V30 10 C 4.665290 0.825735 0.809369 0
M  V30 11 O 4.763160 2.196747 0.548246 0
M  V30 12 C 2.366818 1.379036 1.381607 0
M  V30 13 C 1.048302 1.209135 0.675611 0
M  V30 14 C -0.107145 1.583796 1.191096 0
M  V30 15 C -1.492456 1.519983 0.695131 0
M  V30 16 C -1.892612 1.893986 -0.589538 0
M  V30 17 C -3.217749 1.747265 -0.920557 0
M  V30 18 C -4.150656 1.245384 -0.023255 0
M  V30 19 Cl -5.843431 1.062890 -0.474915 0
M  V30 20 C -3.789607 0.870478 1.244436 0
M  V30 21 F -4.629285 0.371265 2.184441 0
M  V30 22 C -2.446877 1.018286 1.580245 0
M  V30 23 C 1.390596 0.559182 -0.608234 0
M  V30 24 O 0.426809 0.079572 -1.286801 0
M  V30 25 O 2.791432 0.664035 -0.720449 0
M  V30 26 H -1.385259 -4.804641 1.504276 0
M  V30 27 H 0.208690 -5.166657 0.663430 0
M  V30 28 H 0.119977 -4.669482 2.442226 0
M  V30 29 H -1.127944 -2.909295 2.991628 0
M  V30 30 H -0.546756 -1.333523 2.262570 0
M  V30 31 H -2.071637 -2.133623 1.667952 0
M  V30 32 H -1.369266 -3.789958 -0.617325 0
M  V30 33 H 0.105917 -2.769570 -1.011295 0
M  V30 34 H -1.397932 -1.990591 -0.370197 0
M  V30 35 H 3.480926 -1.703040 0.267345 0
M  V30 36 H 3.290641 -1.256331 1.983113 0
M  V30 37 H 5.363666 0.213588 0.225202 0
M  V30 38 H 4.896523 0.704582 1.897305 0
M  V30 39 H 4.753159 2.336898 -0.435922 0
M  V30 40 H 2.296243 1.104122 2.439857 0
M  V30 41 H 2.746363 2.409920 1.249591 0
M  V30 42 H -0.087171 2.047668 2.191957 0
M  V30 43 H -1.160266 2.285234 -1.256034 0
M  V30 44 H -3.593054 2.019464 -1.894144 0
M  V30 45 H -2.135430 0.729301 2.585212 0
M  V30 END ATOM
M  V30 BEGIN BOND
M  V30 1 1 1 2
M  V30 2 1 2 3
M  V30 3 1 2 4
M  V30 4 1 2 5
M  V30 5 2 5 6
M  V30 6 1 5 7
M  V30 7 1 7 8
M  V30 8 1 8 9
M  V30 9 1 9 10
M  V30 10 1 10 11
M  V30 11 1 9 12
M  V30 12 1 12 13
M  V30 13 2 13 14 CFG=2
M  V30 14 1 14 15
M  V30 15 2 15 16
M  V30 16 1 16 17
M  V30 17 2 17 18
M  V30 18 1 18 19
M  V30 19 1 18 20
M  V30 20 1 20 21
M  V30 21 2 20 22
M  V30 22 1 13 23
M  V30 23 2 23 24
M  V30 24 1 23 25
M  V30 25 1 25 9
M  V30 26 1 22 15
M  V30 27 1 1 26
M  V30 28 1 1 27
M  V30 29 1 1 28
M  V30 30 1 3 29
M  V30 31 1 3 30
M  V30 32 1 3 31
M  V30 33 1 4 32
M  V30 34 1 4 33
M  V30 35 1 4 34
M  V30 36 1 8 35
M  V30 37 1 8 36
M  V30 38 1 10 37
M  V30 39 1 10 38
M  V30 40 1 11 39
M  V30 41 1 12 40
M  V30 42 1 12 41
M  V30 43 1 14 42
M  V30 44 1 16 43
M  V30 45 1 17 44
M  V30 46 1 22 45
M  V30 END BOND
M  V30 END CTAB
M  END
>  <Dataset>  (131) 
ChEMBL_Kinases

>  <Ligand_Instance>  (131) 
nan

>  <PDB_ID>  (131) 
nan

>  <Standardized_SMILES>  (131) 
CC(C)(C)C(=O)OCC1(CO)CC(=Cc2ccc(Cl)c(F)c2)C(=O)O1

>  <Name>  (131) 
nan

>  <Pocket>  (131) 
nan

>  <ATP_Site>  (131) 
nan

>  <Peripheral>  (131) 
nan

>  <Num_H_Atoms_ProtBoundConf>  (131) 
nan

>  <Num_Resolved_Atoms>  (131) 
nan

>  <Num_Not_Resolved_Atoms>  (131) 
nan

$$$$
CHEMBL209140
     RDKit          3D

  0  0  0  0  0  0  0  0  0  0999 V3000
M  V30 BEGIN CTAB
M  V30 COUNTS 60 61 0 0 0
M  V30 BEGIN ATOM
M  V30 1 C 0.506965 -2.409850 4.533928 0
M  V30 2 C 1.965435 -2.552722 4.096677 0
M  V30 3 C 2.613403 -1.180879 4.062199 0
M  V30 4 C 1.803333 -0.339614 3.040322 0
M  V30 5 C 2.370583 1.018678 2.944380 0
M  V30 6 C 1.778298 2.007196 2.040228 0
M  V30 7 C 0.413612 2.504672 2.227286 0
M  V30 8 C -0.798227 1.694855 2.147127 0
M  V30 9 C -1.141663 1.001045 0.876057 0
M  V30 10 C -0.255286 -0.000791 0.347637 0
M  V30 11 C 0.408754 -0.053154 -0.793691 0
M  V30 12 C 0.321316 1.022632 -1.784492 0
M  V30 13 C 0.624506 0.226131 -3.051733 0
M  V30 14 C 0.971650 1.144065 -4.197217 0
M  V30 15 O -0.101892 1.898562 -4.653120 0
M  V30 16 C -0.470995 -0.720450 -3.431077 0
M  V30 17 O -0.875965 -1.499811 -2.341309 0
M  V30 18 C -1.901620 -2.444999 -2.525808 0
M  V30 19 O -2.262805 -2.378963 -3.732636 0
M  V30 20 C -2.433494 -3.321573 -1.515081 0
M  V30 21 C -2.061515 -3.418458 -0.190804 0
M  V30 22 C -2.661938 -4.308871 0.667438 0
M  V30 23 C -3.671464 -5.159060 0.258984 0
M  V30 24 C -4.032141 -5.047881 -1.074493 0
M  V30 25 C -3.443493 -4.160462 -1.957247 0
M  V30 26 O 1.722240 -0.541884 -2.592005 0
M  V30 27 C 1.309172 -1.057982 -1.348341 0
M  V30 28 O 1.585135 -2.138248 -0.736432 0
M  V30 29 H 0.339935 -1.534913 5.161709 0
M  V30 30 H -0.072406 -2.242493 3.589915 0
M  V30 31 H 0.140513 -3.364909 4.953005 0
M  V30 32 H 2.432633 -3.200611 4.848098 0
M  V30 33 H 1.988039 -3.014287 3.095537 0
M  V30 34 H 2.605408 -0.705561 5.061118 0
M  V30 35 H 3.639978 -1.300822 3.702413 0
M  V30 36 H 0.769661 -0.358064 3.364089 0
M  V30 37 H 1.899953 -0.913453 2.085072 0
M  V30 38 H 3.462213 0.870226 2.626752 0
M  V30 39 H 2.489173 1.475312 3.987477 0
M  V30 40 H 2.453742 2.955428 2.037933 0
M  V30 41 H 1.850374 1.616692 0.977101 0
M  V30 42 H 0.301411 3.482505 1.620991 0
M  V30 43 H 0.418122 2.981866 3.292090 0
M  V30 44 H -0.910766 1.031525 3.025015 0
M  V30 45 H -1.666294 2.457811 2.365638 0
M  V30 46 H -2.159239 0.498360 1.000884 0
M  V30 47 H -1.399592 1.813235 0.142406 0
M  V30 48 H -0.170740 -0.832253 1.028255 0
M  V30 49 H -0.612926 1.568794 -1.816269 0
M  V30 50 H 1.224339 1.669369 -1.640775 0
M  V30 51 H 1.695193 1.896502 -3.773346 0
M  V30 52 H 1.528624 0.628178 -4.997626 0
M  V30 53 H -0.846578 1.850989 -3.982368 0
M  V30 54 H -0.031452 -1.416280 -4.183405 0
M  V30 55 H -1.315318 -0.226912 -3.952578 0
M  V30 56 H -1.277895 -2.754058 0.113418 0
M  V30 57 H -2.304439 -4.313820 1.687919 0
M  V30 58 H -4.145081 -5.856204 0.921207 0
M  V30 59 H -4.822897 -5.707781 -1.411869 0
M  V30 60 H -3.828915 -4.181518 -2.981714 0
M  V30 END ATOM
M  V30 BEGIN BOND
M  V30 1 1 1 2
M  V30 2 1 2 3
M  V30 3 1 3 4
M  V30 4 1 4 5
M  V30 5 1 5 6
M  V30 6 1 6 7
M  V30 7 1 7 8
M  V30 8 1 8 9
M  V30 9 1 9 10
M  V30 10 2 10 11
M  V30 11 1 11 12
M  V30 12 1 12 13
M  V30 13 1 13 14
M  V30 14 1 14 15
M  V30 15 1 13 16
M  V30 16 1 16 17
M  V30 17 1 17 18
M  V30 18 2 18 19
M  V30 19 1 18 20
M  V30 20 2 20 21
M  V30 21 1 21 22
M  V30 22 2 22 23
M  V30 23 1 23 24
M  V30 24 2 24 25
M  V30 25 1 13 26
M  V30 26 1 26 27
M  V30 27 2 27 28
M  V30 28 1 27 11
M  V30 29 1 25 20
M  V30 30 1 1 29
M  V30 31 1 1 30
M  V30 32 1 1 31
M  V30 33 1 2 32
M  V30 34 1 2 33
M  V30 35 1 3 34
M  V30 36 1 3 35
M  V30 37 1 4 36
M  V30 38 1 4 37
M  V30 39 1 5 38
M  V30 40 1 5 39
M  V30 41 1 6 40
M  V30 42 1 6 41
M  V30 43 1 7 42
M  V30 44 1 7 43
M  V30 45 1 8 44
M  V30 46 1 8 45
M  V30 47 1 9 46
M  V30 48 1 9 47
M  V30 49 1 10 48
M  V30 50 1 12 49
M  V30 51 1 12 50
M  V30 52 1 14 51
M  V30 53 1 14 52
M  V30 54 1 15 53
M  V30 55 1 16 54
M  V30 56 1 16 55
M  V30 57 1 21 56
M  V30 58 1 22 57
M  V30 59 1 23 58
M  V30 60 1 24 59
M  V30 61 1 25 60
M  V30 END BOND
M  V30 END CTAB
M  END
>  <Dataset>  (132) 
ChEMBL_Kinases

>  <Ligand_Instance>  (132) 
nan

>  <PDB_ID>  (132) 
nan

>  <Standardized_SMILES>  (132) 
CCCCCCCCC/C=C1\CC(CO)(COC(=O)c2ccccc2)OC1=O

>  <Name>  (132) 
nan

>  <Pocket>  (132) 
nan

>  <ATP_Site>  (132) 
nan

>  <Peripheral>  (132) 
nan

>  <Num_H_Atoms_ProtBoundConf>  (132) 
nan

>  <Num_Resolved_Atoms>  (132) 
nan

>  <Num_Not_Resolved_Atoms>  (132) 
nan

$$$$
CHEMBL209184
     RDKit          3D

  0  0  0  0  0  0  0  0  0  0999 V3000
M  V30 BEGIN CTAB
M  V30 COUNTS 61 62 0 0 0
M  V30 BEGIN ATOM
M  V30 1 C 2.080333 -2.522149 -2.485438 0
M  V30 2 O 2.247487 -1.508642 -1.537139 0
M  V30 3 C 3.402888 -1.215692 -0.865859 0
M  V30 4 C 4.558524 -1.954971 -1.099281 0
M  V30 5 C 5.729713 -1.672009 -0.431103 0
M  V30 6 C 5.786441 -0.646971 0.487716 0
M  V30 7 C 4.614517 0.046884 0.675482 0
M  V30 8 C 3.401317 -0.163409 0.055939 0
M  V30 9 C 2.209054 0.658345 0.348550 0
M  V30 10 O 1.254034 0.272244 -0.332321 0
M  V30 11 O 2.342821 1.627649 1.246016 0
M  V30 12 C 1.446736 2.537047 1.731300 0
M  V30 13 C 0.304573 1.990294 2.494552 0
M  V30 14 C -0.250267 3.211079 3.317028 0
M  V30 15 O -1.281680 2.769203 4.124074 0
M  V30 16 C -0.820489 1.341895 1.782723 0
M  V30 17 C -0.645008 -0.088151 2.221286 0
M  V30 18 C -1.537370 -1.009389 1.895833 0
M  V30 19 C -2.773461 -0.945268 1.135527 0
M  V30 20 C -2.929249 -1.774506 -0.074535 0
M  V30 21 C -1.929776 -1.479071 -1.139403 0
M  V30 22 C -2.089306 -0.040686 -1.584502 0
M  V30 23 C -2.080762 -2.340295 -2.359229 0
M  V30 24 C -3.163450 -3.238166 0.105128 0
M  V30 25 C -2.094757 -3.999930 0.823531 0
M  V30 26 C -4.534232 -3.558976 0.639383 0
M  V30 27 C 0.594516 -0.204553 3.028065 0
M  V30 28 O 1.206321 -1.317189 3.081092 0
M  V30 29 O 0.730697 1.114975 3.552535 0
M  V30 30 H 2.645026 -3.427371 -2.208547 0
M  V30 31 H 1.006877 -2.786143 -2.569341 0
M  V30 32 H 2.378547 -2.156544 -3.503960 0
M  V30 33 H 4.534349 -2.765392 -1.818394 0
M  V30 34 H 6.623335 -2.250687 -0.617771 0
M  V30 35 H 6.667777 -0.372343 1.044615 0
M  V30 36 H 4.626085 0.867989 1.399349 0
M  V30 37 H 0.973032 3.154140 0.872714 0
M  V30 38 H 1.963390 3.369662 2.298973 0
M  V30 39 H 0.601518 3.476717 3.976671 0
M  V30 40 H -0.495239 4.036308 2.646570 0
M  V30 41 H -0.869888 2.146045 4.787175 0
M  V30 42 H -1.774222 1.735819 2.240279 0
M  V30 43 H -0.777630 1.510629 0.721909 0
M  V30 44 H -1.301192 -1.995785 2.270683 0
M  V30 45 H -3.690936 -1.024759 1.804423 0
M  V30 46 H -2.862711 0.129754 0.785625 0
M  V30 47 H -3.914705 -1.396166 -0.531911 0
M  V30 48 H -0.874910 -1.556327 -0.784553 0
M  V30 49 H -1.210910 0.575200 -1.414634 0
M  V30 50 H -2.253983 0.019983 -2.708216 0
M  V30 51 H -3.045577 0.423209 -1.196520 0
M  V30 52 H -1.648215 -3.352960 -2.256782 0
M  V30 53 H -3.141813 -2.501714 -2.640578 0
M  V30 54 H -1.586397 -1.865539 -3.230142 0
M  V30 55 H -3.182548 -3.665529 -0.939765 0
M  V30 56 H -1.091298 -3.655058 0.582392 0
M  V30 57 H -2.120948 -5.068751 0.438632 0
M  V30 58 H -2.271694 -4.128264 1.908667 0
M  V30 59 H -4.839146 -2.969651 1.512794 0
M  V30 60 H -5.329794 -3.408026 -0.133734 0
M  V30 61 H -4.544162 -4.648651 0.861857 0
M  V30 END ATOM
M  V30 BEGIN BOND
M  V30 1 1 1 2
M  V30 2 1 2 3
M  V30 3 2 3 4
M  V30 4 1 4 5
M  V30 5 2 5 6
M  V30 6 1 6 7
M  V30 7 2 7 8
M  V30 8 1 8 9
M  V30 9 2 9 10
M  V30 10 1 9 11
M  V30 11 1 11 12
M  V30 12 1 12 13
M  V30 13 1 13 14
M  V30 14 1 14 15
M  V30 15 1 13 16
M  V30 16 1 16 17
M  V30 17 2 17 18
M  V30 18 1 18 19
M  V30 19 1 19 20
M  V30 20 1 20 21
M  V30 21 1 21 22
M  V30 22 1 21 23
M  V30 23 1 20 24
M  V30 24 1 24 25
M  V30 25 1 24 26
M  V30 26 1 17 27
M  V30 27 2 27 28
M  V30 28 1 27 29
M  V30 29 1 8 3
M  V30 30 1 29 13
M  V30 31 1 1 30
M  V30 32 1 1 31
M  V30 33 1 1 32
M  V30 34 1 4 33
M  V30 35 1 5 34
M  V30 36 1 6 35
M  V30 37 1 7 36
M  V30 38 1 12 37
M  V30 39 1 12 38
M  V30 40 1 14 39
M  V30 41 1 14 40
M  V30 42 1 15 41
M  V30 43 1 16 42
M  V30 44 1 16 43
M  V30 45 1 18 44
M  V30 46 1 19 45
M  V30 47 1 19 46
M  V30 48 1 20 47
M  V30 49 1 21 48
M  V30 50 1 22 49
M  V30 51 1 22 50
M  V30 52 1 22 51
M  V30 53 1 23 52
M  V30 54 1 23 53
M  V30 55 1 23 54
M  V30 56 1 24 55
M  V30 57 1 25 56
M  V30 58 1 25 57
M  V30 59 1 25 58
M  V30 60 1 26 59
M  V30 61 1 26 60
M  V30 62 1 26 61
M  V30 END BOND
M  V30 END CTAB
M  END
>  <Dataset>  (133) 
ChEMBL_Kinases

>  <Ligand_Instance>  (133) 
nan

>  <PDB_ID>  (133) 
nan

>  <Standardized_SMILES>  (133) 
COc1ccccc1C(=O)OCC1(CO)C/C(=C\CC(C(C)C)C(C)C)C(=O)O1

>  <Name>  (133) 
nan

>  <Pocket>  (133) 
nan

>  <ATP_Site>  (133) 
nan

>  <Peripheral>  (133) 
nan

>  <Num_H_Atoms_ProtBoundConf>  (133) 
nan

>  <Num_Resolved_Atoms>  (133) 
nan

>  <Num_Not_Resolved_Atoms>  (133) 
nan

$$$$
CHEMBL209231
     RDKit          3D

  0  0  0  0  0  0  0  0  0  0999 V3000
M  V30 BEGIN CTAB
M  V30 COUNTS 65 71 0 0 0
M  V30 BEGIN ATOM
M  V30 1 O 3.943953 1.601680 6.844405 0
M  V30 2 C 4.118795 1.849624 5.499651 0
M  V30 3 N 3.258117 1.286740 4.621425 0
M  V30 4 C 3.572593 1.630134 3.374067 0
M  V30 5 C 3.111502 1.399104 2.100967 0
M  V30 6 C 3.623459 1.883413 0.920657 0
M  V30 7 N 3.100328 1.611028 -0.362045 0
M  V30 8 C 2.012506 0.854648 -0.874835 0 CFG=2
M  V30 9 C 0.641307 1.227712 -0.377609 0
M  V30 10 O -0.345606 0.412007 -1.008171 0
M  V30 11 C -1.697997 0.526867 -0.742879 0
M  V30 12 C -2.306120 1.417393 0.145986 0
M  V30 13 N -3.643552 1.400352 0.289016 0
M  V30 14 C -4.422681 0.532716 -0.414361 0
M  V30 15 C -3.870020 -0.374530 -1.312067 0
M  V30 16 C -4.689866 -1.313401 -2.074637 0
M  V30 17 C -4.384946 -1.779837 -3.337944 0
M  V30 18 C -5.269795 -2.666223 -3.917951 0
M  V30 19 C -6.408166 -3.072436 -3.272335 0
M  V30 20 N -7.418016 -3.916221 -3.615736 0
M  V30 21 C -8.323511 -3.987689 -2.625160 0
M  V30 22 O -9.466298 -4.755141 -2.658325 0
M  V30 23 N -7.887089 -3.172579 -1.622987 0
M  V30 24 C -6.727260 -2.614893 -2.008155 0
M  V30 25 C -5.845436 -1.725502 -1.418832 0
M  V30 26 C -2.495412 -0.366098 -1.467378 0
M  V30 27 C 2.257295 -0.618840 -1.022091 0
M  V30 28 C 2.611193 -1.372963 0.162775 0
M  V30 29 C 3.950880 -1.712215 0.434510 0
M  V30 30 N 4.063712 -2.400341 1.584243 0
M  V30 31 C 2.865720 -2.557193 2.127192 0
M  V30 32 C 2.388944 -3.164673 3.270185 0
M  V30 33 C 1.031086 -3.142834 3.539729 0
M  V30 34 C 0.168796 -2.519716 2.672569 0
M  V30 35 C 0.647359 -1.913108 1.530694 0
M  V30 36 C 1.993851 -1.933070 1.261183 0
M  V30 37 C 4.730555 2.688699 1.122104 0
M  V30 38 C 5.260236 2.974313 2.354979 0
M  V30 39 C 4.688151 2.449361 3.489944 0
M  V30 40 N 5.004161 2.570190 4.790556 0
M  V30 41 H 3.844388 0.687163 7.264122 0
M  V30 42 H 2.252589 0.758847 2.109978 0
M  V30 43 H 3.690985 2.105184 -1.109386 0
M  V30 44 H 1.940188 1.194797 -1.990399 0
M  V30 45 H 0.389200 2.270379 -0.742110 0
M  V30 46 H 0.494362 1.253928 0.689563 0
M  V30 47 H -1.627957 2.075474 0.669194 0
M  V30 48 H -5.489351 0.561185 -0.261656 0
M  V30 49 H -3.467448 -1.411446 -3.780038 0
M  V30 50 H -5.015551 -3.025744 -4.916105 0
M  V30 51 H -7.475969 -4.434506 -4.525872 0
M  V30 52 H -10.028596 -4.937701 -1.836319 0
M  V30 53 H -6.116693 -1.387154 -0.439999 0
M  V30 54 H -2.091465 -1.080284 -2.170194 0
M  V30 55 H 1.311880 -1.013317 -1.520753 0
M  V30 56 H 3.027548 -0.809843 -1.828390 0
M  V30 57 H 4.833387 -1.476452 -0.171501 0
M  V30 58 H 4.944201 -2.765342 2.005232 0
M  V30 59 H 3.119176 -3.641771 3.917900 0
M  V30 60 H 0.741713 -3.640343 4.453593 0
M  V30 61 H -0.882625 -2.541141 2.946648 0
M  V30 62 H -0.059718 -1.443791 0.883381 0
M  V30 63 H 5.247289 3.147687 0.269757 0
M  V30 64 H 6.120744 3.607126 2.440516 0
M  V30 65 H 5.773933 3.102784 5.244288 0
M  V30 END ATOM
M  V30 BEGIN BOND
M  V30 1 1 1 2
M  V30 2 2 2 3
M  V30 3 1 3 4
M  V30 4 2 4 5
M  V30 5 1 5 6
M  V30 6 1 6 7
M  V30 7 1 7 8
M  V30 8 1 8 9
M  V30 9 1 9 10
M  V30 10 1 10 11
M  V30 11 2 11 12
M  V30 12 1 12 13
M  V30 13 2 13 14
M  V30 14 1 14 15
M  V30 15 1 15 16
M  V30 16 2 16 17
M  V30 17 1 17 18
M  V30 18 2 18 19
M  V30 19 1 19 20
M  V30 20 1 20 21
M  V30 21 1 21 22
M  V30 22 2 21 23
M  V30 23 1 23 24
M  V30 24 2 24 25
M  V30 25 2 15 26
M  V30 26 1 8 27
M  V30 27 1 27 28
M  V30 28 2 28 29
M  V30 29 1 29 30
M  V30 30 1 30 31
M  V30 31 2 31 32
M  V30 32 1 32 33
M  V30 33 2 33 34
M  V30 34 1 34 35
M  V30 35 2 35 36
M  V30 36 2 6 37
M  V30 37 1 37 38
M  V30 38 2 38 39
M  V30 39 1 39 40
M  V30 40 1 40 2
M  V30 41 1 39 4
M  V30 42 1 26 11
M  V30 43 1 36 28
M  V30 44 1 25 16
M  V30 45 1 36 31
M  V30 46 1 24 19
M  V30 47 1 1 41
M  V30 48 1 5 42
M  V30 49 1 7 43
M  V30 50 1 8 44 CFG=3
M  V30 51 1 9 45
M  V30 52 1 9 46
M  V30 53 1 12 47
M  V30 54 1 14 48
M  V30 55 1 17 49
M  V30 56 1 18 50
M  V30 57 1 20 51
M  V30 58 1 22 52
M  V30 59 1 25 53
M  V30 60 1 26 54
M  V30 61 1 27 55
M  V30 62 1 27 56
M  V30 63 1 29 57
M  V30 64 1 30 58
M  V30 65 1 32 59
M  V30 66 1 33 60
M  V30 67 1 34 61
M  V30 68 1 35 62
M  V30 69 1 37 63
M  V30 70 1 38 64
M  V30 71 1 40 65
M  V30 END BOND
M  V30 END CTAB
M  END
>  <Dataset>  (134) 
ChEMBL_Kinases

>  <Ligand_Instance>  (134) 
nan

>  <PDB_ID>  (134) 
nan

>  <Standardized_SMILES>  (134) 
Oc1nc2cc(N[C@H](COc3cncc(-c4ccc5[nH]c(O)nc5c4)c3)Cc3c[nH]c4ccccc34)ccc2[nH]1

>  <Name>  (134) 
nan

>  <Pocket>  (134) 
nan

>  <ATP_Site>  (134) 
nan

>  <Peripheral>  (134) 
nan

>  <Num_H_Atoms_ProtBoundConf>  (134) 
nan

>  <Num_Resolved_Atoms>  (134) 
nan

>  <Num_Not_Resolved_Atoms>  (134) 
nan

$$$$
CHEMBL209256
     RDKit          3D

  0  0  0  0  0  0  0  0  0  0999 V3000
M  V30 BEGIN CTAB
M  V30 COUNTS 52 57 0 0 0
M  V30 BEGIN ATOM
M  V30 1 O 1.440785 -4.906252 0.992008 0
M  V30 2 C 1.791859 -3.601684 1.272251 0
M  V30 3 N 2.941676 -3.429655 1.890016 0
M  V30 4 C 3.436699 -2.239839 2.236673 0
M  V30 5 C 4.655810 -2.288509 2.861623 0
M  V30 6 C 5.250325 -1.110656 3.241840 0
M  V30 7 C 4.555870 0.048239 2.956008 0
M  V30 8 Cl 5.325847 1.536251 3.445406 0
M  V30 9 C 3.356942 -0.050910 2.332477 0
M  V30 10 Cl 2.686942 1.493614 2.026327 0
M  V30 11 C 2.667866 -1.156301 1.910522 0
M  V30 12 C 1.461498 -1.183930 1.275400 0
M  V30 13 N 0.741215 0.025393 1.089915 0
M  V30 14 C -0.225152 0.976078 0.674949 0 CFG=2
M  V30 15 C -0.340605 1.318702 -0.784945 0
M  V30 16 N -1.349574 2.352165 -0.896429 0
M  V30 17 C -2.400676 2.253405 0.081407 0
M  V30 18 C -1.831055 2.666448 1.426849 0
M  V30 19 C -0.326358 2.293156 1.383903 0
M  V30 20 C 0.288296 3.376241 0.531225 0
M  V30 21 C -0.634251 3.616193 -0.661170 0
M  V30 22 C 1.009455 -2.483970 0.942493 0
M  V30 23 C -0.252820 -2.755737 0.300211 0
M  V30 24 N -0.566447 -4.034377 0.025855 0
M  V30 25 C -1.730939 -4.218835 -0.547229 0
M  V30 26 C -2.263064 -5.449633 -0.921196 0
M  V30 27 C -3.529556 -5.370667 -1.517127 0
M  V30 28 C -4.164822 -4.146358 -1.700202 0
M  V30 29 C -3.534723 -2.965747 -1.284439 0
M  V30 30 C -2.297491 -2.982571 -0.696382 0
M  V30 31 N -1.343165 -2.224685 -0.167262 0
M  V30 32 H 0.954491 -5.485578 1.665956 0
M  V30 33 H 5.160128 -3.219836 3.063358 0
M  V30 34 H 6.206881 -1.173023 3.731455 0
M  V30 35 H 0.202988 -0.455332 0.415718 0
M  V30 36 H -1.308913 0.559326 0.915958 0
M  V30 37 H 0.610257 1.730852 -1.198208 0
M  V30 38 H -0.712890 0.474974 -1.393768 0
M  V30 39 H -2.922102 1.302437 0.110495 0
M  V30 40 H -3.134401 3.080722 -0.202761 0
M  V30 41 H -2.343397 2.178491 2.256964 0
M  V30 42 H -1.872597 3.747334 1.562084 0
M  V30 43 H -0.036769 2.302728 2.437406 0
M  V30 44 H 1.271750 3.076823 0.128192 0
M  V30 45 H 0.395558 4.326532 1.108136 0
M  V30 46 H -0.078830 3.872910 -1.582425 0
M  V30 47 H -1.403749 4.369576 -0.428743 0
M  V30 48 H -1.731677 -6.376633 -0.758475 0
M  V30 49 H -4.014918 -6.282720 -1.837626 0
M  V30 50 H -5.127348 -4.054520 -2.149983 0
M  V30 51 H -3.950180 -1.960859 -1.384171 0
M  V30 52 H -1.620329 -1.266315 -0.196849 0
M  V30 END ATOM
M  V30 BEGIN BOND
M  V30 1 1 1 2
M  V30 2 2 2 3
M  V30 3 1 3 4
M  V30 4 2 4 5
M  V30 5 1 5 6
M  V30 6 2 6 7
M  V30 7 1 7 8
M  V30 8 1 7 9
M  V30 9 1 9 10
M  V30 10 2 9 11
M  V30 11 1 11 12
M  V30 12 1 12 13
M  V30 13 1 13 14
M  V30 14 1 14 15
M  V30 15 1 15 16
M  V30 16 1 16 17
M  V30 17 1 17 18
M  V30 18 1 18 19
M  V30 19 1 19 20
M  V30 20 1 20 21
M  V30 21 2 12 22
M  V30 22 1 22 23
M  V30 23 2 23 24
M  V30 24 1 24 25
M  V30 25 2 25 26
M  V30 26 1 26 27
M  V30 27 2 27 28
M  V30 28 1 28 29
M  V30 29 2 29 30
M  V30 30 1 30 31
M  V30 31 1 22 2
M  V30 32 1 31 23
M  V30 33 1 11 4
M  V30 34 1 19 14
M  V30 35 1 30 25
M  V30 36 1 21 16
M  V30 37 1 1 32
M  V30 38 1 5 33
M  V30 39 1 6 34
M  V30 40 1 13 35
M  V30 41 1 14 36 CFG=1
M  V30 42 1 15 37
M  V30 43 1 15 38
M  V30 44 1 17 39
M  V30 45 1 17 40
M  V30 46 1 18 41
M  V30 47 1 18 42
M  V30 48 1 19 43
M  V30 49 1 20 44
M  V30 50 1 20 45
M  V30 51 1 21 46
M  V30 52 1 21 47
M  V30 53 1 26 48
M  V30 54 1 27 49
M  V30 55 1 28 50
M  V30 56 1 29 51
M  V30 57 1 31 52
M  V30 END BOND
M  V30 END CTAB
M  END
>  <Dataset>  (135) 
ChEMBL_Kinases

>  <Ligand_Instance>  (135) 
nan

>  <PDB_ID>  (135) 
nan

>  <Standardized_SMILES>  (135) 
Oc1nc2ccc(Cl)c(Cl)c2c(N[C@@H]2CN3CCC2CC3)c1-c1nc2ccccc2[nH]1

>  <Name>  (135) 
nan

>  <Pocket>  (135) 
nan

>  <ATP_Site>  (135) 
nan

>  <Peripheral>  (135) 
nan

>  <Num_H_Atoms_ProtBoundConf>  (135) 
nan

>  <Num_Resolved_Atoms>  (135) 
nan

>  <Num_Not_Resolved_Atoms>  (135) 
nan

$$$$
CHEMBL209260
     RDKit          3D

  0  0  0  0  0  0  0  0  0  0999 V3000
M  V30 BEGIN CTAB
M  V30 COUNTS 52 55 0 0 0
M  V30 BEGIN ATOM
M  V30 1 O 2.106663 -0.259147 -0.219984 0
M  V30 2 C 1.793527 0.400994 0.801284 0
M  V30 3 N 2.718298 1.448189 1.068935 0
M  V30 4 C 3.820220 1.570138 0.154153 0
M  V30 5 C 3.850723 2.329808 -0.998172 0
M  V30 6 C 5.012465 2.316039 -1.750521 0
M  V30 7 C 6.111370 1.573568 -1.375181 0
M  V30 8 C 6.070539 0.816692 -0.220147 0
M  V30 9 C 4.915614 0.809098 0.559502 0
M  V30 10 Cl 4.967185 -0.176081 1.993270 0
M  V30 11 N 0.656052 0.193177 1.655755 0
M  V30 12 C 0.461376 1.059066 2.789706 0
M  V30 13 C -0.275380 2.228509 2.684810 0
M  V30 14 C -0.458748 3.057860 3.781612 0
M  V30 15 C 0.113654 2.684875 4.980364 0
M  V30 16 F -0.064462 3.486912 6.038292 0
M  V30 17 C 0.840056 1.526359 5.072288 0
M  V30 18 C 1.040739 0.677672 3.994944 0
M  V30 19 C -0.159341 -0.902566 1.230977 0
M  V30 20 C 0.081841 -2.171079 1.695151 0
M  V30 21 C -0.760807 -3.158076 1.225228 0
M  V30 22 N -1.753674 -2.856218 0.360185 0
M  V30 23 C -1.978980 -1.608471 -0.086768 0
M  V30 24 N -3.028369 -1.318834 -0.994831 0
M  V30 25 C -3.880832 -2.421053 -1.448162 0
M  V30 26 C -4.545459 -3.034386 -0.270390 0
M  V30 27 C -4.558739 -4.535997 -0.269745 0
M  V30 28 O -4.514355 -5.058103 -1.575896 0
M  V30 29 C -3.212235 -4.791228 -2.012185 0
M  V30 30 C -3.145710 -3.343114 -2.354280 0
M  V30 31 N -1.156014 -0.673961 0.378433 0
M  V30 32 H 2.595121 2.099297 1.899603 0
M  V30 33 H 2.953151 2.865945 -1.199969 0
M  V30 34 H 5.003770 2.921419 -2.646847 0
M  V30 35 H 7.010095 1.565554 -1.961134 0
M  V30 36 H 6.963479 0.238411 0.047549 0
M  V30 37 H -0.673866 2.413882 1.695277 0
M  V30 38 H -1.046925 3.950270 3.611928 0
M  V30 39 H 1.278291 1.255783 6.021376 0
M  V30 40 H 1.608530 -0.231868 4.058482 0
M  V30 41 H 0.871491 -2.393045 2.379304 0
M  V30 42 H -0.607890 -4.173773 1.564467 0
M  V30 43 H -3.146961 -0.322288 -1.302361 0
M  V30 44 H -4.679654 -1.922662 -2.073342 0
M  V30 45 H -5.625828 -2.714415 -0.186408 0
M  V30 46 H -4.105132 -2.705030 0.694046 0
M  V30 47 H -3.640805 -4.920935 0.234155 0
M  V30 48 H -5.454519 -4.925437 0.219317 0
M  V30 49 H -2.473611 -5.058225 -1.212269 0
M  V30 50 H -3.007257 -5.399562 -2.915344 0
M  V30 51 H -2.054541 -3.056310 -2.400849 0
M  V30 52 H -3.469813 -3.254196 -3.431920 0
M  V30 END ATOM
M  V30 BEGIN BOND
M  V30 1 2 1 2
M  V30 2 1 2 3
M  V30 3 1 3 4
M  V30 4 2 4 5
M  V30 5 1 5 6
M  V30 6 2 6 7
M  V30 7 1 7 8
M  V30 8 2 8 9
M  V30 9 1 9 10
M  V30 10 1 2 11
M  V30 11 1 11 12
M  V30 12 2 12 13
M  V30 13 1 13 14
M  V30 14 2 14 15
M  V30 15 1 15 16
M  V30 16 1 15 17
M  V30 17 2 17 18
M  V30 18 1 11 19
M  V30 19 2 19 20
M  V30 20 1 20 21
M  V30 21 2 21 22
M  V30 22 1 22 23
M  V30 23 1 23 24
M  V30 24 1 24 25
M  V30 25 1 25 26
M  V30 26 1 26 27
M  V30 27 1 27 28
M  V30 28 1 28 29
M  V30 29 1 29 30
M  V30 30 2 23 31
M  V30 31 1 9 4
M  V30 32 1 18 12
M  V30 33 1 31 19
M  V30 34 1 30 25
M  V30 35 1 3 32
M  V30 36 1 5 33
M  V30 37 1 6 34
M  V30 38 1 7 35
M  V30 39 1 8 36
M  V30 40 1 13 37
M  V30 41 1 14 38
M  V30 42 1 17 39
M  V30 43 1 18 40
M  V30 44 1 20 41
M  V30 45 1 21 42
M  V30 46 1 24 43
M  V30 47 1 25 44
M  V30 48 1 26 45
M  V30 49 1 26 46
M  V30 50 1 27 47
M  V30 51 1 27 48
M  V30 52 1 29 49
M  V30 53 1 29 50
M  V30 54 1 30 51
M  V30 55 1 30 52
M  V30 END BOND
M  V30 END CTAB
M  END
>  <Dataset>  (136) 
ChEMBL_Kinases

>  <Ligand_Instance>  (136) 
nan

>  <PDB_ID>  (136) 
nan

>  <Standardized_SMILES>  (136) 
O=C(Nc1ccccc1Cl)N(c1ccc(F)cc1)c1ccnc(NC2CCOCC2)n1

>  <Name>  (136) 
nan

>  <Pocket>  (136) 
nan

>  <ATP_Site>  (136) 
nan

>  <Peripheral>  (136) 
nan

>  <Num_H_Atoms_ProtBoundConf>  (136) 
nan

>  <Num_Resolved_Atoms>  (136) 
nan

>  <Num_Not_Resolved_Atoms>  (136) 
nan

$$$$
CHEMBL209281
     RDKit          3D

  0  0  0  0  0  0  0  0  0  0999 V3000
M  V30 BEGIN CTAB
M  V30 COUNTS 63 69 0 0 0
M  V30 BEGIN ATOM
M  V30 1 O 4.884284 4.541168 5.640121 0
M  V30 2 C 4.456634 3.553483 4.777729 0
M  V30 3 N 5.350050 2.663010 4.281408 0
M  V30 4 C 4.652252 1.835445 3.484434 0
M  V30 5 C 5.020631 0.746246 2.718414 0
M  V30 6 C 4.011824 0.124146 2.013240 0
M  V30 7 C 2.689880 0.503403 2.017351 0
M  V30 8 N 1.655175 -0.131981 1.288031 0
M  V30 9 C 1.678228 -1.248937 0.382540 0 CFG=2
M  V30 10 C 2.297659 -0.959406 -0.952790 0
M  V30 11 O 1.746723 0.006185 -1.732506 0
M  V30 12 C 0.607463 0.270951 -2.360453 0
M  V30 13 C 0.791210 1.527439 -2.974055 0
M  V30 14 N -0.175413 2.147772 -3.725759 0
M  V30 15 C -1.377909 1.518421 -3.889650 0
M  V30 16 C -1.626424 0.291445 -3.319951 0
M  V30 17 C -2.865494 -0.457564 -3.432446 0
M  V30 18 C -2.818379 -1.853471 -3.412356 0
M  V30 19 C -3.923593 -2.672577 -3.510460 0
M  V30 20 C -5.166773 -2.085125 -3.637759 0
M  V30 21 N -6.407844 -2.575047 -3.752837 0
M  V30 22 C -7.250202 -1.509197 -3.846561 0
M  V30 23 O -8.621045 -1.712447 -3.977389 0
M  V30 24 O -6.543614 -0.419315 -3.790035 0
M  V30 25 C -5.252572 -0.709984 -3.661427 0
M  V30 26 C -4.121084 0.089969 -3.560452 0
M  V30 27 C -0.614108 -0.275698 -2.578586 0
M  V30 28 C 0.439435 -2.072968 0.375187 0
M  V30 29 C 0.111632 -2.714517 1.671999 0
M  V30 30 C 0.571778 -4.033194 1.814341 0
M  V30 31 N 0.261145 -4.502954 3.032890 0
M  V30 32 C -0.394342 -3.547605 3.719718 0
M  V30 33 C -0.981261 -3.358818 4.959288 0
M  V30 34 C -1.600406 -2.163507 5.302187 0
M  V30 35 C -1.658062 -1.102341 4.413615 0
M  V30 36 C -1.080514 -1.273983 3.181451 0
M  V30 37 C -0.483390 -2.456715 2.882845 0
M  V30 38 C 2.367368 1.593107 2.793907 0
M  V30 39 C 3.337427 2.250110 3.518031 0
M  V30 40 O 3.258941 3.290983 4.310338 0
M  V30 41 H 5.492867 4.377466 6.434052 0
M  V30 42 H 6.053499 0.392456 2.670485 0
M  V30 43 H 4.322802 -0.719398 1.434869 0
M  V30 44 H 0.686193 0.225231 1.355051 0
M  V30 45 H 2.468879 -1.986355 0.851070 0
M  V30 46 H 2.489738 -1.935051 -1.495429 0
M  V30 47 H 3.358992 -0.629101 -0.710906 0
M  V30 48 H 1.640845 2.222512 -2.996147 0
M  V30 49 H -2.201737 1.922313 -4.461400 0
M  V30 50 H -1.876046 -2.408460 -3.314750 0
M  V30 51 H -3.865481 -3.736718 -3.492769 0
M  V30 52 H -9.098344 -2.487420 -3.516549 0
M  V30 53 H -4.194984 1.174261 -3.579859 0
M  V30 54 H -0.705541 -1.229059 -2.109647 0
M  V30 55 H -0.408343 -1.321027 0.207613 0
M  V30 56 H 0.346733 -2.747761 -0.477645 0
M  V30 57 H 1.102684 -4.724021 1.176612 0
M  V30 58 H 0.420816 -5.410085 3.517240 0
M  V30 59 H -0.922355 -4.215729 5.647175 0
M  V30 60 H -2.026997 -2.128211 6.302074 0
M  V30 61 H -2.154052 -0.205994 4.745778 0
M  V30 62 H -1.163686 -0.427199 2.522225 0
M  V30 63 H 1.350744 1.948851 2.847561 0
M  V30 END ATOM
M  V30 BEGIN BOND
M  V30 1 1 1 2
M  V30 2 2 2 3
M  V30 3 1 3 4
M  V30 4 2 4 5
M  V30 5 1 5 6
M  V30 6 2 6 7
M  V30 7 1 7 8
M  V30 8 1 8 9
M  V30 9 1 9 10
M  V30 10 1 10 11
M  V30 11 1 11 12
M  V30 12 2 12 13
M  V30 13 1 13 14
M  V30 14 2 14 15
M  V30 15 1 15 16
M  V30 16 1 16 17
M  V30 17 2 17 18
M  V30 18 1 18 19
M  V30 19 2 19 20
M  V30 20 1 20 21
M  V30 21 2 21 22
M  V30 22 1 22 23
M  V30 23 1 22 24
M  V30 24 1 24 25
M  V30 25 2 25 26
M  V30 26 2 16 27
M  V30 27 1 9 28
M  V30 28 1 28 29
M  V30 29 2 29 30
M  V30 30 1 30 31
M  V30 31 1 31 32
M  V30 32 2 32 33
M  V30 33 1 33 34
M  V30 34 2 34 35
M  V30 35 1 35 36
M  V30 36 2 36 37
M  V30 37 1 7 38
M  V30 38 2 38 39
M  V30 39 1 39 40
M  V30 40 1 40 2
M  V30 41 1 39 4
M  V30 42 1 27 12
M  V30 43 1 37 29
M  V30 44 1 26 17
M  V30 45 1 37 32
M  V30 46 1 25 20
M  V30 47 1 1 41
M  V30 48 1 5 42
M  V30 49 1 6 43
M  V30 50 1 8 44
M  V30 51 1 9 45 CFG=1
M  V30 52 1 10 46
M  V30 53 1 10 47
M  V30 54 1 13 48
M  V30 55 1 15 49
M  V30 56 1 18 50
M  V30 57 1 19 51
M  V30 58 1 23 52
M  V30 59 1 26 53
M  V30 60 1 27 54
M  V30 61 1 28 55
M  V30 62 1 28 56
M  V30 63 1 30 57
M  V30 64 1 31 58
M  V30 65 1 33 59
M  V30 66 1 34 60
M  V30 67 1 35 61
M  V30 68 1 36 62
M  V30 69 1 38 63
M  V30 END BOND
M  V30 END CTAB
M  END
>  <Dataset>  (137) 
ChEMBL_Kinases

>  <Ligand_Instance>  (137) 
nan

>  <PDB_ID>  (137) 
nan

>  <Standardized_SMILES>  (137) 
Oc1nc2ccc(N[C@H](COc3cncc(-c4ccc5nc(O)oc5c4)c3)Cc3c[nH]c4ccccc34)cc2o1

>  <Name>  (137) 
nan

>  <Pocket>  (137) 
nan

>  <ATP_Site>  (137) 
nan

>  <Peripheral>  (137) 
nan

>  <Num_H_Atoms_ProtBoundConf>  (137) 
nan

>  <Num_Resolved_Atoms>  (137) 
nan

>  <Num_Not_Resolved_Atoms>  (137) 
nan

$$$$
CHEMBL209358
     RDKit          3D

  0  0  0  0  0  0  0  0  0  0999 V3000
M  V30 BEGIN CTAB
M  V30 COUNTS 47 50 0 0 0
M  V30 BEGIN ATOM
M  V30 1 N 0.838791 -4.254538 3.517947 0
M  V30 2 C -0.225190 -4.381707 2.546301 0 CFG=2
M  V30 3 C 0.171113 -3.752291 1.230321 0
M  V30 4 O 0.457375 -2.375723 1.367811 0
M  V30 5 C 0.838969 -1.637895 0.256110 0
M  V30 6 C 0.992305 -2.063705 -1.042556 0
M  V30 7 N 1.372874 -1.202310 -2.003127 0
M  V30 8 C 1.605950 0.082606 -1.698342 0
M  V30 9 C 1.480360 0.607256 -0.427373 0
M  V30 10 C 1.734927 2.009731 -0.095951 0
M  V30 11 C 2.216365 2.255233 1.180175 0
M  V30 12 C 2.470726 3.586249 1.530735 0
M  V30 13 C 2.247584 4.610075 0.632641 0
M  V30 14 C 2.503462 5.929360 0.991146 0
M  V30 15 N 2.296914 6.950745 0.140243 0
M  V30 16 C 1.830020 6.728249 -1.101882 0
M  V30 17 C 1.566067 5.415728 -1.484604 0
M  V30 18 C 1.764792 4.340172 -0.640890 0
M  V30 19 C 1.510868 3.032297 -0.996351 0
M  V30 20 C 1.084138 -0.296905 0.564322 0
M  V30 21 C -1.465380 -3.760440 3.123192 0
M  V30 22 C -2.620247 -3.851716 2.173233 0
M  V30 23 C -2.926551 -2.894002 1.229693 0
M  V30 24 C -3.996105 -3.012392 0.373557 0
M  V30 25 N -4.794253 -4.108971 0.444646 0
M  V30 26 C -4.489023 -5.035739 1.365416 0
M  V30 27 C -3.442227 -4.976310 2.243140 0
M  V30 28 H 0.615448 -4.777146 4.389179 0
M  V30 29 H 0.912375 -3.231934 3.782169 0
M  V30 30 H -0.436364 -5.452395 2.351048 0
M  V30 31 H -0.575694 -3.940664 0.435093 0
M  V30 32 H 1.102873 -4.269299 0.891272 0
M  V30 33 H 0.775851 -3.127333 -1.173390 0
M  V30 34 H 1.913945 0.759116 -2.500612 0
M  V30 35 H 2.421523 1.528697 1.948414 0
M  V30 36 H 2.850651 3.829323 2.524768 0
M  V30 37 H 2.883459 6.086013 2.008629 0
M  V30 38 H 1.660447 7.542857 -1.793655 0
M  V30 39 H 1.192902 5.202794 -2.468569 0
M  V30 40 H 1.138790 2.823842 -1.977849 0
M  V30 41 H 0.987328 0.127857 1.567183 0
M  V30 42 H -1.736549 -4.331014 4.032285 0
M  V30 43 H -1.313217 -2.706588 3.428734 0
M  V30 44 H -2.289872 -2.020847 1.174138 0
M  V30 45 H -4.227456 -2.256045 -0.362391 0
M  V30 46 H -5.094778 -5.939790 1.469985 0
M  V30 47 H -3.216201 -5.734774 2.975613 0
M  V30 END ATOM
M  V30 BEGIN BOND
M  V30 1 1 1 2
M  V30 2 1 2 3
M  V30 3 1 3 4
M  V30 4 1 4 5
M  V30 5 2 5 6
M  V30 6 1 6 7
M  V30 7 2 7 8
M  V30 8 1 8 9
M  V30 9 1 9 10
M  V30 10 2 10 11
M  V30 11 1 11 12
M  V30 12 2 12 13
M  V30 13 1 13 14
M  V30 14 2 14 15
M  V30 15 1 15 16
M  V30 16 2 16 17
M  V30 17 1 17 18
M  V30 18 2 18 19
M  V30 19 2 9 20
M  V30 20 1 2 21
M  V30 21 1 21 22
M  V30 22 2 22 23
M  V30 23 1 23 24
M  V30 24 2 24 25
M  V30 25 1 25 26
M  V30 26 2 26 27
M  V30 27 1 20 5
M  V30 28 1 27 22
M  V30 29 1 19 10
M  V30 30 1 18 13
M  V30 31 1 1 28
M  V30 32 1 1 29
M  V30 33 1 2 30 CFG=3
M  V30 34 1 3 31
M  V30 35 1 3 32
M  V30 36 1 6 33
M  V30 37 1 8 34
M  V30 38 1 11 35
M  V30 39 1 12 36
M  V30 40 1 14 37
M  V30 41 1 16 38
M  V30 42 1 17 39
M  V30 43 1 19 40
M  V30 44 1 20 41
M  V30 45 1 21 42
M  V30 46 1 21 43
M  V30 47 1 23 44
M  V30 48 1 24 45
M  V30 49 1 26 46
M  V30 50 1 27 47
M  V30 END BOND
M  V30 END CTAB
M  END
>  <Dataset>  (138) 
ChEMBL_Kinases

>  <Ligand_Instance>  (138) 
nan

>  <PDB_ID>  (138) 
nan

>  <Standardized_SMILES>  (138) 
N[C@H](COc1cncc(-c2ccc3cnccc3c2)c1)Cc1ccncc1

>  <Name>  (138) 
nan

>  <Pocket>  (138) 
nan

>  <ATP_Site>  (138) 
nan

>  <Peripheral>  (138) 
nan

>  <Num_H_Atoms_ProtBoundConf>  (138) 
nan

>  <Num_Resolved_Atoms>  (138) 
nan

>  <Num_Not_Resolved_Atoms>  (138) 
nan

$$$$
CHEMBL2093989
     RDKit          3D

  0  0  0  0  0  0  0  0  0  0999 V3000
M  V30 BEGIN CTAB
M  V30 COUNTS 54 55 0 0 0
M  V30 BEGIN ATOM
M  V30 1 C 0.673131 -1.100287 4.032068 0
M  V30 2 C 2.116444 -1.454586 4.299149 0
M  V30 3 C 3.000110 -0.446107 3.567128 0
M  V30 4 C 2.652607 -0.577770 2.112276 0
M  V30 5 C 3.399286 0.312822 1.186276 0
M  V30 6 C 4.882234 0.142811 1.174702 0
M  V30 7 C 5.362608 -1.210054 0.786758 0
M  V30 8 C 2.780370 0.190388 -0.161715 0
M  V30 9 O 3.293737 -0.220935 -1.233507 0
M  V30 10 O 1.456506 0.606658 -0.155795 0
M  V30 11 C 0.595246 0.617046 -1.259128 0
M  V30 12 C -0.757457 1.158345 -0.839052 0
M  V30 13 C -0.601764 2.575908 -0.283829 0
M  V30 14 O -1.823958 3.058273 0.172290 0
M  V30 15 C -1.439021 0.318254 0.183295 0
M  V30 16 C -2.395955 -0.508026 -0.606322 0
M  V30 17 C -3.168028 -1.503936 -0.220186 0
M  V30 18 C -4.135322 -2.390770 -0.844898 0
M  V30 19 C -5.048098 -1.842317 -1.711878 0
M  V30 20 C -5.955683 -2.678338 -2.312794 0
M  V30 21 C -5.907957 -4.038416 -2.015260 0
M  V30 22 Cl -7.050450 -5.133219 -2.763346 0
M  V30 23 C -5.001149 -4.614532 -1.147537 0
M  V30 24 F -4.999446 -5.943655 -0.894036 0
M  V30 25 C -4.095647 -3.739657 -0.555904 0
M  V30 26 C -2.335005 -0.046304 -1.979701 0
M  V30 27 O -2.714762 -0.497561 -3.084652 0
M  V30 28 O -1.680648 1.188943 -1.908954 0
M  V30 29 H 0.613453 -0.018768 3.909124 0
M  V30 30 H 0.048206 -1.497347 4.858832 0
M  V30 31 H 0.391534 -1.577790 3.060229 0
M  V30 32 H 2.302949 -1.479185 5.384474 0
M  V30 33 H 2.292995 -2.474736 3.862909 0
M  V30 34 H 2.726408 0.562105 3.949573 0
M  V30 35 H 4.051718 -0.586964 3.801122 0
M  V30 36 H 1.570220 -0.285626 2.020345 0
M  V30 37 H 2.721414 -1.611794 1.752518 0
M  V30 38 H 3.189566 1.369357 1.529613 0
M  V30 39 H 5.349649 0.945669 0.572481 0
M  V30 40 H 5.246261 0.320897 2.221357 0
M  V30 41 H 4.794886 -1.711175 0.004100 0
M  V30 42 H 6.435289 -1.121852 0.441653 0
M  V30 43 H 5.417481 -1.915076 1.666449 0
M  V30 44 H 0.957567 1.215350 -2.094661 0
M  V30 45 H 0.440052 -0.440755 -1.567050 0
M  V30 46 H -0.281269 3.264254 -1.094676 0
M  V30 47 H 0.082791 2.519432 0.570586 0
M  V30 48 H -2.482860 3.121236 -0.590550 0
M  V30 49 H -0.745114 -0.309598 0.775590 0
M  V30 50 H -2.024001 0.985654 0.860279 0
M  V30 51 H -3.068837 -1.734655 0.852230 0
M  V30 52 H -5.164059 -0.812812 -1.992742 0
M  V30 53 H -6.716034 -2.334769 -3.014200 0
M  V30 54 H -3.361234 -4.137481 0.133669 0
M  V30 END ATOM
M  V30 BEGIN BOND
M  V30 1 1 1 2
M  V30 2 1 2 3
M  V30 3 1 3 4
M  V30 4 1 4 5
M  V30 5 1 5 6
M  V30 6 1 6 7
M  V30 7 1 5 8
M  V30 8 2 8 9
M  V30 9 1 8 10
M  V30 10 1 10 11
M  V30 11 1 11 12
M  V30 12 1 12 13
M  V30 13 1 13 14
M  V30 14 1 12 15
M  V30 15 1 15 16
M  V30 16 2 16 17 CFG=2
M  V30 17 1 17 18
M  V30 18 2 18 19
M  V30 19 1 19 20
M  V30 20 2 20 21
M  V30 21 1 21 22
M  V30 22 1 21 23
M  V30 23 1 23 24
M  V30 24 2 23 25
M  V30 25 1 16 26
M  V30 26 2 26 27
M  V30 27 1 26 28
M  V30 28 1 28 12
M  V30 29 1 25 18
M  V30 30 1 1 29
M  V30 31 1 1 30
M  V30 32 1 1 31
M  V30 33 1 2 32
M  V30 34 1 2 33
M  V30 35 1 3 34
M  V30 36 1 3 35
M  V30 37 1 4 36
M  V30 38 1 4 37
M  V30 39 1 5 38
M  V30 40 1 6 39
M  V30 41 1 6 40
M  V30 42 1 7 41
M  V30 43 1 7 42
M  V30 44 1 7 43
M  V30 45 1 11 44
M  V30 46 1 11 45
M  V30 47 1 13 46
M  V30 48 1 13 47
M  V30 49 1 14 48
M  V30 50 1 15 49
M  V30 51 1 15 50
M  V30 52 1 17 51
M  V30 53 1 19 52
M  V30 54 1 20 53
M  V30 55 1 25 54
M  V30 END BOND
M  V30 END CTAB
M  END
>  <Dataset>  (139) 
ChEMBL_Kinases

>  <Ligand_Instance>  (139) 
nan

>  <PDB_ID>  (139) 
nan

>  <Standardized_SMILES>  (139) 
CCCCC(CC)C(=O)OCC1(CO)CC(=Cc2ccc(Cl)c(F)c2)C(=O)O1

>  <Name>  (139) 
nan

>  <Pocket>  (139) 
nan

>  <ATP_Site>  (139) 
nan

>  <Peripheral>  (139) 
nan

>  <Num_H_Atoms_ProtBoundConf>  (139) 
nan

>  <Num_Resolved_Atoms>  (139) 
nan

>  <Num_Not_Resolved_Atoms>  (139) 
nan

$$$$
CHEMBL209013
     RDKit          3D

  0  0  0  0  0  0  0  0  0  0999 V3000
M  V30 BEGIN CTAB
M  V30 COUNTS 60 61 0 0 0
M  V30 BEGIN ATOM
M  V30 1 C 0.367637 1.325624 6.292611 0
M  V30 2 C 0.608434 0.682622 4.930855 0
M  V30 3 C 1.653591 -0.404400 5.045568 0
M  V30 4 C 1.919995 -1.067795 3.728953 0
M  V30 5 C 2.422624 -0.097894 2.663088 0
M  V30 6 C 2.648155 -0.912042 1.407340 0
M  V30 7 C 3.148935 -0.049659 0.263330 0
M  V30 8 C 2.182603 1.018948 -0.073712 0
M  V30 9 C 1.507745 1.299591 -1.169216 0
M  V30 10 C 0.511973 2.314864 -1.674697 0
M  V30 11 C -0.410027 1.399323 -2.441771 0
M  V30 12 C -1.331220 2.081222 -3.390206 0
M  V30 13 O -0.608671 2.897423 -4.292806 0
M  V30 14 C -1.191954 0.491051 -1.519580 0
M  V30 15 O -1.813985 -0.460302 -2.343499 0
M  V30 16 C -2.622430 -1.478220 -1.871094 0
M  V30 17 O -2.535890 -1.184355 -0.663882 0
M  V30 18 C -3.328040 -2.540403 -2.631747 0
M  V30 19 C -2.407994 -3.767410 -2.545963 0
M  V30 20 C -2.181516 -4.175464 -1.158240 0
M  V30 21 C -1.075847 -3.580895 -0.537327 0
M  V30 22 C -0.784511 -3.909636 0.792248 0
M  V30 23 C -1.544659 -4.791899 1.503027 0
M  V30 24 C -2.644751 -5.378482 0.871263 0
M  V30 25 C -2.946795 -5.066964 -0.436051 0
M  V30 26 O 0.520668 0.568293 -3.139912 0
M  V30 27 C 1.679748 0.428657 -2.346677 0
M  V30 28 O 2.659711 -0.309270 -2.620928 0
M  V30 29 H 0.957186 2.252487 6.380180 0
M  V30 30 H -0.715347 1.527166 6.450273 0
M  V30 31 H 0.691765 0.635960 7.119519 0
M  V30 32 H -0.348652 0.273067 4.584659 0
M  V30 33 H 1.024317 1.476663 4.260018 0
M  V30 34 H 2.584227 -0.039018 5.500930 0
M  V30 35 H 1.196241 -1.200277 5.701465 0
M  V30 36 H 0.981026 -1.554288 3.414303 0
M  V30 37 H 2.658784 -1.868852 3.860056 0
M  V30 38 H 1.671960 0.706923 2.491069 0
M  V30 39 H 3.362812 0.367933 3.005598 0
M  V30 40 H 1.735045 -1.464932 1.186305 0
M  V30 41 H 3.500004 -1.606093 1.662905 0
M  V30 42 H 3.504685 -0.644523 -0.566261 0
M  V30 43 H 4.056922 0.486995 0.675983 0
M  V30 44 H 1.951031 1.750161 0.719292 0
M  V30 45 H 0.034097 2.878092 -0.870761 0
M  V30 46 H 1.030277 2.933118 -2.409162 0
M  V30 47 H -1.851039 1.355605 -4.051537 0
M  V30 48 H -2.124152 2.670997 -2.904801 0
M  V30 49 H -1.298232 3.199131 -4.964203 0
M  V30 50 H -1.950973 1.050118 -0.931409 0
M  V30 51 H -0.483966 0.024286 -0.792905 0
M  V30 52 H -3.324423 -2.199711 -3.689264 0
M  V30 53 H -4.331996 -2.747755 -2.243654 0
M  V30 54 H -2.852300 -4.557349 -3.171814 0
M  V30 55 H -1.461533 -3.481717 -3.049479 0
M  V30 56 H -0.401209 -2.868484 -1.003753 0
M  V30 57 H 0.070339 -3.449005 1.271510 0
M  V30 58 H -1.268120 -5.001919 2.521760 0
M  V30 59 H -3.256596 -6.078434 1.416270 0
M  V30 60 H -3.789036 -5.503839 -0.949202 0
M  V30 END ATOM
M  V30 BEGIN BOND
M  V30 1 1 1 2
M  V30 2 1 2 3
M  V30 3 1 3 4
M  V30 4 1 4 5
M  V30 5 1 5 6
M  V30 6 1 6 7
M  V30 7 1 7 8
M  V30 8 2 8 9
M  V30 9 1 9 10
M  V30 10 1 10 11
M  V30 11 1 11 12
M  V30 12 1 12 13
M  V30 13 1 11 14
M  V30 14 1 14 15
M  V30 15 1 15 16
M  V30 16 2 16 17
M  V30 17 1 16 18
M  V30 18 1 18 19
M  V30 19 1 19 20
M  V30 20 2 20 21
M  V30 21 1 21 22
M  V30 22 2 22 23
M  V30 23 1 23 24
M  V30 24 2 24 25
M  V30 25 1 11 26
M  V30 26 1 26 27
M  V30 27 2 27 28
M  V30 28 1 27 9
M  V30 29 1 25 20
M  V30 30 1 1 29
M  V30 31 1 1 30
M  V30 32 1 1 31
M  V30 33 1 2 32
M  V30 34 1 2 33
M  V30 35 1 3 34
M  V30 36 1 3 35
M  V30 37 1 4 36
M  V30 38 1 4 37
M  V30 39 1 5 38
M  V30 40 1 5 39
M  V30 41 1 6 40
M  V30 42 1 6 41
M  V30 43 1 7 42
M  V30 44 1 7 43
M  V30 45 1 8 44
M  V30 46 1 10 45
M  V30 47 1 10 46
M  V30 48 1 12 47
M  V30 49 1 12 48
M  V30 50 1 13 49
M  V30 51 1 14 50
M  V30 52 1 14 51
M  V30 53 1 18 52
M  V30 54 1 18 53
M  V30 55 1 19 54
M  V30 56 1 19 55
M  V30 57 1 21 56
M  V30 58 1 22 57
M  V30 59 1 23 58
M  V30 60 1 24 59
M  V30 61 1 25 60
M  V30 END BOND
M  V30 END CTAB
M  END
>  <Dataset>  (140) 
ChEMBL_Kinases

>  <Ligand_Instance>  (140) 
nan

>  <PDB_ID>  (140) 
nan

>  <Standardized_SMILES>  (140) 
CCCCCCC/C=C1/CC(CO)(COC(=O)CCc2ccccc2)OC1=O

>  <Name>  (140) 
nan

>  <Pocket>  (140) 
nan

>  <ATP_Site>  (140) 
nan

>  <Peripheral>  (140) 
nan

>  <Num_H_Atoms_ProtBoundConf>  (140) 
nan

>  <Num_Resolved_Atoms>  (140) 
nan

>  <Num_Not_Resolved_Atoms>  (140) 
nan

$$$$
CHEMBL207995
     RDKit          3D

  0  0  0  0  0  0  0  0  0  0999 V3000
M  V30 BEGIN CTAB
M  V30 COUNTS 33 34 0 0 0
M  V30 BEGIN ATOM
M  V30 1 C 0.292882 -3.130558 3.552255 0
M  V30 2 O 0.354398 -1.904302 2.850415 0
M  V30 3 C 1.533119 -1.467084 2.264949 0
M  V30 4 C 2.722936 -2.173525 2.314193 0
M  V30 5 C 3.835907 -1.636921 1.692341 0
M  V30 6 C 5.072403 -2.408090 1.764170 0
M  V30 7 O 5.275388 -3.505332 2.317349 0
M  V30 8 C 3.829598 -0.426231 1.018853 0
M  V30 9 Cl 5.282846 0.200663 0.248033 0
M  V30 10 C 2.634977 0.290401 0.965316 0
M  V30 11 C 1.530501 -0.265914 1.595700 0
M  V30 12 N 0.335476 0.539058 1.493008 0
M  V30 13 C -0.524100 0.321821 0.388017 0
M  V30 14 O -0.171291 -0.563516 -0.420433 0
M  V30 15 N -1.720077 0.993031 0.111220 0
M  V30 16 C -2.629396 0.840130 -0.958096 0
M  V30 17 C -2.546344 -0.034853 -2.011586 0
M  V30 18 N -3.479864 -0.091339 -2.979243 0
M  V30 19 C -4.563960 0.728110 -2.956876 0
M  V30 20 C -5.549300 0.654565 -3.996254 0
M  V30 21 N -6.357167 0.605376 -4.823062 0
M  V30 22 C -4.659696 1.611699 -1.904393 0
M  V30 23 N -3.707319 1.635622 -0.960836 0
M  V30 24 H 1.142999 -3.254473 4.263296 0
M  V30 25 H -0.656916 -3.219319 4.089655 0
M  V30 26 H 0.362350 -3.957068 2.800669 0
M  V30 27 H 2.748117 -3.121657 2.835759 0
M  V30 28 H 5.984003 -2.033173 1.290901 0
M  V30 29 H 2.607906 1.228732 0.449762 0
M  V30 30 H 0.049935 1.279671 2.178473 0
M  V30 31 H -1.889173 1.695074 0.858327 0
M  V30 32 H -1.705640 -0.701924 -2.069860 0
M  V30 33 H -5.494519 2.289252 -1.826916 0
M  V30 END ATOM
M  V30 BEGIN BOND
M  V30 1 1 1 2
M  V30 2 1 2 3
M  V30 3 2 3 4
M  V30 4 1 4 5
M  V30 5 1 5 6
M  V30 6 2 6 7
M  V30 7 2 5 8
M  V30 8 1 8 9
M  V30 9 1 8 10
M  V30 10 2 10 11
M  V30 11 1 11 12
M  V30 12 1 12 13
M  V30 13 2 13 14
M  V30 14 1 13 15
M  V30 15 1 15 16
M  V30 16 2 16 17
M  V30 17 1 17 18
M  V30 18 2 18 19
M  V30 19 1 19 20
M  V30 20 3 20 21
M  V30 21 1 19 22
M  V30 22 2 22 23
M  V30 23 1 11 3
M  V30 24 1 23 16
M  V30 25 1 1 24
M  V30 26 1 1 25
M  V30 27 1 1 26
M  V30 28 1 4 27
M  V30 29 1 6 28
M  V30 30 1 10 29
M  V30 31 1 12 30
M  V30 32 1 15 31
M  V30 33 1 17 32
M  V30 34 1 22 33
M  V30 END BOND
M  V30 END CTAB
M  END
>  <Dataset>  (141) 
ChEMBL_Kinases

>  <Ligand_Instance>  (141) 
nan

>  <PDB_ID>  (141) 
nan

>  <Standardized_SMILES>  (141) 
COc1cc(C=O)c(Cl)cc1NC(=O)Nc1cnc(C#N)cn1

>  <Name>  (141) 
nan

>  <Pocket>  (141) 
nan

>  <ATP_Site>  (141) 
nan

>  <Peripheral>  (141) 
nan

>  <Num_H_Atoms_ProtBoundConf>  (141) 
nan

>  <Num_Resolved_Atoms>  (141) 
nan

>  <Num_Not_Resolved_Atoms>  (141) 
nan

$$$$
CHEMBL207994
     RDKit          3D

  0  0  0  0  0  0  0  0  0  0999 V3000
M  V30 BEGIN CTAB
M  V30 COUNTS 35 36 0 0 0
M  V30 BEGIN ATOM
M  V30 1 C 1.112984 -5.991846 2.891394 0
M  V30 2 O -0.000112 -5.121583 2.678810 0
M  V30 3 C 0.163169 -3.880111 2.104038 0
M  V30 4 C 1.389966 -3.408851 1.705263 0
M  V30 5 C 1.538395 -2.165660 1.132032 0
M  V30 6 O 2.823883 -1.743299 0.745799 0
M  V30 7 C 3.935732 -2.593784 0.949817 0
M  V30 8 C 0.492612 -1.322961 0.921205 0
M  V30 9 N 0.690004 -0.051677 0.327986 0
M  V30 10 C -0.209769 0.967582 0.016271 0
M  V30 11 O -1.417066 0.805366 0.275052 0
M  V30 12 N 0.159642 2.199743 -0.586252 0
M  V30 13 C -0.840691 3.179420 -0.864970 0
M  V30 14 C -1.199819 4.156674 0.043120 0
M  V30 15 N -2.147928 5.069004 -0.247392 0
M  V30 16 C -2.787220 5.055763 -1.456139 0
M  V30 17 C -3.800417 6.023747 -1.777929 0
M  V30 18 N -4.619316 6.825760 -2.027460 0
M  V30 19 C -2.435394 4.082319 -2.371642 0
M  V30 20 N -1.482840 3.180998 -2.055124 0
M  V30 21 C -0.721177 -1.824920 1.331548 0
M  V30 22 C -0.922309 -3.053458 1.906465 0
M  V30 23 Cl -2.504103 -3.616147 2.400745 0
M  V30 24 H 0.827853 -6.809227 3.584048 0
M  V30 25 H 1.956696 -5.453397 3.376099 0
M  V30 26 H 1.409740 -6.497513 1.942807 0
M  V30 27 H 2.288839 -4.004267 1.829426 0
M  V30 28 H 3.969042 -2.755787 2.064584 0
M  V30 29 H 4.852659 -2.093567 0.635239 0
M  V30 30 H 3.722975 -3.531411 0.436194 0
M  V30 31 H 1.680428 0.202461 0.062075 0
M  V30 32 H 1.184078 2.363946 -0.817582 0
M  V30 33 H -0.688116 4.162848 1.003573 0
M  V30 34 H -2.904026 4.018375 -3.345154 0
M  V30 35 H -1.624230 -1.245993 1.215343 0
M  V30 END ATOM
M  V30 BEGIN BOND
M  V30 1 1 1 2
M  V30 2 1 2 3
M  V30 3 2 3 4
M  V30 4 1 4 5
M  V30 5 1 5 6
M  V30 6 1 6 7
M  V30 7 2 5 8
M  V30 8 1 8 9
M  V30 9 1 9 10
M  V30 10 2 10 11
M  V30 11 1 10 12
M  V30 12 1 12 13
M  V30 13 2 13 14
M  V30 14 1 14 15
M  V30 15 2 15 16
M  V30 16 1 16 17
M  V30 17 3 17 18
M  V30 18 1 16 19
M  V30 19 2 19 20
M  V30 20 1 8 21
M  V30 21 2 21 22
M  V30 22 1 22 23
M  V30 23 1 22 3
M  V30 24 1 20 13
M  V30 25 1 1 24
M  V30 26 1 1 25
M  V30 27 1 1 26
M  V30 28 1 4 27
M  V30 29 1 7 28
M  V30 30 1 7 29
M  V30 31 1 7 30
M  V30 32 1 9 31
M  V30 33 1 12 32
M  V30 34 1 14 33
M  V30 35 1 19 34
M  V30 36 1 21 35
M  V30 END BOND
M  V30 END CTAB
M  END
>  <Dataset>  (142) 
ChEMBL_Kinases

>  <Ligand_Instance>  (142) 
nan

>  <PDB_ID>  (142) 
nan

>  <Standardized_SMILES>  (142) 
COc1cc(OC)c(NC(=O)Nc2cnc(C#N)cn2)cc1Cl

>  <Name>  (142) 
nan

>  <Pocket>  (142) 
nan

>  <ATP_Site>  (142) 
nan

>  <Peripheral>  (142) 
nan

>  <Num_H_Atoms_ProtBoundConf>  (142) 
nan

>  <Num_Resolved_Atoms>  (142) 
nan

>  <Num_Not_Resolved_Atoms>  (142) 
nan

$$$$
CHEMBL207987
     RDKit          3D

  0  0  0  0  0  0  0  0  0  0999 V3000
M  V30 BEGIN CTAB
M  V30 COUNTS 24 25 0 0 0
M  V30 BEGIN ATOM
M  V30 1 N 1.322663 0.137029 4.823872 0
M  V30 2 C 1.987750 -0.771053 3.960967 0
M  V30 3 O 2.867092 -1.566066 4.378895 0
M  V30 4 C 1.640930 -0.784660 2.538744 0
M  V30 5 N 0.729467 -0.007779 1.924336 0
M  V30 6 C 0.706709 -0.323946 0.619370 0
M  V30 7 C -0.133653 0.271005 -0.413375 0
M  V30 8 C -0.026993 -0.177043 -1.713916 0
M  V30 9 C -0.792383 0.342536 -2.740141 0
M  V30 10 C -1.697235 1.346347 -2.456318 0
M  V30 11 C -1.777234 1.769355 -1.146707 0
M  V30 12 C -1.028637 1.272677 -0.098803 0
M  V30 13 O 1.581495 -1.272387 0.429577 0
M  V30 14 C 2.175731 -1.590027 1.555935 0
M  V30 15 N 3.187435 -2.554577 1.845015 0
M  V30 16 H 0.358628 0.166323 5.228185 0
M  V30 17 H 0.436899 0.368829 5.330119 0
M  V30 18 H 0.685886 -0.971518 -1.951520 0
M  V30 19 H -0.714780 -0.006999 -3.776884 0
M  V30 20 H -2.309734 1.777517 -3.218468 0
M  V30 21 H -2.483261 2.564221 -0.880584 0
M  V30 22 H -1.125425 1.635249 0.912228 0
M  V30 23 H 3.087004 -3.372681 2.509643 0
M  V30 24 H 4.173786 -2.660605 1.493843 0
M  V30 END ATOM
M  V30 BEGIN BOND
M  V30 1 1 1 2
M  V30 2 2 2 3
M  V30 3 1 2 4
M  V30 4 1 4 5
M  V30 5 2 5 6
M  V30 6 1 6 7
M  V30 7 2 7 8
M  V30 8 1 8 9
M  V30 9 2 9 10
M  V30 10 1 10 11
M  V30 11 2 11 12
M  V30 12 1 6 13
M  V30 13 1 13 14
M  V30 14 1 14 15
M  V30 15 2 14 4
M  V30 16 1 12 7
M  V30 17 1 1 16
M  V30 18 1 1 17
M  V30 19 1 8 18
M  V30 20 1 9 19
M  V30 21 1 10 20
M  V30 22 1 11 21
M  V30 23 1 12 22
M  V30 24 1 15 23
M  V30 25 1 15 24
M  V30 END BOND
M  V30 END CTAB
M  END
>  <Dataset>  (143) 
ChEMBL_Kinases

>  <Ligand_Instance>  (143) 
nan

>  <PDB_ID>  (143) 
nan

>  <Standardized_SMILES>  (143) 
NC(=O)c1nc(-c2ccccc2)oc1N

>  <Name>  (143) 
nan

>  <Pocket>  (143) 
nan

>  <ATP_Site>  (143) 
nan

>  <Peripheral>  (143) 
nan

>  <Num_H_Atoms_ProtBoundConf>  (143) 
nan

>  <Num_Resolved_Atoms>  (143) 
nan

>  <Num_Not_Resolved_Atoms>  (143) 
nan

$$$$
CHEMBL207971
     RDKit          3D

  0  0  0  0  0  0  0  0  0  0999 V3000
M  V30 BEGIN CTAB
M  V30 COUNTS 53 57 0 0 0
M  V30 BEGIN ATOM
M  V30 1 C 1.133415 -2.706481 6.334633 0
M  V30 2 N 1.625007 -2.391206 5.019081 0
M  V30 3 C 2.789825 -3.167942 4.654387 0
M  V30 4 C 2.876285 -3.059578 3.145440 0
M  V30 5 C 3.039660 -1.654176 2.689981 0
M  V30 6 C 2.020622 -1.229499 1.685772 0
M  V30 7 C 2.515121 -0.600659 0.540807 0
M  V30 8 C 1.651569 -0.166417 -0.468874 0
M  V30 9 N 0.314859 -0.354038 -0.343448 0
M  V30 10 C -0.759164 -0.052238 -1.130632 0
M  V30 11 C -0.606338 0.618877 -2.417288 0
M  V30 12 C -0.024294 1.875615 -2.346432 0
M  V30 13 C 0.167281 2.601048 -3.508811 0
M  V30 14 N -0.221239 2.061656 -4.695820 0
M  V30 15 C -0.793078 0.825724 -4.761093 0
M  V30 16 N -1.202280 0.256569 -6.006314 0
M  V30 17 N -0.979946 0.119583 -3.632759 0
M  V30 18 C -1.915272 -0.476870 -0.506861 0
M  V30 19 C -3.270961 -0.338130 -1.025158 0
M  V30 20 C -3.768170 -0.902511 -2.175059 0
M  V30 21 C -5.094390 -0.681095 -2.547481 0
M  V30 22 C -5.900654 0.107134 -1.753873 0
M  V30 23 F -7.177879 0.264617 -2.199493 0
M  V30 24 C -5.403910 0.685220 -0.582957 0
M  V30 25 C -4.087839 0.462138 -0.218554 0
M  V30 26 N -1.518565 -1.032351 0.655382 0
M  V30 27 C -0.178118 -0.958349 0.753339 0
M  V30 28 C 0.658877 -1.393552 1.759892 0
M  V30 29 C 3.088882 -0.742635 3.892563 0
M  V30 30 C 1.942205 -1.000986 4.834048 0
M  V30 31 H 0.663582 -3.710247 6.301429 0
M  V30 32 H 0.306637 -1.979199 6.538486 0
M  V30 33 H 1.890645 -2.686241 7.127281 0
M  V30 34 H 3.711049 -2.854458 5.164929 0
M  V30 35 H 2.595008 -4.234101 4.896687 0
M  V30 36 H 3.640473 -3.750113 2.726667 0
M  V30 37 H 1.883651 -3.458485 2.782522 0
M  V30 38 H 4.060838 -1.517569 2.205313 0
M  V30 39 H 3.578876 -0.402267 0.344542 0
M  V30 40 H 2.051327 0.323774 -1.358996 0
M  V30 41 H 0.299256 2.335625 -1.399513 0
M  V30 42 H 0.619609 3.575226 -3.444653 0
M  V30 43 H -2.252435 0.396182 -6.107911 0
M  V30 44 H -0.557071 -0.217050 -6.693714 0
M  V30 45 H -3.078744 -1.508653 -2.747914 0
M  V30 46 H -5.407329 -1.158945 -3.462496 0
M  V30 47 H -6.104904 1.298668 -0.004805 0
M  V30 48 H -3.762056 0.943036 0.708237 0
M  V30 49 H 0.284486 -1.873151 2.625077 0
M  V30 50 H 3.022093 0.333872 3.596458 0
M  V30 51 H 4.073026 -0.834265 4.396554 0
M  V30 52 H 2.101956 -0.506544 5.818357 0
M  V30 53 H 1.044583 -0.498542 4.410647 0
M  V30 END ATOM
M  V30 BEGIN BOND
M  V30 1 1 1 2
M  V30 2 1 2 3
M  V30 3 1 3 4
M  V30 4 1 4 5
M  V30 5 1 5 6
M  V30 6 1 6 7
M  V30 7 2 7 8
M  V30 8 1 8 9
M  V30 9 1 9 10
M  V30 10 1 10 11
M  V30 11 2 11 12
M  V30 12 1 12 13
M  V30 13 2 13 14
M  V30 14 1 14 15
M  V30 15 1 15 16
M  V30 16 2 15 17
M  V30 17 2 10 18
M  V30 18 1 18 19
M  V30 19 2 19 20
M  V30 20 1 20 21
M  V30 21 2 21 22
M  V30 22 1 22 23
M  V30 23 1 22 24
M  V30 24 2 24 25
M  V30 25 1 18 26
M  V30 26 2 26 27
M  V30 27 1 27 28
M  V30 28 1 5 29
M  V30 29 1 29 30
M  V30 30 1 30 2
M  V30 31 2 28 6
M  V30 32 1 27 9
M  V30 33 1 17 11
M  V30 34 1 25 19
M  V30 35 1 1 31
M  V30 36 1 1 32
M  V30 37 1 1 33
M  V30 38 1 3 34
M  V30 39 1 3 35
M  V30 40 1 4 36
M  V30 41 1 4 37
M  V30 42 1 5 38
M  V30 43 1 7 39
M  V30 44 1 8 40
M  V30 45 1 12 41
M  V30 46 1 13 42
M  V30 47 1 16 43
M  V30 48 1 16 44
M  V30 49 1 20 45
M  V30 50 1 21 46
M  V30 51 1 24 47
M  V30 52 1 25 48
M  V30 53 1 28 49
M  V30 54 1 29 50
M  V30 55 1 29 51
M  V30 56 1 30 52
M  V30 57 1 30 53
M  V30 END BOND
M  V30 END CTAB
M  END
>  <Dataset>  (144) 
ChEMBL_Kinases

>  <Ligand_Instance>  (144) 
nan

>  <PDB_ID>  (144) 
nan

>  <Standardized_SMILES>  (144) 
CN1CCC(c2ccn3c(-c4ccnc(N)n4)c(-c4ccc(F)cc4)nc3c2)CC1

>  <Name>  (144) 
nan

>  <Pocket>  (144) 
nan

>  <ATP_Site>  (144) 
nan

>  <Peripheral>  (144) 
nan

>  <Num_H_Atoms_ProtBoundConf>  (144) 
nan

>  <Num_Resolved_Atoms>  (144) 
nan

>  <Num_Not_Resolved_Atoms>  (144) 
nan

$$$$
CHEMBL207940
     RDKit          3D

  0  0  0  0  0  0  0  0  0  0999 V3000
M  V30 BEGIN CTAB
M  V30 COUNTS 28 29 0 0 0
M  V30 BEGIN ATOM
M  V30 1 N 1.972232 -3.259595 3.316317 0
M  V30 2 C 1.325265 -2.009470 3.500843 0
M  V30 3 O 1.390108 -1.904689 4.736436 0
M  V30 4 C 0.703715 -0.996353 2.657193 0
M  V30 5 C 0.665311 -1.170758 1.290313 0
M  V30 6 C 0.045144 -0.142673 0.570009 0
M  V30 7 C -0.032718 -0.261541 -0.902310 0
M  V30 8 C -1.097524 0.285807 -1.600180 0
M  V30 9 C -1.083669 0.124957 -2.954250 0
M  V30 10 C -0.092233 -0.535993 -3.646273 0
M  V30 11 C 0.917419 -1.043451 -2.883069 0
M  V30 12 C 1.020094 -0.948877 -1.510237 0
M  V30 13 C -0.487719 0.968277 1.215416 0
M  V30 14 C -0.404726 1.060937 2.589555 0
M  V30 15 C 0.199661 0.072274 3.365324 0
M  V30 16 N 0.272458 0.192042 4.777082 0
M  V30 17 H 1.342622 -3.607253 2.532640 0
M  V30 18 H 1.746620 -4.037230 2.632584 0
M  V30 19 H 1.089163 -2.044586 0.832032 0
M  V30 20 H -1.828229 0.782866 -1.003775 0
M  V30 21 H -1.918095 0.555114 -3.494203 0
M  V30 22 H -0.110178 -0.648867 -4.729126 0
M  V30 23 H 1.723521 -1.575008 -3.390695 0
M  V30 24 H 1.837565 -1.363964 -0.938066 0
M  V30 25 H -0.968874 1.767286 0.671487 0
M  V30 26 H -0.827038 1.936247 3.070834 0
M  V30 27 H 1.234881 0.623216 4.911340 0
M  V30 28 H -0.429168 -0.071701 5.485389 0
M  V30 END ATOM
M  V30 BEGIN BOND
M  V30 1 1 1 2
M  V30 2 2 2 3
M  V30 3 1 2 4
M  V30 4 2 4 5
M  V30 5 1 5 6
M  V30 6 1 6 7
M  V30 7 2 7 8
M  V30 8 1 8 9
M  V30 9 2 9 10
M  V30 10 1 10 11
M  V30 11 2 11 12
M  V30 12 2 6 13
M  V30 13 1 13 14
M  V30 14 2 14 15
M  V30 15 1 15 16
M  V30 16 1 15 4
M  V30 17 1 12 7
M  V30 18 1 1 17
M  V30 19 1 1 18
M  V30 20 1 5 19
M  V30 21 1 8 20
M  V30 22 1 9 21
M  V30 23 1 10 22
M  V30 24 1 11 23
M  V30 25 1 12 24
M  V30 26 1 13 25
M  V30 27 1 14 26
M  V30 28 1 16 27
M  V30 29 1 16 28
M  V30 END BOND
M  V30 END CTAB
M  END
>  <Dataset>  (145) 
ChEMBL_Kinases

>  <Ligand_Instance>  (145) 
nan

>  <PDB_ID>  (145) 
nan

>  <Standardized_SMILES>  (145) 
NC(=O)c1cc(-c2ccccc2)ccc1N

>  <Name>  (145) 
nan

>  <Pocket>  (145) 
nan

>  <ATP_Site>  (145) 
nan

>  <Peripheral>  (145) 
nan

>  <Num_H_Atoms_ProtBoundConf>  (145) 
nan

>  <Num_Resolved_Atoms>  (145) 
nan

>  <Num_Not_Resolved_Atoms>  (145) 
nan

$$$$
CHEMBL2079392
     RDKit          3D

  0  0  0  0  0  0  0  0  0  0999 V3000
M  V30 BEGIN CTAB
M  V30 COUNTS 56 61 0 0 0
M  V30 BEGIN ATOM
M  V30 1 N 2.297979 -3.756614 0.784988 0
M  V30 2 C 2.013030 -2.385652 1.045115 0
M  V30 3 N 2.977227 -1.501403 1.359474 0
M  V30 4 C 2.713806 -0.205433 1.605962 0
M  V30 5 C 1.393795 0.233273 1.532158 0
M  V30 6 C 0.993330 1.621358 1.780542 0
M  V30 7 C -0.113301 2.274071 2.283377 0
M  V30 8 N 0.141195 3.589392 2.252473 0
M  V30 9 N 1.344558 3.828326 1.760514 0
M  V30 10 C 1.905185 5.164019 1.602726 0
M  V30 11 C 2.551026 5.651306 2.868351 0
M  V30 12 C 2.746697 7.114437 2.948737 0
M  V30 13 N 2.092024 7.905871 1.952486 0
M  V30 14 C 0.749877 7.370823 1.813313 0
M  V30 15 C 0.888824 6.087017 1.033740 0
M  V30 16 C 1.897850 2.634892 1.458941 0
M  V30 17 C 0.381244 -0.658542 1.210029 0
M  V30 18 C 0.694653 -1.987013 0.962887 0
M  V30 19 C -0.422498 -2.866978 0.629656 0
M  V30 20 N -1.744423 -2.659963 0.505456 0
M  V30 21 C -2.358606 -3.824745 0.174848 0
M  V30 22 C -3.655838 -4.157803 -0.063169 0
M  V30 23 C -4.023345 -5.445236 -0.388887 0
M  V30 24 C -3.030570 -6.411873 -0.471202 0
M  V30 25 O -3.276145 -7.746367 -0.791754 0
M  V30 26 C -3.246491 -8.162632 -2.122770 0
M  V30 27 N -2.988378 -7.338104 -3.151793 0
M  V30 28 C -2.948923 -7.689034 -4.440008 0
M  V30 29 C -3.200893 -9.037516 -4.724075 0
M  V30 30 C -3.470178 -9.909446 -3.677828 0
M  V30 31 N -3.490159 -9.467122 -2.398515 0
M  V30 32 C -1.732491 -6.042681 -0.225229 0
M  V30 33 C -1.353265 -4.753925 0.102285 0
M  V30 34 O -0.217452 -4.158490 0.376363 0
M  V30 35 H 1.945049 -4.667221 1.191240 0
M  V30 36 H 2.976609 -4.114688 0.071767 0
M  V30 37 H 3.458632 0.542136 1.862923 0
M  V30 38 H -0.948651 1.663910 2.599336 0
M  V30 39 H 2.728384 5.053189 0.866769 0
M  V30 40 H 3.510713 5.128342 3.059312 0
M  V30 41 H 1.868126 5.339834 3.702686 0
M  V30 42 H 3.849368 7.348173 2.870882 0
M  V30 43 H 2.451647 7.524027 3.938996 0
M  V30 44 H 2.542742 7.827380 1.007000 0
M  V30 45 H 0.335029 7.090814 2.806871 0
M  V30 46 H 0.081502 8.060096 1.261977 0
M  V30 47 H 1.138479 6.380488 -0.014609 0
M  V30 48 H -0.100405 5.573661 1.006087 0
M  V30 49 H 2.893499 2.604716 1.038696 0
M  V30 50 H -0.643390 -0.318575 1.152600 0
M  V30 51 H -4.422607 -3.398378 0.003120 0
M  V30 52 H -5.054133 -5.759257 -0.588920 0
M  V30 53 H -2.733418 -6.967077 -5.220772 0
M  V30 54 H -3.168499 -9.321954 -5.770617 0
M  V30 55 H -3.646799 -10.917245 -4.025874 0
M  V30 56 H -0.947716 -6.786451 -0.285819 0
M  V30 END ATOM
M  V30 BEGIN BOND
M  V30 1 1 1 2
M  V30 2 2 2 3
M  V30 3 1 3 4
M  V30 4 2 4 5
M  V30 5 1 5 6
M  V30 6 1 6 7
M  V30 7 2 7 8
M  V30 8 1 8 9
M  V30 9 1 9 10
M  V30 10 1 10 11
M  V30 11 1 11 12
M  V30 12 1 12 13
M  V30 13 1 13 14
M  V30 14 1 14 15
M  V30 15 1 9 16
M  V30 16 1 5 17
M  V30 17 2 17 18
M  V30 18 1 18 19
M  V30 19 2 19 20
M  V30 20 1 20 21
M  V30 21 2 21 22
M  V30 22 1 22 23
M  V30 23 2 23 24
M  V30 24 1 24 25
M  V30 25 1 25 26
M  V30 26 2 26 27
M  V30 27 1 27 28
M  V30 28 2 28 29
M  V30 29 1 29 30
M  V30 30 2 30 31
M  V30 31 1 24 32
M  V30 32 2 32 33
M  V30 33 1 33 34
M  V30 34 1 18 2
M  V30 35 1 34 19
M  V30 36 2 16 6
M  V30 37 1 33 21
M  V30 38 1 15 10
M  V30 39 1 31 26
M  V30 40 1 1 35
M  V30 41 1 1 36
M  V30 42 1 4 37
M  V30 43 1 7 38
M  V30 44 1 10 39
M  V30 45 1 11 40
M  V30 46 1 11 41
M  V30 47 1 12 42
M  V30 48 1 12 43
M  V30 49 1 13 44
M  V30 50 1 14 45
M  V30 51 1 14 46
M  V30 52 1 15 47
M  V30 53 1 15 48
M  V30 54 1 16 49
M  V30 55 1 17 50
M  V30 56 1 22 51
M  V30 57 1 23 52
M  V30 58 1 28 53
M  V30 59 1 29 54
M  V30 60 1 30 55
M  V30 61 1 32 56
M  V30 END BOND
M  V30 END CTAB
M  END
>  <Dataset>  (146) 
ChEMBL_Kinases

>  <Ligand_Instance>  (146) 
nan

>  <PDB_ID>  (146) 
nan

>  <Standardized_SMILES>  (146) 
Nc1ncc(-c2cnn(C3CCNCC3)c2)cc1-c1nc2ccc(Oc3ncccn3)cc2o1

>  <Name>  (146) 
nan

>  <Pocket>  (146) 
nan

>  <ATP_Site>  (146) 
nan

>  <Peripheral>  (146) 
nan

>  <Num_H_Atoms_ProtBoundConf>  (146) 
nan

>  <Num_Resolved_Atoms>  (146) 
nan

>  <Num_Not_Resolved_Atoms>  (146) 
nan

$$$$
CHEMBL2079349
     RDKit          3D

  0  0  0  0  0  0  0  0  0  0999 V3000
M  V30 BEGIN CTAB
M  V30 COUNTS 51 55 0 0 0
M  V30 BEGIN ATOM
M  V30 1 C 5.768215 -4.506369 2.679426 0
M  V30 2 C 5.686269 -3.022335 2.748307 0
M  V30 3 C 6.695053 -2.298569 3.348554 0
M  V30 4 O 7.811340 -2.953531 3.900393 0
M  V30 5 C 6.624492 -0.917375 3.417058 0
M  V30 6 C 5.530125 -0.244270 2.878417 0
M  V30 7 C 4.557148 -1.032107 2.292474 0
M  V30 8 N 3.403299 -0.679610 1.697376 0
M  V30 9 C 2.729671 -1.761963 1.250755 0
M  V30 10 C 1.441437 -1.739889 0.558700 0
M  V30 11 C 0.816273 -0.540466 0.319630 0
M  V30 12 C -0.397749 -0.612736 -0.334766 0
M  V30 13 C -1.131028 0.615988 -0.631284 0
M  V30 14 C -0.723894 1.902195 -0.927124 0
M  V30 15 N -1.787169 2.701595 -1.122496 0
M  V30 16 N -2.898621 1.973144 -0.962382 0
M  V30 17 C -4.280541 2.433738 -1.077478 0
M  V30 18 C -4.918412 2.602594 0.274468 0
M  V30 19 C -5.580107 1.336097 0.766979 0
M  V30 20 N -6.557257 0.964441 -0.205919 0
M  V30 21 C -5.909563 0.522482 -1.400138 0
M  V30 22 C -5.052748 1.571010 -2.009577 0
M  V30 23 C -2.525123 0.720899 -0.667680 0
M  V30 24 C -0.918389 -1.841929 -0.710511 0
M  V30 25 N -0.243828 -2.974312 -0.439977 0
M  V30 26 C 0.931310 -2.981130 0.187458 0
M  V30 27 N 1.592848 -4.213099 0.442367 0
M  V30 28 O 3.487587 -2.775792 1.581177 0
M  V30 29 C 4.573429 -2.420730 2.194229 0
M  V30 30 H 5.603828 -4.967152 3.683389 0
M  V30 31 H 5.004359 -4.922230 2.005892 0
M  V30 32 H 6.764052 -4.868411 2.329539 0
M  V30 33 H 7.816807 -3.069110 4.922939 0
M  V30 34 H 7.410767 -0.349760 3.885149 0
M  V30 35 H 5.413762 0.820221 2.898107 0
M  V30 36 H 1.263415 0.387137 0.631979 0
M  V30 37 H 0.351957 2.123877 -0.969936 0
M  V30 38 H -4.229111 3.450299 -1.527900 0
M  V30 39 H -5.705085 3.383355 0.223563 0
M  V30 40 H -4.164087 2.901462 1.025076 0
M  V30 41 H -4.886089 0.564378 1.088231 0
M  V30 42 H -6.157771 1.645209 1.687256 0
M  V30 43 H -7.299293 0.343934 0.138961 0
M  V30 44 H -6.741525 0.295570 -2.131672 0
M  V30 45 H -5.414466 -0.469882 -1.269995 0
M  V30 46 H -5.678104 2.195296 -2.705992 0
M  V30 47 H -4.321170 1.051935 -2.693294 0
M  V30 48 H -3.179156 -0.127504 -0.475482 0
M  V30 49 H -1.889744 -1.816220 -1.227231 0
M  V30 50 H 2.586417 -4.535645 0.338126 0
M  V30 51 H 0.973870 -4.991437 0.819519 0
M  V30 END ATOM
M  V30 BEGIN BOND
M  V30 1 1 1 2
M  V30 2 2 2 3
M  V30 3 1 3 4
M  V30 4 1 3 5
M  V30 5 2 5 6
M  V30 6 1 6 7
M  V30 7 1 7 8
M  V30 8 2 8 9
M  V30 9 1 9 10
M  V30 10 2 10 11
M  V30 11 1 11 12
M  V30 12 1 12 13
M  V30 13 1 13 14
M  V30 14 2 14 15
M  V30 15 1 15 16
M  V30 16 1 16 17
M  V30 17 1 17 18
M  V30 18 1 18 19
M  V30 19 1 19 20
M  V30 20 1 20 21
M  V30 21 1 21 22
M  V30 22 1 16 23
M  V30 23 2 12 24
M  V30 24 1 24 25
M  V30 25 2 25 26
M  V30 26 1 26 27
M  V30 27 1 9 28
M  V30 28 1 28 29
M  V30 29 1 29 2
M  V30 30 2 29 7
M  V30 31 1 26 10
M  V30 32 2 23 13
M  V30 33 1 22 17
M  V30 34 1 1 30
M  V30 35 1 1 31
M  V30 36 1 1 32
M  V30 37 1 4 33
M  V30 38 1 5 34
M  V30 39 1 6 35
M  V30 40 1 11 36
M  V30 41 1 14 37
M  V30 42 1 17 38
M  V30 43 1 18 39
M  V30 44 1 18 40
M  V30 45 1 19 41
M  V30 46 1 19 42
M  V30 47 1 20 43
M  V30 48 1 21 44
M  V30 49 1 21 45
M  V30 50 1 22 46
M  V30 51 1 22 47
M  V30 52 1 23 48
M  V30 53 1 24 49
M  V30 54 1 27 50
M  V30 55 1 27 51
M  V30 END BOND
M  V30 END CTAB
M  END
>  <Dataset>  (147) 
ChEMBL_Kinases

>  <Ligand_Instance>  (147) 
nan

>  <PDB_ID>  (147) 
nan

>  <Standardized_SMILES>  (147) 
Cc1c(O)ccc2nc(-c3cc(-c4cnn(C5CCNCC5)c4)cnc3N)oc12

>  <Name>  (147) 
nan

>  <Pocket>  (147) 
nan

>  <ATP_Site>  (147) 
nan

>  <Peripheral>  (147) 
nan

>  <Num_H_Atoms_ProtBoundConf>  (147) 
nan

>  <Num_Resolved_Atoms>  (147) 
nan

>  <Num_Not_Resolved_Atoms>  (147) 
nan

$$$$
CHEMBL207905
     RDKit          3D

  0  0  0  0  0  0  0  0  0  0999 V3000
M  V30 BEGIN CTAB
M  V30 COUNTS 48 51 0 0 0
M  V30 BEGIN ATOM
M  V30 1 C 1.090046 -4.939211 3.386887 0
M  V30 2 N 1.517133 -4.581019 2.048846 0
M  V30 3 C 1.864617 -3.253210 1.750067 0
M  V30 4 O 1.759426 -2.468591 2.746761 0
M  V30 5 N 2.282655 -2.919689 0.424454 0
M  V30 6 C 2.426334 -3.743883 -0.747630 0
M  V30 7 C 2.391225 -2.739421 -1.881971 0
M  V30 8 C 3.126844 -1.580062 -1.268276 0
M  V30 9 C 2.629231 -1.545732 0.144832 0
M  V30 10 C 1.401466 -0.693561 0.319391 0
M  V30 11 C 1.418659 0.547572 0.949470 0
M  V30 12 C 0.158723 1.108975 0.980371 0
M  V30 13 C -0.259196 2.387693 1.543453 0
M  V30 14 C -0.797550 3.333515 0.693428 0
M  V30 15 C -1.212873 4.567074 1.167150 0
M  V30 16 N -1.087682 4.849503 2.491747 0
M  V30 17 C -0.571093 3.958735 3.346198 0
M  V30 18 C -0.157436 2.733769 2.881488 0
M  V30 19 C -0.621698 0.183590 0.356995 0
M  V30 20 C -2.058177 0.302843 0.129527 0
M  V30 21 C -2.871428 0.380053 1.241862 0
M  V30 22 C -4.243038 0.494082 1.111116 0
M  V30 23 C -4.788705 0.529564 -0.177526 0
M  V30 24 F -6.134831 0.641321 -0.375402 0
M  V30 25 C -3.962403 0.451303 -1.286842 0
M  V30 26 C -2.582189 0.336489 -1.160628 0
M  V30 27 N 0.136768 -0.861457 -0.018553 0
M  V30 28 H 1.859651 -4.760574 4.137079 0
M  V30 29 H 0.623344 -5.947602 3.426722 0
M  V30 30 H 0.254333 -4.222705 3.643658 0
M  V30 31 H 1.547137 -5.356239 1.346791 0
M  V30 32 H 1.670802 -4.539409 -0.831177 0
M  V30 33 H 3.427742 -4.240656 -0.793784 0
M  V30 34 H 1.369959 -2.397560 -2.135137 0
M  V30 35 H 2.902706 -3.129257 -2.788033 0
M  V30 36 H 4.211254 -1.824215 -1.221372 0
M  V30 37 H 2.943979 -0.627635 -1.811509 0
M  V30 38 H 3.426725 -1.183928 0.845994 0
M  V30 39 H 2.319507 1.006985 1.361813 0
M  V30 40 H -0.907105 3.139340 -0.346326 0
M  V30 41 H -1.634913 5.330590 0.551594 0
M  V30 42 H -0.455535 4.149967 4.412471 0
M  V30 43 H 0.266557 1.992848 3.561038 0
M  V30 44 H -2.519365 0.359435 2.266580 0
M  V30 45 H -4.981218 0.562828 1.901646 0
M  V30 46 H -4.309380 0.471650 -2.314615 0
M  V30 47 H -1.901697 0.273119 -2.001892 0
M  V30 48 H -0.225281 -1.704441 -0.514029 0
M  V30 END ATOM
M  V30 BEGIN BOND
M  V30 1 1 1 2
M  V30 2 1 2 3
M  V30 3 2 3 4
M  V30 4 1 3 5
M  V30 5 1 5 6
M  V30 6 1 6 7
M  V30 7 1 7 8
M  V30 8 1 8 9
M  V30 9 1 9 10
M  V30 10 2 10 11
M  V30 11 1 11 12
M  V30 12 1 12 13
M  V30 13 2 13 14
M  V30 14 1 14 15
M  V30 15 2 15 16
M  V30 16 1 16 17
M  V30 17 2 17 18
M  V30 18 2 12 19
M  V30 19 1 19 20
M  V30 20 2 20 21
M  V30 21 1 21 22
M  V30 22 2 22 23
M  V30 23 1 23 24
M  V30 24 1 23 25
M  V30 25 2 25 26
M  V30 26 1 19 27
M  V30 27 1 9 5
M  V30 28 1 27 10
M  V30 29 1 18 13
M  V30 30 1 26 20
M  V30 31 1 1 28
M  V30 32 1 1 29
M  V30 33 1 1 30
M  V30 34 1 2 31
M  V30 35 1 6 32
M  V30 36 1 6 33
M  V30 37 1 7 34
M  V30 38 1 7 35
M  V30 39 1 8 36
M  V30 40 1 8 37
M  V30 41 1 9 38
M  V30 42 1 11 39
M  V30 43 1 14 40
M  V30 44 1 15 41
M  V30 45 1 17 42
M  V30 46 1 18 43
M  V30 47 1 21 44
M  V30 48 1 22 45
M  V30 49 1 25 46
M  V30 50 1 26 47
M  V30 51 1 27 48
M  V30 END BOND
M  V30 END CTAB
M  END
>  <Dataset>  (148) 
ChEMBL_Kinases

>  <Ligand_Instance>  (148) 
nan

>  <PDB_ID>  (148) 
nan

>  <Standardized_SMILES>  (148) 
CNC(=O)N1CCCC1c1cc(-c2ccncc2)c(-c2ccc(F)cc2)[nH]1

>  <Name>  (148) 
nan

>  <Pocket>  (148) 
nan

>  <ATP_Site>  (148) 
nan

>  <Peripheral>  (148) 
nan

>  <Num_H_Atoms_ProtBoundConf>  (148) 
nan

>  <Num_Resolved_Atoms>  (148) 
nan

>  <Num_Not_Resolved_Atoms>  (148) 
nan

$$$$
CHEMBL207861
     RDKit          3D

  0  0  0  0  0  0  0  0  0  0999 V3000
M  V30 BEGIN CTAB
M  V30 COUNTS 31 33 0 0 0
M  V30 BEGIN ATOM
M  V30 1 C 3.175116 -1.919494 2.502806 0
M  V30 2 C 1.892640 -1.933599 1.737990 0
M  V30 3 N 1.306817 -3.015019 1.161491 0
M  V30 4 N 0.177645 -2.629338 0.571043 0
M  V30 5 C -0.567738 -3.670826 -0.097550 0
M  V30 6 C -0.085881 -3.791070 -1.520534 0
M  V30 7 O -0.396823 -3.354345 -2.653712 0
M  V30 8 O 1.035865 -4.639458 -1.573298 0
M  V30 9 C 0.026528 -1.310834 0.759518 0
M  V30 10 C 1.103579 -0.828936 1.502174 0
M  V30 11 C 1.143815 0.510932 1.812698 0
M  V30 12 O 2.158001 0.883937 2.494197 0
M  V30 13 C 0.109643 1.323529 1.372400 0
M  V30 14 C 0.205379 2.650170 1.714027 0
M  V30 15 C -0.834946 3.477006 1.275052 0
M  V30 16 Cl -0.720081 5.173901 1.708868 0
M  V30 17 C -1.901486 2.987370 0.537726 0
M  V30 18 C -1.925888 1.621908 0.229689 0
M  V30 19 C -0.920951 0.772509 0.642879 0
M  V30 20 N -0.984635 -0.542135 0.323716 0
M  V30 21 O -2.024642 -1.067777 -0.407612 0
M  V30 22 H 3.476886 -2.995057 2.676577 0
M  V30 23 H 3.058065 -1.470311 3.501331 0
M  V30 24 H 3.959744 -1.381207 1.926497 0
M  V30 25 H -1.645723 -3.357895 -0.197904 0
M  V30 26 H -0.545081 -4.643519 0.405671 0
M  V30 27 H 1.657965 -4.680510 -2.367588 0
M  V30 28 H 1.035091 3.059058 2.293298 0
M  V30 29 H -2.682663 3.687067 0.226068 0
M  V30 30 H -2.780732 1.272310 -0.352979 0
M  V30 31 H -2.350869 -0.712681 -1.289076 0
M  V30 END ATOM
M  V30 BEGIN BOND
M  V30 1 1 1 2
M  V30 2 2 2 3
M  V30 3 1 3 4
M  V30 4 1 4 5
M  V30 5 1 5 6
M  V30 6 2 6 7
M  V30 7 1 6 8
M  V30 8 1 4 9
M  V30 9 2 9 10
M  V30 10 1 10 11
M  V30 11 2 11 12
M  V30 12 1 11 13
M  V30 13 2 13 14
M  V30 14 1 14 15
M  V30 15 1 15 16
M  V30 16 2 15 17
M  V30 17 1 17 18
M  V30 18 2 18 19
M  V30 19 1 19 20
M  V30 20 1 20 21
M  V30 21 1 10 2
M  V30 22 1 19 13
M  V30 23 1 20 9
M  V30 24 1 1 22
M  V30 25 1 1 23
M  V30 26 1 1 24
M  V30 27 1 5 25
M  V30 28 1 5 26
M  V30 29 1 8 27
M  V30 30 1 14 28
M  V30 31 1 17 29
M  V30 32 1 18 30
M  V30 33 1 21 31
M  V30 END BOND
M  V30 END CTAB
M  END
>  <Dataset>  (149) 
ChEMBL_Kinases

>  <Ligand_Instance>  (149) 
nan

>  <PDB_ID>  (149) 
nan

>  <Standardized_SMILES>  (149) 
Cc1nn(CC(=O)O)c2c1c(=O)c1cc(Cl)ccc1n2O

>  <Name>  (149) 
nan

>  <Pocket>  (149) 
nan

>  <ATP_Site>  (149) 
nan

>  <Peripheral>  (149) 
nan

>  <Num_H_Atoms_ProtBoundConf>  (149) 
nan

>  <Num_Resolved_Atoms>  (149) 
nan

>  <Num_Not_Resolved_Atoms>  (149) 
nan

$$$$
CHEMBL207778
     RDKit          3D

  0  0  0  0  0  0  0  0  0  0999 V3000
M  V30 BEGIN CTAB
M  V30 COUNTS 46 48 0 0 0
M  V30 BEGIN ATOM
M  V30 1 C 1.084082 -3.484735 3.137975 0
M  V30 2 O 0.440598 -2.230690 3.149823 0
M  V30 3 C 0.889313 -1.107085 2.483795 0
M  V30 4 C 2.061055 -1.209526 1.744217 0
M  V30 5 C 2.558190 -0.099535 1.050724 0
M  V30 6 C 3.822825 -0.224632 0.257304 0
M  V30 7 N 3.537829 -0.622245 -1.089722 0
M  V30 8 C 4.733402 -0.753872 -1.887383 0
M  V30 9 C 4.990184 0.630912 -2.395315 0
M  V30 10 C 3.712862 1.416885 -2.165480 0
M  V30 11 C 2.745625 0.303944 -1.839538 0
M  V30 12 C 1.878438 1.101520 1.103951 0
M  V30 13 C 0.712683 1.215794 1.835682 0
M  V30 14 C 0.220917 0.114670 2.522711 0
M  V30 15 N -0.990880 0.150181 3.310726 0
M  V30 16 C -2.125078 -0.192724 2.506051 0
M  V30 17 O -2.010420 -0.480116 1.266882 0
M  V30 18 N -3.436389 -0.228112 3.056152 0
M  V30 19 C -4.566813 -0.577358 2.223402 0
M  V30 20 C -5.271983 0.389413 1.534710 0
M  V30 21 N -6.331173 0.003034 0.762861 0
M  V30 22 C -6.667727 -1.317757 0.688722 0
M  V30 23 C -7.799112 -1.678319 -0.143172 0
M  V30 24 N -8.727678 -1.953833 -0.813799 0
M  V30 25 C -5.958411 -2.292265 1.381757 0
M  V30 26 N -4.901050 -1.895349 2.150671 0
M  V30 27 H 1.425004 -3.778228 2.122244 0
M  V30 28 H 1.918774 -3.536058 3.860756 0
M  V30 29 H 0.323077 -4.237155 3.473918 0
M  V30 30 H 2.637599 -2.126285 1.665507 0
M  V30 31 H 4.466047 0.662546 0.337036 0
M  V30 32 H 4.394012 -1.071258 0.716695 0
M  V30 33 H 5.587210 -1.158530 -1.301041 0
M  V30 34 H 4.584630 -1.497150 -2.711841 0
M  V30 35 H 5.194013 0.542445 -3.501554 0
M  V30 36 H 5.866922 1.068444 -1.877099 0
M  V30 37 H 3.859638 2.111238 -1.305103 0
M  V30 38 H 3.407629 1.984113 -3.067070 0
M  V30 39 H 1.825000 0.620815 -1.348705 0
M  V30 40 H 2.485956 -0.194621 -2.799279 0
M  V30 41 H 2.220757 1.980873 0.588564 0
M  V30 42 H 0.140968 2.145000 1.907102 0
M  V30 43 H -1.208036 0.365772 4.309796 0
M  V30 44 H -3.615085 -0.005073 4.065420 0
M  V30 45 H -4.982681 1.434113 1.611390 0
M  V30 46 H -6.244427 -3.335672 1.307459 0
M  V30 END ATOM
M  V30 BEGIN BOND
M  V30 1 1 1 2
M  V30 2 1 2 3
M  V30 3 2 3 4
M  V30 4 1 4 5
M  V30 5 1 5 6
M  V30 6 1 6 7
M  V30 7 1 7 8
M  V30 8 1 8 9
M  V30 9 1 9 10
M  V30 10 1 10 11
M  V30 11 2 5 12
M  V30 12 1 12 13
M  V30 13 2 13 14
M  V30 14 1 14 15
M  V30 15 1 15 16
M  V30 16 2 16 17
M  V30 17 1 16 18
M  V30 18 1 18 19
M  V30 19 2 19 20
M  V30 20 1 20 21
M  V30 21 2 21 22
M  V30 22 1 22 23
M  V30 23 3 23 24
M  V30 24 1 22 25
M  V30 25 2 25 26
M  V30 26 1 14 3
M  V30 27 1 26 19
M  V30 28 1 11 7
M  V30 29 1 1 27
M  V30 30 1 1 28
M  V30 31 1 1 29
M  V30 32 1 4 30
M  V30 33 1 6 31
M  V30 34 1 6 32
M  V30 35 1 8 33
M  V30 36 1 8 34
M  V30 37 1 9 35
M  V30 38 1 9 36
M  V30 39 1 10 37
M  V30 40 1 10 38
M  V30 41 1 11 39
M  V30 42 1 11 40
M  V30 43 1 12 41
M  V30 44 1 13 42
M  V30 45 1 15 43
M  V30 46 1 18 44
M  V30 47 1 20 45
M  V30 48 1 25 46
M  V30 END BOND
M  V30 END CTAB
M  END
>  <Dataset>  (150) 
ChEMBL_Kinases

>  <Ligand_Instance>  (150) 
nan

>  <PDB_ID>  (150) 
nan

>  <Standardized_SMILES>  (150) 
COc1cc(CN2CCCC2)ccc1NC(=O)Nc1cnc(C#N)cn1

>  <Name>  (150) 
nan

>  <Pocket>  (150) 
nan

>  <ATP_Site>  (150) 
nan

>  <Peripheral>  (150) 
nan

>  <Num_H_Atoms_ProtBoundConf>  (150) 
nan

>  <Num_Resolved_Atoms>  (150) 
nan

>  <Num_Not_Resolved_Atoms>  (150) 
nan

$$$$
CHEMBL207773
     RDKit          3D

  0  0  0  0  0  0  0  0  0  0999 V3000
M  V30 BEGIN CTAB
M  V30 COUNTS 37 39 0 0 0
M  V30 BEGIN ATOM
M  V30 1 C -0.655175 -4.854130 1.625194 0
M  V30 2 C 0.809331 -4.885737 1.945349 0
M  V30 3 O 1.437977 -3.763969 1.414458 0
M  V30 4 C 1.504701 -3.439015 0.068531 0
M  V30 5 O 0.937036 -4.244437 -0.711673 0
M  V30 6 C 2.199277 -2.234023 -0.380677 0
M  V30 7 N 1.349846 -1.128707 -0.752664 0
M  V30 8 N 0.960967 -1.003317 -2.034544 0
M  V30 9 C 0.186560 0.101710 -2.172203 0
M  V30 10 C -0.447856 0.615478 -3.398376 0
M  V30 11 C 0.076647 0.700302 -0.937845 0
M  V30 12 C -0.589565 1.833145 -0.520951 0
M  V30 13 O -1.262367 2.567463 -1.276364 0
M  V30 14 C -0.447997 2.093207 0.826447 0
M  V30 15 C -1.074564 3.203646 1.348404 0
M  V30 16 C -0.947566 3.481773 2.693919 0
M  V30 17 Cl -1.782649 4.922754 3.293816 0
M  V30 18 C -0.210219 2.684289 3.543423 0
M  V30 19 C 0.439741 1.547222 3.044364 0
M  V30 20 C 0.280767 1.312950 1.690281 0
M  V30 21 N 0.921283 0.198979 1.220799 0
M  V30 22 O 1.656932 -0.603042 2.057928 0
M  V30 23 C 0.812033 -0.095169 -0.086494 0
M  V30 24 H -1.221923 -4.470757 2.527889 0
M  V30 25 H -0.982395 -5.912539 1.426373 0
M  V30 26 H -0.884418 -4.196275 0.772031 0
M  V30 27 H 1.283155 -5.825107 1.545336 0
M  V30 28 H 0.926999 -4.882366 3.049905 0
M  V30 29 H 2.827411 -2.551472 -1.272490 0
M  V30 30 H 2.962207 -1.883062 0.353354 0
M  V30 31 H -1.539233 0.460499 -3.369515 0
M  V30 32 H 0.013869 0.129675 -4.278112 0
M  V30 33 H -0.256390 1.724069 -3.401077 0
M  V30 34 H -1.670817 3.863158 0.710247 0
M  V30 35 H -0.142894 2.954099 4.609570 0
M  V30 36 H 1.006741 0.929369 3.699437 0
M  V30 37 H 1.120196 -1.307091 2.568902 0
M  V30 END ATOM
M  V30 BEGIN BOND
M  V30 1 1 1 2
M  V30 2 1 2 3
M  V30 3 1 3 4
M  V30 4 2 4 5
M  V30 5 1 4 6
M  V30 6 1 6 7
M  V30 7 1 7 8
M  V30 8 2 8 9
M  V30 9 1 9 10
M  V30 10 1 9 11
M  V30 11 1 11 12
M  V30 12 2 12 13
M  V30 13 1 12 14
M  V30 14 2 14 15
M  V30 15 1 15 16
M  V30 16 1 16 17
M  V30 17 2 16 18
M  V30 18 1 18 19
M  V30 19 2 19 20
M  V30 20 1 20 21
M  V30 21 1 21 22
M  V30 22 1 21 23
M  V30 23 1 23 7
M  V30 24 2 23 11
M  V30 25 1 20 14
M  V30 26 1 1 24
M  V30 27 1 1 25
M  V30 28 1 1 26
M  V30 29 1 2 27
M  V30 30 1 2 28
M  V30 31 1 6 29
M  V30 32 1 6 30
M  V30 33 1 10 31
M  V30 34 1 10 32
M  V30 35 1 10 33
M  V30 36 1 15 34
M  V30 37 1 18 35
M  V30 38 1 19 36
M  V30 39 1 22 37
M  V30 END BOND
M  V30 END CTAB
M  END
>  <Dataset>  (151) 
ChEMBL_Kinases

>  <Ligand_Instance>  (151) 
nan

>  <PDB_ID>  (151) 
nan

>  <Standardized_SMILES>  (151) 
CCOC(=O)Cn1nc(C)c2c(=O)c3cc(Cl)ccc3n(O)c21

>  <Name>  (151) 
nan

>  <Pocket>  (151) 
nan

>  <ATP_Site>  (151) 
nan

>  <Peripheral>  (151) 
nan

>  <Num_H_Atoms_ProtBoundConf>  (151) 
nan

>  <Num_Resolved_Atoms>  (151) 
nan

>  <Num_Not_Resolved_Atoms>  (151) 
nan

$$$$
CHEMBL207671
     RDKit          3D

  0  0  0  0  0  0  0  0  0  0999 V3000
M  V30 BEGIN CTAB
M  V30 COUNTS 48 51 0 0 0
M  V30 BEGIN ATOM
M  V30 1 N 0.149903 -4.021945 0.228376 0
M  V30 2 C -0.044171 -3.017353 -0.758640 0 CFG=2
M  V30 3 C 0.780507 -1.757779 -0.469849 0
M  V30 4 O 2.167927 -2.101398 -0.442731 0
M  V30 5 C 3.088772 -1.092727 -0.194498 0
M  V30 6 C 4.440783 -1.372371 -0.157453 0
M  V30 7 N 5.311910 -0.369614 0.086378 0
M  V30 8 C 4.947323 0.884250 0.295674 0
M  V30 9 C 3.621276 1.245926 0.275917 0
M  V30 10 N 3.233176 2.592044 0.484538 0
M  V30 11 C 2.049945 3.259062 0.879204 0
M  V30 12 C 1.760311 4.570379 0.607146 0
M  V30 13 C 0.583252 5.113697 1.059052 0
M  V30 14 C -0.363913 4.431089 1.787283 0
M  V30 15 N -0.024508 3.155962 2.021213 0
M  V30 16 C 1.102619 2.571027 1.609659 0
M  V30 17 C 2.725281 0.219423 0.025540 0
M  V30 18 C -1.443099 -2.660722 -1.092284 0
M  V30 19 C -2.271328 -2.147886 -0.005612 0
M  V30 20 C -2.566037 -0.804911 0.150725 0
M  V30 21 N -3.339981 -0.604095 1.233596 0
M  V30 22 C -3.545590 -1.818608 1.777248 0
M  V30 23 C -4.274074 -2.200602 2.909577 0
M  V30 24 C -4.330918 -3.545223 3.260781 0
M  V30 25 C -3.678842 -4.502160 2.506900 0
M  V30 26 C -2.949746 -4.134478 1.376744 0
M  V30 27 C -2.895064 -2.804190 1.031911 0
M  V30 28 H 1.053760 -4.509783 0.049138 0
M  V30 29 H 0.067094 -3.719452 1.216766 0
M  V30 30 H 0.408700 -3.418739 -1.710563 0
M  V30 31 H 0.693027 -1.035427 -1.305547 0
M  V30 32 H 0.533297 -1.311784 0.505888 0
M  V30 33 H 4.768970 -2.388484 -0.325097 0
M  V30 34 H 5.728075 1.629021 0.485469 0
M  V30 35 H 4.006847 3.305357 0.307192 0
M  V30 36 H 2.490018 5.130147 0.035257 0
M  V30 37 H 0.434686 6.168783 0.794975 0
M  V30 38 H -1.267565 4.915163 2.111977 0
M  V30 39 H 1.135807 1.555573 1.934039 0
M  V30 40 H 1.666823 0.398039 -0.021916 0
M  V30 41 H -1.933604 -3.598826 -1.489465 0
M  V30 42 H -1.411617 -1.990149 -1.980581 0
M  V30 43 H -2.244538 0.011655 -0.481389 0
M  V30 44 H -3.727443 0.293500 1.614535 0
M  V30 45 H -4.789702 -1.452301 3.507332 0
M  V30 46 H -4.907145 -3.831607 4.153224 0
M  V30 47 H -3.753515 -5.546333 2.823591 0
M  V30 48 H -2.443664 -4.858362 0.783504 0
M  V30 END ATOM
M  V30 BEGIN BOND
M  V30 1 1 1 2
M  V30 2 1 2 3
M  V30 3 1 3 4
M  V30 4 1 4 5
M  V30 5 2 5 6
M  V30 6 1 6 7
M  V30 7 2 7 8
M  V30 8 1 8 9
M  V30 9 1 9 10
M  V30 10 1 10 11
M  V30 11 2 11 12
M  V30 12 1 12 13
M  V30 13 2 13 14
M  V30 14 1 14 15
M  V30 15 2 15 16
M  V30 16 2 9 17
M  V30 17 1 2 18
M  V30 18 1 18 19
M  V30 19 2 19 20
M  V30 20 1 20 21
M  V30 21 1 21 22
M  V30 22 2 22 23
M  V30 23 1 23 24
M  V30 24 2 24 25
M  V30 25 1 25 26
M  V30 26 2 26 27
M  V30 27 1 17 5
M  V30 28 1 27 19
M  V30 29 1 16 11
M  V30 30 1 27 22
M  V30 31 1 1 28
M  V30 32 1 1 29
M  V30 33 1 2 30 CFG=3
M  V30 34 1 3 31
M  V30 35 1 3 32
M  V30 36 1 6 33
M  V30 37 1 8 34
M  V30 38 1 10 35
M  V30 39 1 12 36
M  V30 40 1 13 37
M  V30 41 1 14 38
M  V30 42 1 16 39
M  V30 43 1 17 40
M  V30 44 1 18 41
M  V30 45 1 18 42
M  V30 46 1 20 43
M  V30 47 1 21 44
M  V30 48 1 23 45
M  V30 49 1 24 46
M  V30 50 1 25 47
M  V30 51 1 26 48
M  V30 END BOND
M  V30 END CTAB
M  END
>  <Dataset>  (152) 
ChEMBL_Kinases

>  <Ligand_Instance>  (152) 
nan

>  <PDB_ID>  (152) 
nan

>  <Standardized_SMILES>  (152) 
N[C@H](COc1cncc(Nc2cccnc2)c1)Cc1c[nH]c2ccccc12

>  <Name>  (152) 
nan

>  <Pocket>  (152) 
nan

>  <ATP_Site>  (152) 
nan

>  <Peripheral>  (152) 
nan

>  <Num_H_Atoms_ProtBoundConf>  (152) 
nan

>  <Num_Resolved_Atoms>  (152) 
nan

>  <Num_Not_Resolved_Atoms>  (152) 
nan

$$$$
CHEMBL207664
     RDKit          3D

  0  0  0  0  0  0  0  0  0  0999 V3000
M  V30 BEGIN CTAB
M  V30 COUNTS 28 29 0 0 0
M  V30 BEGIN ATOM
M  V30 1 C -2.659968 -1.406323 3.034682 0
M  V30 2 N -1.438963 -0.761175 3.417512 0
M  V30 3 C -0.391900 -0.485688 2.492447 0
M  V30 4 C -0.455723 -0.809045 1.160786 0
M  V30 5 C 0.556273 -0.523568 0.351497 0
M  V30 6 C 0.748499 -0.755609 -1.098601 0
M  V30 7 C 1.940677 -0.330357 -1.648920 0
M  V30 8 C 2.106982 -0.557065 -3.021312 0
M  V30 9 C 1.081698 -1.180393 -3.714889 0
M  V30 10 F 1.333906 -1.359197 -5.048784 0
M  V30 11 C -0.106392 -1.600246 -3.148595 0
M  V30 12 C -0.256343 -1.368598 -1.787824 0
M  V30 13 S 1.765401 0.248683 1.336903 0
M  V30 14 C 0.799187 0.149473 2.894547 0
M  V30 15 C 1.278816 0.652081 4.174265 0
M  V30 16 N 2.558764 1.251160 4.228535 0
M  V30 17 O 0.534601 0.527407 5.155479 0
M  V30 18 H -2.484858 -2.087199 2.174626 0
M  V30 19 H -3.160930 -1.932267 3.866752 0
M  V30 20 H -3.385034 -0.634511 2.650754 0
M  V30 21 H -1.385395 -0.516912 4.406648 0
M  V30 22 H -1.309503 -1.299493 0.712043 0
M  V30 23 H 2.735836 0.152435 -1.113831 0
M  V30 24 H 3.014801 -0.243891 -3.488606 0
M  V30 25 H -0.868870 -2.077543 -3.726662 0
M  V30 26 H -1.185561 -1.697415 -1.346957 0
M  V30 27 H 3.290271 0.502295 4.065931 0
M  V30 28 H 3.549333 0.889972 4.124186 0
M  V30 END ATOM
M  V30 BEGIN BOND
M  V30 1 1 1 2
M  V30 2 1 2 3
M  V30 3 1 3 4
M  V30 4 2 4 5
M  V30 5 1 5 6
M  V30 6 2 6 7
M  V30 7 1 7 8
M  V30 8 2 8 9
M  V30 9 1 9 10
M  V30 10 1 9 11
M  V30 11 2 11 12
M  V30 12 1 5 13
M  V30 13 1 13 14
M  V30 14 1 14 15
M  V30 15 1 15 16
M  V30 16 2 15 17
M  V30 17 2 14 3
M  V30 18 1 12 6
M  V30 19 1 1 18
M  V30 20 1 1 19
M  V30 21 1 1 20
M  V30 22 1 2 21
M  V30 23 1 4 22
M  V30 24 1 7 23
M  V30 25 1 8 24
M  V30 26 1 11 25
M  V30 27 1 12 26
M  V30 28 1 16 27
M  V30 29 1 16 28
M  V30 END BOND
M  V30 END CTAB
M  END
>  <Dataset>  (153) 
ChEMBL_Kinases

>  <Ligand_Instance>  (153) 
nan

>  <PDB_ID>  (153) 
nan

>  <Standardized_SMILES>  (153) 
CNc1cc(-c2ccc(F)cc2)sc1C(N)=O

>  <Name>  (153) 
nan

>  <Pocket>  (153) 
nan

>  <ATP_Site>  (153) 
nan

>  <Peripheral>  (153) 
nan

>  <Num_H_Atoms_ProtBoundConf>  (153) 
nan

>  <Num_Resolved_Atoms>  (153) 
nan

>  <Num_Not_Resolved_Atoms>  (153) 
nan

$$$$
CHEMBL207644
     RDKit          3D

  0  0  0  0  0  0  0  0  0  0999 V3000
M  V30 BEGIN CTAB
M  V30 COUNTS 51 54 0 0 0
M  V30 BEGIN ATOM
M  V30 1 O -1.340056 -5.453866 -0.382051 0
M  V30 2 C -0.858645 -4.154982 -0.540174 0
M  V30 3 C 0.515627 -4.304224 -1.190085 0
M  V30 4 C 1.165963 -2.959954 -1.424262 0
M  V30 5 C 2.158739 -2.776282 -0.266313 0
M  V30 6 N 1.478509 -3.271449 0.877351 0
M  V30 7 C 1.501217 -2.502887 2.058257 0
M  V30 8 C 0.887577 -1.173174 1.800945 0
M  V30 9 C 1.573667 -0.042189 1.409482 0
M  V30 10 C 0.675544 1.003766 1.262660 0
M  V30 11 C 0.942287 2.381973 0.865290 0
M  V30 12 C 0.590019 3.278612 1.872869 0
M  V30 13 C 0.789441 4.643066 1.637064 0
M  V30 14 N 1.301702 5.120189 0.490485 0
M  V30 15 C 1.632461 4.233598 -0.464009 0
M  V30 16 C 1.468105 2.885801 -0.309412 0
M  V30 17 C -0.558109 0.484055 1.571581 0
M  V30 18 C -1.802216 1.249687 1.546460 0
M  V30 19 C -2.125149 1.729920 0.294364 0
M  V30 20 C -3.279648 2.478222 0.100227 0
M  V30 21 C -4.098008 2.729740 1.195681 0
M  V30 22 F -5.221274 3.458590 1.000738 0
M  V30 23 C -3.778436 2.253304 2.440136 0
M  V30 24 C -2.630465 1.509824 2.630301 0
M  V30 25 N -0.397466 -0.819431 1.889210 0
M  V30 26 C 1.677981 -4.681892 0.999811 0
M  V30 27 C 1.385863 -5.249097 -0.392754 0
M  V30 28 H -1.421905 -5.718925 0.567476 0
M  V30 29 H -0.830089 -3.578133 0.393062 0
M  V30 30 H -1.568180 -3.656637 -1.228357 0
M  V30 31 H 0.342837 -4.770554 -2.167060 0
M  V30 32 H 0.370223 -2.187436 -1.248841 0
M  V30 33 H 1.620932 -2.829719 -2.405856 0
M  V30 34 H 2.546077 -1.762586 -0.225598 0
M  V30 35 H 3.058092 -3.431701 -0.466199 0
M  V30 36 H 0.928969 -3.055172 2.835125 0
M  V30 37 H 2.545594 -2.338830 2.392768 0
M  V30 38 H 2.621655 0.131307 1.219291 0
M  V30 39 H 0.168585 3.019332 2.839901 0
M  V30 40 H 0.514665 5.358941 2.425850 0
M  V30 41 H 2.058449 4.535543 -1.433478 0
M  V30 42 H 1.702000 2.094937 -1.013592 0
M  V30 43 H -1.539812 1.578311 -0.613661 0
M  V30 44 H -3.579515 2.877723 -0.856753 0
M  V30 45 H -4.402978 2.434296 3.325511 0
M  V30 46 H -2.287467 1.086046 3.578510 0
M  V30 47 H -1.204187 -1.434377 2.162887 0
M  V30 48 H 0.989204 -5.133861 1.720613 0
M  V30 49 H 2.759121 -4.876484 1.219853 0
M  V30 50 H 2.352701 -5.316082 -0.953529 0
M  V30 51 H 0.847501 -6.203563 -0.317115 0
M  V30 END ATOM
M  V30 BEGIN BOND
M  V30 1 1 1 2
M  V30 2 1 2 3
M  V30 3 1 3 4
M  V30 4 1 4 5
M  V30 5 1 5 6
M  V30 6 1 6 7
M  V30 7 1 7 8
M  V30 8 2 8 9
M  V30 9 1 9 10
M  V30 10 1 10 11
M  V30 11 2 11 12
M  V30 12 1 12 13
M  V30 13 2 13 14
M  V30 14 1 14 15
M  V30 15 2 15 16
M  V30 16 2 10 17
M  V30 17 1 17 18
M  V30 18 2 18 19
M  V30 19 1 19 20
M  V30 20 2 20 21
M  V30 21 1 21 22
M  V30 22 1 21 23
M  V30 23 2 23 24
M  V30 24 1 17 25
M  V30 25 1 6 26
M  V30 26 1 26 27
M  V30 27 1 27 3
M  V30 28 1 25 8
M  V30 29 1 16 11
M  V30 30 1 24 18
M  V30 31 1 1 28
M  V30 32 1 2 29
M  V30 33 1 2 30
M  V30 34 1 3 31
M  V30 35 1 4 32
M  V30 36 1 4 33
M  V30 37 1 5 34
M  V30 38 1 5 35
M  V30 39 1 7 36
M  V30 40 1 7 37
M  V30 41 1 9 38
M  V30 42 1 12 39
M  V30 43 1 13 40
M  V30 44 1 15 41
M  V30 45 1 16 42
M  V30 46 1 19 43
M  V30 47 1 20 44
M  V30 48 1 23 45
M  V30 49 1 24 46
M  V30 50 1 25 47
M  V30 51 1 26 48
M  V30 52 1 26 49
M  V30 53 1 27 50
M  V30 54 1 27 51
M  V30 END BOND
M  V30 END CTAB
M  END
>  <Dataset>  (154) 
ChEMBL_Kinases

>  <Ligand_Instance>  (154) 
nan

>  <PDB_ID>  (154) 
nan

>  <Standardized_SMILES>  (154) 
OCC1CCN(Cc2cc(-c3ccncc3)c(-c3ccc(F)cc3)[nH]2)CC1

>  <Name>  (154) 
nan

>  <Pocket>  (154) 
nan

>  <ATP_Site>  (154) 
nan

>  <Peripheral>  (154) 
nan

>  <Num_H_Atoms_ProtBoundConf>  (154) 
nan

>  <Num_Resolved_Atoms>  (154) 
nan

>  <Num_Not_Resolved_Atoms>  (154) 
nan

$$$$
CHEMBL207619
     RDKit          3D

  0  0  0  0  0  0  0  0  0  0999 V3000
M  V30 BEGIN CTAB
M  V30 COUNTS 27 28 0 0 0
M  V30 BEGIN ATOM
M  V30 1 C -1.729092 -0.798789 1.935751 0
M  V30 2 C -0.433218 -0.778340 2.653254 0
M  V30 3 C -0.362870 -0.915372 4.038534 0
M  V30 4 C 0.824188 -0.901470 4.742858 0
M  V30 5 C 1.990505 -0.741361 4.007529 0
M  V30 6 C 1.929165 -0.603270 2.618280 0
M  V30 7 C 0.731082 -0.620130 1.935007 0
M  V30 8 C 0.767835 -0.468429 0.482069 0
M  V30 9 N -0.318559 -0.462660 -0.343804 0
M  V30 10 C 0.099633 -0.301060 -1.623128 0
M  V30 11 C -0.713329 -0.236055 -2.833016 0
M  V30 12 N -2.127333 -0.352170 -2.704250 0
M  V30 13 O -0.061496 -0.077586 -3.914909 0
M  V30 14 C 1.478917 -0.209847 -1.535285 0
M  V30 15 N 2.386074 -0.031467 -2.631820 0
M  V30 16 O 1.814534 -0.313527 -0.286668 0
M  V30 17 H -1.743108 -1.622071 1.174805 0
M  V30 18 H -2.575610 -0.888908 2.641323 0
M  V30 19 H -1.818546 0.166644 1.393362 0
M  V30 20 H -1.283202 -1.042256 4.624112 0
M  V30 21 H 0.811835 -1.013313 5.824106 0
M  V30 22 H 2.923072 -0.730775 4.564069 0
M  V30 23 H 2.902720 -0.483611 2.140837 0
M  V30 24 H -2.575792 0.259044 -1.974740 0
M  V30 25 H -2.517822 -1.048115 -3.374199 0
M  V30 26 H 2.214504 -0.507850 -3.556547 0
M  V30 27 H 3.231573 0.578382 -2.519295 0
M  V30 END ATOM
M  V30 BEGIN BOND
M  V30 1 1 1 2
M  V30 2 2 2 3
M  V30 3 1 3 4
M  V30 4 2 4 5
M  V30 5 1 5 6
M  V30 6 2 6 7
M  V30 7 1 7 8
M  V30 8 2 8 9
M  V30 9 1 9 10
M  V30 10 1 10 11
M  V30 11 1 11 12
M  V30 12 2 11 13
M  V30 13 2 10 14
M  V30 14 1 14 15
M  V30 15 1 14 16
M  V30 16 1 7 2
M  V30 17 1 16 8
M  V30 18 1 1 17
M  V30 19 1 1 18
M  V30 20 1 1 19
M  V30 21 1 3 20
M  V30 22 1 4 21
M  V30 23 1 5 22
M  V30 24 1 6 23
M  V30 25 1 12 24
M  V30 26 1 12 25
M  V30 27 1 15 26
M  V30 28 1 15 27
M  V30 END BOND
M  V30 END CTAB
M  END
>  <Dataset>  (155) 
ChEMBL_Kinases

>  <Ligand_Instance>  (155) 
nan

>  <PDB_ID>  (155) 
nan

>  <Standardized_SMILES>  (155) 
Cc1ccccc1-c1nc(C(N)=O)c(N)o1

>  <Name>  (155) 
nan

>  <Pocket>  (155) 
nan

>  <ATP_Site>  (155) 
nan

>  <Peripheral>  (155) 
nan

>  <Num_H_Atoms_ProtBoundConf>  (155) 
nan

>  <Num_Resolved_Atoms>  (155) 
nan

>  <Num_Not_Resolved_Atoms>  (155) 
nan

$$$$
CHEMBL2087461
     RDKit          3D

  0  0  0  0  0  0  0  0  0  0999 V3000
M  V30 BEGIN CTAB
M  V30 COUNTS 38 40 0 0 0
M  V30 BEGIN ATOM
M  V30 1 O 0.920046 -1.440071 0.875887 0
M  V30 2 C 0.990095 -0.680846 -0.113533 0
M  V30 3 N 1.546495 -1.191896 -1.309353 0
M  V30 4 O 2.039042 -2.408499 -1.589591 0
M  V30 5 C 3.401949 -2.453476 -1.305661 0
M  V30 6 C 3.934086 -3.836138 -1.630436 0
M  V30 7 O 3.296434 -4.825115 -0.884837 0
M  V30 8 C 0.504310 0.662561 0.016638 0
M  V30 9 C 0.502326 1.618032 -0.950711 0
M  V30 10 C 0.056142 2.920413 -0.900973 0
M  V30 11 C -0.455505 3.269987 0.321515 0
M  V30 12 C -0.970431 4.489415 0.667854 0
M  V30 13 N -1.474867 4.804908 1.902795 0
M  V30 14 S -1.201842 3.157825 2.738542 0
M  V30 15 C -0.512210 2.361663 1.421912 0
M  V30 16 C -0.027510 1.068921 1.243508 0
M  V30 17 N -0.106475 0.207824 2.364415 0
M  V30 18 C -1.208736 -0.640110 2.672284 0
M  V30 19 C -2.286079 -0.623542 1.812651 0
M  V30 20 C -3.323496 -1.462373 2.158407 0
M  V30 21 C -3.271260 -2.256379 3.289070 0
M  V30 22 I -4.909776 -3.517976 3.748340 0
M  V30 23 C -2.184055 -2.242827 4.115009 0
M  V30 24 C -1.106607 -1.407183 3.804727 0
M  V30 25 F 0.002056 -1.360867 4.602355 0
M  V30 26 H 1.629522 -0.610065 -2.158087 0
M  V30 27 H 3.989894 -1.739772 -1.910126 0
M  V30 28 H 3.575309 -2.209455 -0.246234 0
M  V30 29 H 3.766680 -4.034716 -2.712965 0
M  V30 30 H 5.009051 -3.911867 -1.418458 0
M  V30 31 H 3.304899 -5.692435 -1.381585 0
M  V30 32 H 0.923752 1.285228 -1.911913 0
M  V30 33 H 0.104216 3.597743 -1.739371 0
M  V30 34 H -1.072339 5.383725 0.071115 0
M  V30 35 H 0.755425 0.271217 2.946964 0
M  V30 36 H -2.326494 -0.000663 0.926122 0
M  V30 37 H -4.211866 -1.515301 1.540978 0
M  V30 38 H -2.127461 -2.859022 5.004926 0
M  V30 END ATOM
M  V30 BEGIN BOND
M  V30 1 2 1 2
M  V30 2 1 2 3
M  V30 3 1 3 4
M  V30 4 1 4 5
M  V30 5 1 5 6
M  V30 6 1 6 7
M  V30 7 1 2 8
M  V30 8 2 8 9
M  V30 9 1 9 10
M  V30 10 2 10 11
M  V30 11 1 11 12
M  V30 12 2 12 13
M  V30 13 1 13 14
M  V30 14 1 14 15
M  V30 15 2 15 16
M  V30 16 1 16 17
M  V30 17 1 17 18
M  V30 18 2 18 19
M  V30 19 1 19 20
M  V30 20 2 20 21
M  V30 21 1 21 22
M  V30 22 1 21 23
M  V30 23 2 23 24
M  V30 24 1 24 25
M  V30 25 1 16 8
M  V30 26 1 24 18
M  V30 27 1 15 11
M  V30 28 1 3 26
M  V30 29 1 5 27
M  V30 30 1 5 28
M  V30 31 1 6 29
M  V30 32 1 6 30
M  V30 33 1 7 31
M  V30 34 1 9 32
M  V30 35 1 10 33
M  V30 36 1 12 34
M  V30 37 1 17 35
M  V30 38 1 19 36
M  V30 39 1 20 37
M  V30 40 1 23 38
M  V30 END BOND
M  V30 END CTAB
M  END
>  <Dataset>  (156) 
ChEMBL_Kinases

>  <Ligand_Instance>  (156) 
nan

>  <PDB_ID>  (156) 
nan

>  <Standardized_SMILES>  (156) 
O=C(NOCCO)c1ccc2cnsc2c1Nc1ccc(I)cc1F

>  <Name>  (156) 
nan

>  <Pocket>  (156) 
nan

>  <ATP_Site>  (156) 
nan

>  <Peripheral>  (156) 
nan

>  <Num_H_Atoms_ProtBoundConf>  (156) 
nan

>  <Num_Resolved_Atoms>  (156) 
nan

>  <Num_Not_Resolved_Atoms>  (156) 
nan

$$$$
CHEMBL207253
     RDKit          3D

  0  0  0  0  0  0  0  0  0  0999 V3000
M  V30 BEGIN CTAB
M  V30 COUNTS 37 39 0 0 0
M  V30 BEGIN ATOM
M  V30 1 C -0.491315 -3.227972 3.065445 0
M  V30 2 C 0.715417 -3.808725 2.400543 0
M  V30 3 C 1.479773 -2.805278 1.538640 0
M  V30 4 O 0.728987 -2.284903 0.482663 0
M  V30 5 N 0.690658 -0.970500 0.187170 0
M  V30 6 C 1.628100 -0.031938 0.017428 0
M  V30 7 C 2.916080 -0.489571 0.133093 0
M  V30 8 C 4.022169 0.312045 -0.014152 0
M  V30 9 C 3.869400 1.673311 -0.298192 0
M  V30 10 Cl 5.164217 2.831179 -0.515222 0
M  V30 11 C 2.571185 2.122218 -0.413400 0
M  V30 12 C 1.475304 1.301919 -0.262442 0
M  V30 13 C 0.189915 1.777094 -0.395092 0
M  V30 14 O 0.012767 2.978183 -0.647158 0
M  V30 15 C -0.827977 0.862685 -0.234430 0
M  V30 16 C -2.175461 1.129003 -0.337489 0
M  V30 17 C -2.860368 2.394499 -0.620142 0
M  V30 18 N -2.749938 -0.085687 -0.110554 0
M  V30 19 N -1.816092 -0.978421 0.105492 0
M  V30 20 C -2.216425 -2.344739 0.353351 0
M  V30 21 C -0.569582 -0.479440 0.049974 0
M  V30 22 H -0.624725 -2.177008 2.779896 0
M  V30 23 H -1.396679 -3.821274 2.775511 0
M  V30 24 H -0.418030 -3.253060 4.180240 0
M  V30 25 H 1.407614 -4.177415 3.184307 0
M  V30 26 H 0.438229 -4.708179 1.809539 0
M  V30 27 H 2.351123 -3.418990 1.129821 0
M  V30 28 H 1.885296 -2.049572 2.236694 0
M  V30 29 H 3.167874 -1.493642 0.332104 0
M  V30 30 H 5.052576 -0.016941 0.071123 0
M  V30 31 H 2.353747 3.157699 -0.631452 0
M  V30 32 H -2.278810 3.276521 -0.305490 0
M  V30 33 H -3.878642 2.446384 -0.166999 0
M  V30 34 H -3.032019 2.482348 -1.716809 0
M  V30 35 H -3.075754 -2.642561 -0.317557 0
M  V30 36 H -1.437800 -3.087381 0.224685 0
M  V30 37 H -2.673164 -2.348316 1.371833 0
M  V30 END ATOM
M  V30 BEGIN BOND
M  V30 1 1 1 2
M  V30 2 1 2 3
M  V30 3 1 3 4
M  V30 4 1 4 5
M  V30 5 1 5 6
M  V30 6 2 6 7
M  V30 7 1 7 8
M  V30 8 2 8 9
M  V30 9 1 9 10
M  V30 10 1 9 11
M  V30 11 2 11 12
M  V30 12 1 12 13
M  V30 13 2 13 14
M  V30 14 1 13 15
M  V30 15 1 15 16
M  V30 16 1 16 17
M  V30 17 2 16 18
M  V30 18 1 18 19
M  V30 19 1 19 20
M  V30 20 1 19 21
M  V30 21 1 21 5
M  V30 22 1 12 6
M  V30 23 2 21 15
M  V30 24 1 1 22
M  V30 25 1 1 23
M  V30 26 1 1 24
M  V30 27 1 2 25
M  V30 28 1 2 26
M  V30 29 1 3 27
M  V30 30 1 3 28
M  V30 31 1 7 29
M  V30 32 1 8 30
M  V30 33 1 11 31
M  V30 34 1 17 32
M  V30 35 1 17 33
M  V30 36 1 17 34
M  V30 37 1 20 35
M  V30 38 1 20 36
M  V30 39 1 20 37
M  V30 END BOND
M  V30 END CTAB
M  END
>  <Dataset>  (157) 
ChEMBL_Kinases

>  <Ligand_Instance>  (157) 
nan

>  <PDB_ID>  (157) 
nan

>  <Standardized_SMILES>  (157) 
CCCOn1c2ccc(Cl)cc2c(=O)c2c(C)nn(C)c21

>  <Name>  (157) 
nan

>  <Pocket>  (157) 
nan

>  <ATP_Site>  (157) 
nan

>  <Peripheral>  (157) 
nan

>  <Num_H_Atoms_ProtBoundConf>  (157) 
nan

>  <Num_Resolved_Atoms>  (157) 
nan

>  <Num_Not_Resolved_Atoms>  (157) 
nan

$$$$
CHEMBL207256
     RDKit          3D

  0  0  0  0  0  0  0  0  0  0999 V3000
M  V30 BEGIN CTAB
M  V30 COUNTS 38 40 0 0 0
M  V30 BEGIN ATOM
M  V30 1 C 1.595815 -4.908646 4.519492 0
M  V30 2 C 2.616684 -3.898660 4.040523 0
M  V30 3 O 1.922629 -3.025828 3.144302 0
M  V30 4 C 2.499816 -1.966480 2.491266 0
M  V30 5 O 3.723253 -1.774433 2.715416 0
M  V30 6 C 1.653799 -1.157617 1.598711 0
M  V30 7 C 2.161609 -0.070372 0.903096 0
M  V30 8 C 1.093582 0.439608 0.176793 0
M  V30 9 C 1.000289 1.572541 -0.738422 0
M  V30 10 C 0.678276 1.461065 -2.088053 0
M  V30 11 C 0.602243 2.559268 -2.912736 0
M  V30 12 N 0.848180 3.769186 -2.388061 0
M  V30 13 C 1.163968 3.919529 -1.083034 0
M  V30 14 C 1.251145 2.837864 -0.217391 0
M  V30 15 C -0.001685 -0.344268 0.455003 0
M  V30 16 C -1.394197 -0.329479 0.016816 0
M  V30 17 C -2.110874 0.791180 0.357125 0
M  V30 18 C -3.437028 0.926578 0.001561 0
M  V30 19 C -4.095375 -0.055919 -0.708516 0
M  V30 20 F -5.381460 0.004474 -1.089405 0
M  V30 21 C -3.368927 -1.187994 -1.051505 0
M  V30 22 C -2.044380 -1.319302 -0.694390 0
M  V30 23 N 0.340945 -1.326071 1.328517 0
M  V30 24 H 0.759912 -4.985600 3.809333 0
M  V30 25 H 1.186748 -4.468141 5.472841 0
M  V30 26 H 2.059050 -5.877166 4.779881 0
M  V30 27 H 3.448944 -4.411442 3.478884 0
M  V30 28 H 3.084426 -3.359049 4.863513 0
M  V30 29 H 3.137336 0.376074 0.852357 0
M  V30 30 H 0.483620 0.452749 -2.481128 0
M  V30 31 H 0.352117 2.469577 -3.960226 0
M  V30 32 H 1.350352 4.919291 -0.722373 0
M  V30 33 H 1.510862 3.021400 0.829155 0
M  V30 34 H -1.703116 1.626399 0.912171 0
M  V30 35 H -4.062468 1.784771 0.237704 0
M  V30 36 H -3.823571 -1.992881 -1.606065 0
M  V30 37 H -1.431804 -2.184158 -0.938004 0
M  V30 38 H -0.195997 -2.109180 1.777028 0
M  V30 END ATOM
M  V30 BEGIN BOND
M  V30 1 1 1 2
M  V30 2 1 2 3
M  V30 3 1 3 4
M  V30 4 2 4 5
M  V30 5 1 4 6
M  V30 6 2 6 7
M  V30 7 1 7 8
M  V30 8 1 8 9
M  V30 9 2 9 10
M  V30 10 1 10 11
M  V30 11 2 11 12
M  V30 12 1 12 13
M  V30 13 2 13 14
M  V30 14 2 8 15
M  V30 15 1 15 16
M  V30 16 2 16 17
M  V30 17 1 17 18
M  V30 18 2 18 19
M  V30 19 1 19 20
M  V30 20 1 19 21
M  V30 21 2 21 22
M  V30 22 1 15 23
M  V30 23 1 23 6
M  V30 24 1 14 9
M  V30 25 1 22 16
M  V30 26 1 1 24
M  V30 27 1 1 25
M  V30 28 1 1 26
M  V30 29 1 2 27
M  V30 30 1 2 28
M  V30 31 1 7 29
M  V30 32 1 10 30
M  V30 33 1 11 31
M  V30 34 1 13 32
M  V30 35 1 14 33
M  V30 36 1 17 34
M  V30 37 1 18 35
M  V30 38 1 21 36
M  V30 39 1 22 37
M  V30 40 1 23 38
M  V30 END BOND
M  V30 END CTAB
M  END
>  <Dataset>  (158) 
ChEMBL_Kinases

>  <Ligand_Instance>  (158) 
nan

>  <PDB_ID>  (158) 
nan

>  <Standardized_SMILES>  (158) 
CCOC(=O)c1cc(-c2ccncc2)c(-c2ccc(F)cc2)[nH]1

>  <Name>  (158) 
nan

>  <Pocket>  (158) 
nan

>  <ATP_Site>  (158) 
nan

>  <Peripheral>  (158) 
nan

>  <Num_H_Atoms_ProtBoundConf>  (158) 
nan

>  <Num_Resolved_Atoms>  (158) 
nan

>  <Num_Not_Resolved_Atoms>  (158) 
nan

$$$$
CHEMBL207297
     RDKit          3D

  0  0  0  0  0  0  0  0  0  0999 V3000
M  V30 BEGIN CTAB
M  V30 COUNTS 28 29 0 0 0
M  V30 BEGIN ATOM
M  V30 1 C -2.819589 -1.176160 1.579473 0
M  V30 2 O -1.427733 -1.014708 1.386609 0
M  V30 3 C -0.495891 -1.446368 2.313997 0
M  V30 4 C -0.693032 -2.074145 3.525347 0
M  V30 5 C 0.385821 -2.425708 4.308966 0
M  V30 6 C 1.687343 -2.178679 3.940617 0
M  V30 7 C 1.900540 -1.555449 2.739584 0
M  V30 8 C 0.819086 -1.192013 1.932495 0
M  V30 9 C 1.176707 -0.532615 0.673427 0
M  V30 10 N 0.279213 -0.109965 -0.233631 0
M  V30 11 C 0.866497 0.458880 -1.295047 0
M  V30 12 C 0.285213 1.045590 -2.495171 0
M  V30 13 N -1.138474 1.040289 -2.611343 0
M  V30 14 O 1.112093 1.505949 -3.322798 0
M  V30 15 C 2.209185 0.364477 -0.991037 0
M  V30 16 N 3.294781 0.833043 -1.811891 0
M  V30 17 O 2.353260 -0.225862 0.177392 0
M  V30 18 H -3.183978 -2.125501 1.094018 0
M  V30 19 H -3.109397 -1.231902 2.633737 0
M  V30 20 H -3.390497 -0.327381 1.114497 0
M  V30 21 H -1.736386 -2.240051 3.757766 0
M  V30 22 H 0.120542 -2.906353 5.226304 0
M  V30 23 H 2.479049 -2.484536 4.609362 0
M  V30 24 H 2.927754 -1.350076 2.428478 0
M  V30 25 H -1.717540 0.291242 -3.091732 0
M  V30 26 H -1.414817 1.916773 -2.125005 0
M  V30 27 H 3.585548 0.167325 -2.574152 0
M  V30 28 H 3.850305 1.720916 -1.787653 0
M  V30 END ATOM
M  V30 BEGIN BOND
M  V30 1 1 1 2
M  V30 2 1 2 3
M  V30 3 2 3 4
M  V30 4 1 4 5
M  V30 5 2 5 6
M  V30 6 1 6 7
M  V30 7 2 7 8
M  V30 8 1 8 9
M  V30 9 2 9 10
M  V30 10 1 10 11
M  V30 11 1 11 12
M  V30 12 1 12 13
M  V30 13 2 12 14
M  V30 14 2 11 15
M  V30 15 1 15 16
M  V30 16 1 15 17
M  V30 17 1 8 3
M  V30 18 1 17 9
M  V30 19 1 1 18
M  V30 20 1 1 19
M  V30 21 1 1 20
M  V30 22 1 4 21
M  V30 23 1 5 22
M  V30 24 1 6 23
M  V30 25 1 7 24
M  V30 26 1 13 25
M  V30 27 1 13 26
M  V30 28 1 16 27
M  V30 29 1 16 28
M  V30 END BOND
M  V30 END CTAB
M  END
>  <Dataset>  (159) 
ChEMBL_Kinases

>  <Ligand_Instance>  (159) 
nan

>  <PDB_ID>  (159) 
nan

>  <Standardized_SMILES>  (159) 
COc1ccccc1-c1nc(C(N)=O)c(N)o1

>  <Name>  (159) 
nan

>  <Pocket>  (159) 
nan

>  <ATP_Site>  (159) 
nan

>  <Peripheral>  (159) 
nan

>  <Num_H_Atoms_ProtBoundConf>  (159) 
nan

>  <Num_Resolved_Atoms>  (159) 
nan

>  <Num_Not_Resolved_Atoms>  (159) 
nan

$$$$
CHEMBL207338
     RDKit          3D

  0  0  0  0  0  0  0  0  0  0999 V3000
M  V30 BEGIN CTAB
M  V30 COUNTS 50 53 0 0 0
M  V30 BEGIN ATOM
M  V30 1 C 4.813207 -5.075437 -2.452056 0
M  V30 2 C 3.774337 -4.481194 -3.342595 0
M  V30 3 N 3.390973 -4.881778 -4.565327 0
M  V30 4 N 2.424532 -4.072140 -5.022968 0
M  V30 5 C 2.170755 -3.138343 -4.102791 0
M  V30 6 C 1.301742 -2.069502 -4.022679 0
M  V30 7 C 1.271896 -1.261022 -2.906665 0
M  V30 8 C 2.121030 -1.502920 -1.827434 0
M  V30 9 C 2.101808 -0.645110 -0.623064 0
M  V30 10 C 3.266414 -0.460303 0.091356 0
M  V30 11 N 3.168985 0.343208 1.187971 0
M  V30 12 C 1.991646 0.903445 1.520470 0
M  V30 13 C 0.807751 0.744702 0.835809 0
M  V30 14 N -0.415342 1.321072 1.187572 0
M  V30 15 C -0.797241 2.163566 2.297003 0
M  V30 16 C -0.763190 1.539597 3.633534 0 CFG=1
M  V30 17 N -1.182231 2.545863 4.624699 0
M  V30 18 C -1.578009 0.304427 3.837220 0
M  V30 19 C -3.017887 0.422918 3.625539 0
M  V30 20 C -3.628282 0.203769 2.406565 0
M  V30 21 C -4.986937 0.310234 2.183014 0
M  V30 22 C -5.823706 0.657093 3.224141 0
M  V30 23 C -5.281881 0.895444 4.489665 0
M  V30 24 C -3.915406 0.771753 4.644765 0
M  V30 25 C 0.902535 -0.066989 -0.273581 0
M  V30 26 C 2.996728 -2.567129 -1.889631 0
M  V30 27 C 3.001855 -3.360676 -3.025614 0
M  V30 28 H 5.746388 -4.494381 -2.565585 0
M  V30 29 H 4.465735 -5.121876 -1.399057 0
M  V30 30 H 5.015053 -6.111114 -2.817887 0
M  V30 31 H 1.950982 -4.160309 -5.946600 0
M  V30 32 H 0.633814 -1.848124 -4.826525 0
M  V30 33 H 0.580020 -0.407708 -2.839540 0
M  V30 34 H 4.209256 -0.910616 -0.177248 0
M  V30 35 H 2.035302 1.517398 2.390624 0
M  V30 36 H -1.237861 1.126254 0.547605 0
M  V30 37 H 0.018346 2.959688 2.313809 0
M  V30 38 H -1.703770 2.760718 2.084146 0
M  V30 39 H 0.273629 1.291153 3.918291 0
M  V30 40 H -0.874115 3.466745 4.251738 0
M  V30 41 H -0.676897 2.390565 5.521609 0
M  V30 42 H -1.217906 -0.540577 3.216194 0
M  V30 43 H -1.348655 -0.025994 4.889738 0
M  V30 44 H -3.055817 -0.068174 1.552083 0
M  V30 45 H -5.421850 0.126064 1.197529 0
M  V30 46 H -6.871938 0.740048 3.054644 0
M  V30 47 H -5.898853 1.169817 5.335154 0
M  V30 48 H -3.528476 0.966547 5.651446 0
M  V30 49 H 0.026705 -0.253398 -0.877949 0
M  V30 50 H 3.666348 -2.758709 -1.039870 0
M  V30 END ATOM
M  V30 BEGIN BOND
M  V30 1 1 1 2
M  V30 2 2 2 3
M  V30 3 1 3 4
M  V30 4 1 4 5
M  V30 5 2 5 6
M  V30 6 1 6 7
M  V30 7 2 7 8
M  V30 8 1 8 9
M  V30 9 2 9 10
M  V30 10 1 10 11
M  V30 11 2 11 12
M  V30 12 1 12 13
M  V30 13 1 13 14
M  V30 14 1 14 15
M  V30 15 1 15 16
M  V30 16 1 16 17
M  V30 17 1 16 18
M  V30 18 1 18 19
M  V30 19 2 19 20
M  V30 20 1 20 21
M  V30 21 2 21 22
M  V30 22 1 22 23
M  V30 23 2 23 24
M  V30 24 2 13 25
M  V30 25 1 8 26
M  V30 26 2 26 27
M  V30 27 1 27 2
M  V30 28 1 27 5
M  V30 29 1 25 9
M  V30 30 1 24 19
M  V30 31 1 1 28
M  V30 32 1 1 29
M  V30 33 1 1 30
M  V30 34 1 4 31
M  V30 35 1 6 32
M  V30 36 1 7 33
M  V30 37 1 10 34
M  V30 38 1 12 35
M  V30 39 1 14 36
M  V30 40 1 15 37
M  V30 41 1 15 38
M  V30 42 1 16 39 CFG=1
M  V30 43 1 17 40
M  V30 44 1 17 41
M  V30 45 1 18 42
M  V30 46 1 18 43
M  V30 47 1 20 44
M  V30 48 1 21 45
M  V30 49 1 22 46
M  V30 50 1 23 47
M  V30 51 1 24 48
M  V30 52 1 25 49
M  V30 53 1 26 50
M  V30 END BOND
M  V30 END CTAB
M  END
>  <Dataset>  (160) 
ChEMBL_Kinases

>  <Ligand_Instance>  (160) 
nan

>  <PDB_ID>  (160) 
nan

>  <Standardized_SMILES>  (160) 
Cc1n[nH]c2ccc(-c3cncc(NC[C@@H](N)Cc4ccccc4)c3)cc12

>  <Name>  (160) 
nan

>  <Pocket>  (160) 
nan

>  <ATP_Site>  (160) 
nan

>  <Peripheral>  (160) 
nan

>  <Num_H_Atoms_ProtBoundConf>  (160) 
nan

>  <Num_Resolved_Atoms>  (160) 
nan

>  <Num_Not_Resolved_Atoms>  (160) 
nan

$$$$
CHEMBL207366
     RDKit          3D

  0  0  0  0  0  0  0  0  0  0999 V3000
M  V30 BEGIN CTAB
M  V30 COUNTS 48 51 0 0 0
M  V30 BEGIN ATOM
M  V30 1 O 2.332227 -5.919943 0.443023 0
M  V30 2 C 1.557404 -5.265638 1.374858 0
M  V30 3 C 1.040313 -3.936862 0.797716 0
M  V30 4 N 2.151871 -3.139784 0.459393 0
M  V30 5 C 2.895331 -2.666851 1.572279 0
M  V30 6 C 3.849117 -1.655966 0.942471 0
M  V30 7 C 3.352342 -1.442024 -0.462978 0
M  V30 8 C 1.979480 -2.081650 -0.486070 0
M  V30 9 C 0.929109 -1.095198 -0.141781 0
M  V30 10 C 1.133193 0.269639 -0.159085 0
M  V30 11 C -0.019531 0.941911 0.191595 0
M  V30 12 C -0.352575 2.357077 0.330850 0
M  V30 13 C -0.335084 3.346675 -0.630502 0
M  V30 14 C -0.696382 4.637340 -0.259103 0
M  V30 15 N -1.058848 4.945481 0.998335 0
M  V30 16 C -1.084139 3.989577 1.962373 0
M  V30 17 C -0.733692 2.707376 1.629507 0
M  V30 18 C -0.976388 -0.050919 0.435804 0
M  V30 19 C -2.367828 0.146952 0.839498 0
M  V30 20 C -3.098234 0.829565 -0.136950 0
M  V30 21 C -4.450852 1.127223 0.037796 0
M  V30 22 C -5.026566 0.713062 1.222072 0
M  V30 23 F -6.333685 0.951537 1.492003 0
M  V30 24 C -4.318066 0.029153 2.213969 0
M  V30 25 C -2.982047 -0.250061 2.010858 0
M  V30 26 N -0.354225 -1.223048 0.221971 0
M  V30 27 H 3.032668 -6.498740 0.838347 0
M  V30 28 H 0.677769 -5.885144 1.639661 0
M  V30 29 H 2.106674 -5.083553 2.320822 0
M  V30 30 H 0.356576 -4.141745 -0.045761 0
M  V30 31 H 0.510117 -3.481783 1.671993 0
M  V30 32 H 3.445581 -3.509064 2.068617 0
M  V30 33 H 2.218591 -2.141746 2.304827 0
M  V30 34 H 4.865014 -2.141705 0.954486 0
M  V30 35 H 3.907018 -0.713887 1.528046 0
M  V30 36 H 3.400295 -0.426074 -0.834940 0
M  V30 37 H 3.994239 -2.095379 -1.122276 0
M  V30 38 H 1.750852 -2.501968 -1.497072 0
M  V30 39 H 1.968940 0.910706 -0.379310 0
M  V30 40 H -0.034404 3.002704 -1.593431 0
M  V30 41 H -0.661337 5.364964 -1.058963 0
M  V30 42 H -1.382253 4.263973 2.978704 0
M  V30 43 H -0.777858 1.995764 2.456541 0
M  V30 44 H -2.697930 1.179691 -1.088887 0
M  V30 45 H -5.018802 1.656788 -0.719848 0
M  V30 46 H -4.763396 -0.297644 3.143146 0
M  V30 47 H -2.327602 -0.769455 2.696695 0
M  V30 48 H -0.858973 -2.118539 0.333428 0
M  V30 END ATOM
M  V30 BEGIN BOND
M  V30 1 1 1 2
M  V30 2 1 2 3
M  V30 3 1 3 4
M  V30 4 1 4 5
M  V30 5 1 5 6
M  V30 6 1 6 7
M  V30 7 1 7 8
M  V30 8 1 8 9
M  V30 9 2 9 10
M  V30 10 1 10 11
M  V30 11 1 11 12
M  V30 12 2 12 13
M  V30 13 1 13 14
M  V30 14 2 14 15
M  V30 15 1 15 16
M  V30 16 2 16 17
M  V30 17 2 11 18
M  V30 18 1 18 19
M  V30 19 2 19 20
M  V30 20 1 20 21
M  V30 21 2 21 22
M  V30 22 1 22 23
M  V30 23 1 22 24
M  V30 24 2 24 25
M  V30 25 1 18 26
M  V30 26 1 8 4
M  V30 27 1 26 9
M  V30 28 1 17 12
M  V30 29 1 25 19
M  V30 30 1 1 27
M  V30 31 1 2 28
M  V30 32 1 2 29
M  V30 33 1 3 30
M  V30 34 1 3 31
M  V30 35 1 5 32
M  V30 36 1 5 33
M  V30 37 1 6 34
M  V30 38 1 6 35
M  V30 39 1 7 36
M  V30 40 1 7 37
M  V30 41 1 8 38
M  V30 42 1 10 39
M  V30 43 1 13 40
M  V30 44 1 14 41
M  V30 45 1 16 42
M  V30 46 1 17 43
M  V30 47 1 20 44
M  V30 48 1 21 45
M  V30 49 1 24 46
M  V30 50 1 25 47
M  V30 51 1 26 48
M  V30 END BOND
M  V30 END CTAB
M  END
>  <Dataset>  (161) 
ChEMBL_Kinases

>  <Ligand_Instance>  (161) 
nan

>  <PDB_ID>  (161) 
nan

>  <Standardized_SMILES>  (161) 
OCCN1CCCC1c1cc(-c2ccncc2)c(-c2ccc(F)cc2)[nH]1

>  <Name>  (161) 
nan

>  <Pocket>  (161) 
nan

>  <ATP_Site>  (161) 
nan

>  <Peripheral>  (161) 
nan

>  <Num_H_Atoms_ProtBoundConf>  (161) 
nan

>  <Num_Resolved_Atoms>  (161) 
nan

>  <Num_Not_Resolved_Atoms>  (161) 
nan

$$$$
CHEMBL207373
     RDKit          3D

  0  0  0  0  0  0  0  0  0  0999 V3000
M  V30 BEGIN CTAB
M  V30 COUNTS 45 48 0 0 0
M  V30 BEGIN ATOM
M  V30 1 N 0.683248 -4.986551 1.735885 0
M  V30 2 C -0.465988 -4.344870 1.130801 0 CFG=2
M  V30 3 C -0.452774 -4.231057 -0.335718 0
M  V30 4 O 0.484493 -3.573336 -1.019852 0
M  V30 5 C 1.036189 -2.384525 -1.222178 0
M  V30 6 C 2.063734 -2.559286 -2.175436 0
M  V30 7 N 2.848348 -1.530471 -2.624333 0
M  V30 8 C 2.628587 -0.296347 -2.133123 0
M  V30 9 C 1.640387 -0.032250 -1.193252 0
M  V30 10 C 1.358598 1.281211 -0.628579 0
M  V30 11 C 1.538498 2.460494 -1.350631 0
M  V30 12 C 1.281268 3.717114 -0.840367 0
M  V30 13 C 0.818695 3.818514 0.460500 0
M  V30 14 C 0.525921 5.034733 1.079978 0
M  V30 15 N 0.080566 5.088096 2.340646 0
M  V30 16 C -0.109416 3.973653 3.079933 0
M  V30 17 C 0.178269 2.769665 2.472947 0
M  V30 18 C 0.638449 2.656166 1.180512 0
M  V30 19 C 0.896173 1.412107 0.666528 0
M  V30 20 C 0.876470 -1.091306 -0.770392 0
M  V30 21 C -0.911993 -3.153127 1.882847 0
M  V30 22 C -0.096991 -2.227105 2.496820 0
M  V30 23 C -0.574336 -1.133054 3.183101 0
M  V30 24 C -1.931911 -0.926660 3.278070 0
M  V30 25 C -2.824090 -1.802609 2.694041 0
M  V30 26 C -2.275713 -2.866323 2.029164 0
M  V30 27 H 1.590543 -4.549380 1.513862 0
M  V30 28 H 0.554007 -4.868046 2.777448 0
M  V30 29 H -1.296017 -5.110716 1.351023 0
M  V30 30 H -1.478225 -3.861092 -0.636485 0
M  V30 31 H -0.485555 -5.305787 -0.729331 0
M  V30 32 H 2.408000 -3.466450 -2.698838 0
M  V30 33 H 3.200634 0.571053 -2.432276 0
M  V30 34 H 1.903087 2.362208 -2.373268 0
M  V30 35 H 1.426882 4.621104 -1.416048 0
M  V30 36 H 0.687858 5.904451 0.464394 0
M  V30 37 H -0.471172 4.082107 4.092029 0
M  V30 38 H 0.023293 1.874490 3.073231 0
M  V30 39 H 0.762955 0.509272 1.206911 0
M  V30 40 H 0.082632 -1.043037 -0.067882 0
M  V30 41 H 0.973403 -2.395296 2.418845 0
M  V30 42 H 0.171779 -0.476596 3.622941 0
M  V30 43 H -2.299404 -0.060434 3.821689 0
M  V30 44 H -3.885565 -1.675813 2.745829 0
M  V30 45 H -2.974980 -3.557918 1.568159 0
M  V30 END ATOM
M  V30 BEGIN BOND
M  V30 1 1 1 2
M  V30 2 1 2 3
M  V30 3 1 3 4
M  V30 4 1 4 5
M  V30 5 2 5 6
M  V30 6 1 6 7
M  V30 7 2 7 8
M  V30 8 1 8 9
M  V30 9 1 9 10
M  V30 10 2 10 11
M  V30 11 1 11 12
M  V30 12 2 12 13
M  V30 13 1 13 14
M  V30 14 2 14 15
M  V30 15 1 15 16
M  V30 16 2 16 17
M  V30 17 1 17 18
M  V30 18 2 18 19
M  V30 19 2 9 20
M  V30 20 1 2 21
M  V30 21 2 21 22
M  V30 22 1 22 23
M  V30 23 2 23 24
M  V30 24 1 24 25
M  V30 25 2 25 26
M  V30 26 1 20 5
M  V30 27 1 26 21
M  V30 28 1 19 10
M  V30 29 1 18 13
M  V30 30 1 1 27
M  V30 31 1 1 28
M  V30 32 1 2 29 CFG=3
M  V30 33 1 3 30
M  V30 34 1 3 31
M  V30 35 1 6 32
M  V30 36 1 8 33
M  V30 37 1 11 34
M  V30 38 1 12 35
M  V30 39 1 14 36
M  V30 40 1 16 37
M  V30 41 1 17 38
M  V30 42 1 19 39
M  V30 43 1 20 40
M  V30 44 1 22 41
M  V30 45 1 23 42
M  V30 46 1 24 43
M  V30 47 1 25 44
M  V30 48 1 26 45
M  V30 END BOND
M  V30 END CTAB
M  END
>  <Dataset>  (162) 
ChEMBL_Kinases

>  <Ligand_Instance>  (162) 
nan

>  <PDB_ID>  (162) 
nan

>  <Standardized_SMILES>  (162) 
N[C@H](COc1cncc(-c2ccc3cnccc3c2)c1)c1ccccc1

>  <Name>  (162) 
nan

>  <Pocket>  (162) 
nan

>  <ATP_Site>  (162) 
nan

>  <Peripheral>  (162) 
nan

>  <Num_H_Atoms_ProtBoundConf>  (162) 
nan

>  <Num_Resolved_Atoms>  (162) 
nan

>  <Num_Not_Resolved_Atoms>  (162) 
nan

$$$$
CHEMBL207404
     RDKit          3D

  0  0  0  0  0  0  0  0  0  0999 V3000
M  V30 BEGIN CTAB
M  V30 COUNTS 24 25 0 0 0
M  V30 BEGIN ATOM
M  V30 1 N 0.008793 -3.647410 2.860948 0
M  V30 2 C 1.206226 -2.879895 2.920189 0
M  V30 3 O 2.162730 -3.232572 3.642632 0
M  V30 4 C 1.305803 -1.664287 2.119963 0
M  V30 5 N 0.370147 -1.155488 1.298702 0
M  V30 6 C 0.843905 -0.008427 0.732568 0
M  V30 7 C 0.028853 0.756562 -0.207772 0
M  V30 8 C -1.258644 0.394705 -0.595461 0
M  V30 9 C -1.938551 1.208520 -1.502633 0
M  V30 10 C -1.348892 2.351713 -2.008328 0
M  V30 11 C -0.073726 2.710427 -1.624571 0
M  V30 12 C 0.613081 1.898278 -0.715136 0
M  V30 13 Cl 2.223077 2.420964 -0.279400 0
M  V30 14 O 2.050192 0.168590 1.209059 0
M  V30 15 C 2.366846 -0.792045 2.038173 0
M  V30 16 N 3.601359 -0.919317 2.741425 0
M  V30 17 H -0.624743 -3.308045 3.638483 0
M  V30 18 H -0.872221 -3.633753 3.444936 0
M  V30 19 H -1.663847 -0.518088 -0.159029 0
M  V30 20 H -2.933808 0.907866 -1.787690 0
M  V30 21 H -1.935889 2.928692 -2.703721 0
M  V30 22 H 0.378518 3.608232 -2.027113 0
M  V30 23 H 4.189427 -1.776933 2.830047 0
M  V30 24 H 4.153502 -0.226545 3.287741 0
M  V30 END ATOM
M  V30 BEGIN BOND
M  V30 1 1 1 2
M  V30 2 2 2 3
M  V30 3 1 2 4
M  V30 4 1 4 5
M  V30 5 2 5 6
M  V30 6 1 6 7
M  V30 7 2 7 8
M  V30 8 1 8 9
M  V30 9 2 9 10
M  V30 10 1 10 11
M  V30 11 2 11 12
M  V30 12 1 12 13
M  V30 13 1 6 14
M  V30 14 1 14 15
M  V30 15 1 15 16
M  V30 16 2 15 4
M  V30 17 1 12 7
M  V30 18 1 1 17
M  V30 19 1 1 18
M  V30 20 1 8 19
M  V30 21 1 9 20
M  V30 22 1 10 21
M  V30 23 1 11 22
M  V30 24 1 16 23
M  V30 25 1 16 24
M  V30 END BOND
M  V30 END CTAB
M  END
>  <Dataset>  (163) 
ChEMBL_Kinases

>  <Ligand_Instance>  (163) 
nan

>  <PDB_ID>  (163) 
nan

>  <Standardized_SMILES>  (163) 
NC(=O)c1nc(-c2ccccc2Cl)oc1N

>  <Name>  (163) 
nan

>  <Pocket>  (163) 
nan

>  <ATP_Site>  (163) 
nan

>  <Peripheral>  (163) 
nan

>  <Num_H_Atoms_ProtBoundConf>  (163) 
nan

>  <Num_Resolved_Atoms>  (163) 
nan

>  <Num_Not_Resolved_Atoms>  (163) 
nan

$$$$
CHEMBL207606
     RDKit          3D

  0  0  0  0  0  0  0  0  0  0999 V3000
M  V30 BEGIN CTAB
M  V30 COUNTS 44 45 0 0 0
M  V30 BEGIN ATOM
M  V30 1 C 3.124076 -1.594509 2.386356 0
M  V30 2 O 1.924635 -0.900083 2.636318 0
M  V30 3 C 1.562346 0.135108 1.808922 0
M  V30 4 C 2.315138 0.558390 0.713890 0
M  V30 5 C 1.840648 1.628214 -0.056116 0
M  V30 6 N 2.660092 2.058252 -1.107636 0
M  V30 7 C 3.492573 2.517330 -2.109395 0
M  V30 8 O 4.173900 3.399621 -1.440077 0
M  V30 9 C 3.796228 2.329792 -3.525414 0
M  V30 10 O 3.013921 1.341981 -4.180642 0
M  V30 11 C 3.108986 0.025440 -3.756144 0
M  V30 12 C 2.232748 -0.898437 -4.526735 0
M  V30 13 O 3.831417 -0.435541 -2.827626 0
M  V30 14 C 0.657794 2.301788 0.199385 0
M  V30 15 Cl 0.134730 3.619904 -0.807610 0
M  V30 16 C -0.115882 1.913444 1.273683 0
M  V30 17 C 0.405948 0.859413 1.988304 0
M  V30 18 N -0.386732 0.441053 3.115086 0
M  V30 19 C -1.365309 -0.562811 2.884013 0
M  V30 20 O -1.543752 -1.077483 1.745787 0
M  V30 21 N -2.140575 -0.969629 3.986141 0
M  V30 22 C -3.151177 -1.965700 3.894708 0
M  V30 23 C -2.712954 -3.272006 4.133371 0
M  V30 24 N -3.581343 -4.301258 4.074322 0
M  V30 25 C -4.866609 -4.112043 3.791144 0
M  V30 26 C -5.771543 -5.228074 3.737398 0
M  V30 27 N -6.501067 -6.146582 3.692529 0
M  V30 28 C -5.310339 -2.811996 3.552137 0
M  V30 29 N -4.464177 -1.747123 3.602480 0
M  V30 30 H 3.422390 -2.191242 3.291611 0
M  V30 31 H 3.016227 -2.339379 1.569083 0
M  V30 32 H 3.971618 -0.942252 2.122140 0
M  V30 33 H 3.236372 0.054248 0.489447 0
M  V30 34 H 2.130421 1.369109 -1.775112 0
M  V30 35 H 3.738860 3.291867 -4.090286 0
M  V30 36 H 4.846866 1.985240 -3.617706 0
M  V30 37 H 2.032068 -1.823073 -3.940847 0
M  V30 38 H 2.705223 -1.250887 -5.469566 0
M  V30 39 H 1.270595 -0.455526 -4.790162 0
M  V30 40 H -1.049961 2.378356 1.548853 0
M  V30 41 H -0.192248 0.900025 4.026766 0
M  V30 42 H -2.033276 -0.576374 4.945393 0
M  V30 43 H -1.704609 -3.520833 4.367186 0
M  V30 44 H -6.356382 -2.656555 3.322206 0
M  V30 END ATOM
M  V30 BEGIN BOND
M  V30 1 1 1 2
M  V30 2 1 2 3
M  V30 3 2 3 4
M  V30 4 1 4 5
M  V30 5 1 5 6
M  V30 6 1 6 7
M  V30 7 2 7 8
M  V30 8 1 7 9
M  V30 9 1 9 10
M  V30 10 1 10 11
M  V30 11 1 11 12
M  V30 12 2 11 13
M  V30 13 2 5 14
M  V30 14 1 14 15
M  V30 15 1 14 16
M  V30 16 2 16 17
M  V30 17 1 17 18
M  V30 18 1 18 19
M  V30 19 2 19 20
M  V30 20 1 19 21
M  V30 21 1 21 22
M  V30 22 2 22 23
M  V30 23 1 23 24
M  V30 24 2 24 25
M  V30 25 1 25 26
M  V30 26 3 26 27
M  V30 27 1 25 28
M  V30 28 2 28 29
M  V30 29 1 17 3
M  V30 30 1 29 22
M  V30 31 1 1 30
M  V30 32 1 1 31
M  V30 33 1 1 32
M  V30 34 1 4 33
M  V30 35 1 6 34
M  V30 36 1 9 35
M  V30 37 1 9 36
M  V30 38 1 12 37
M  V30 39 1 12 38
M  V30 40 1 12 39
M  V30 41 1 16 40
M  V30 42 1 18 41
M  V30 43 1 21 42
M  V30 44 1 23 43
M  V30 45 1 28 44
M  V30 END BOND
M  V30 END CTAB
M  END
>  <Dataset>  (164) 
ChEMBL_Kinases

>  <Ligand_Instance>  (164) 
nan

>  <PDB_ID>  (164) 
nan

>  <Standardized_SMILES>  (164) 
COc1cc(NC(=O)COC(C)=O)c(Cl)cc1NC(=O)Nc1cnc(C#N)cn1

>  <Name>  (164) 
nan

>  <Pocket>  (164) 
nan

>  <ATP_Site>  (164) 
nan

>  <Peripheral>  (164) 
nan

>  <Num_H_Atoms_ProtBoundConf>  (164) 
nan

>  <Num_Resolved_Atoms>  (164) 
nan

>  <Num_Not_Resolved_Atoms>  (164) 
nan

$$$$
CHEMBL207457
     RDKit          3D

  0  0  0  0  0  0  0  0  0  0999 V3000
M  V30 BEGIN CTAB
M  V30 COUNTS 46 48 0 0 0
M  V30 BEGIN ATOM
M  V30 1 C -0.945329 -2.778130 1.825892 0
M  V30 2 C 0.097023 -3.607040 1.165122 0
M  V30 3 N 1.206919 -2.921487 0.600809 0
M  V30 4 C 2.084932 -2.096859 1.373343 0
M  V30 5 O 1.733170 -2.049426 2.601482 0
M  V30 6 N 3.237640 -1.390450 0.868534 0
M  V30 7 C 4.028624 -0.599320 1.774737 0
M  V30 8 C 3.296889 0.532110 2.410538 0
M  V30 9 C 2.774845 1.561282 1.466767 0
M  V30 10 C 1.811208 1.108105 0.470268 0
M  V30 11 N 2.064361 0.832114 -0.838635 0
M  V30 12 N 0.964936 0.441340 -1.459512 0
M  V30 13 C 0.950021 0.079356 -2.882148 0
M  V30 14 C -0.069896 0.435619 -0.608088 0
M  V30 15 C 0.477296 0.853144 0.586568 0
M  V30 16 C -0.405932 0.944051 1.658153 0
M  V30 17 O 0.021669 1.312750 2.758388 0
M  V30 18 C -1.755937 0.619603 1.477871 0
M  V30 19 C -2.657623 0.697538 2.512962 0
M  V30 20 C -3.979505 0.368017 2.290326 0
M  V30 21 Cl -5.160952 0.454820 3.586325 0
M  V30 22 C -4.449496 -0.044552 1.052901 0
M  V30 23 C -3.524063 -0.120260 0.007254 0
M  V30 24 C -2.183696 0.208803 0.213210 0
M  V30 25 N -1.354094 0.112905 -0.833810 0
M  V30 26 O -1.816328 -0.293545 -2.052258 0
M  V30 27 H -1.437211 -3.445130 2.597328 0
M  V30 28 H -0.578673 -1.874529 2.318812 0
M  V30 29 H -1.773977 -2.489676 1.148488 0
M  V30 30 H 0.454866 -4.435924 1.844255 0
M  V30 31 H -0.423464 -4.166786 0.339605 0
M  V30 32 H 1.446537 -2.985138 -0.434274 0
M  V30 33 H 3.344548 -1.568164 -0.171925 0
M  V30 34 H 4.877511 -0.148763 1.198053 0
M  V30 35 H 4.459758 -1.213181 2.593384 0
M  V30 36 H 2.477615 0.118833 3.033606 0
M  V30 37 H 4.021049 1.045346 3.095235 0
M  V30 38 H 3.640366 2.027435 0.904422 0
M  V30 39 H 2.392774 2.403483 2.089277 0
M  V30 40 H 0.002127 0.474941 -3.303274 0
M  V30 41 H 0.912771 -1.028479 -3.027049 0
M  V30 42 H 1.814850 0.491393 -3.409995 0
M  V30 43 H -2.324639 1.014902 3.487861 0
M  V30 44 H -5.501332 -0.299574 0.902966 0
M  V30 45 H -3.892082 -0.440744 -0.951992 0
M  V30 46 H -1.471782 -1.187207 -2.393879 0
M  V30 END ATOM
M  V30 BEGIN BOND
M  V30 1 1 1 2
M  V30 2 1 2 3
M  V30 3 1 3 4
M  V30 4 2 4 5
M  V30 5 1 4 6
M  V30 6 1 6 7
M  V30 7 1 7 8
M  V30 8 1 8 9
M  V30 9 1 9 10
M  V30 10 2 10 11
M  V30 11 1 11 12
M  V30 12 1 12 13
M  V30 13 1 12 14
M  V30 14 2 14 15
M  V30 15 1 15 16
M  V30 16 2 16 17
M  V30 17 1 16 18
M  V30 18 2 18 19
M  V30 19 1 19 20
M  V30 20 1 20 21
M  V30 21 2 20 22
M  V30 22 1 22 23
M  V30 23 2 23 24
M  V30 24 1 24 25
M  V30 25 1 25 26
M  V30 26 1 15 10
M  V30 27 1 24 18
M  V30 28 1 25 14
M  V30 29 1 1 27
M  V30 30 1 1 28
M  V30 31 1 1 29
M  V30 32 1 2 30
M  V30 33 1 2 31
M  V30 34 1 3 32
M  V30 35 1 6 33
M  V30 36 1 7 34
M  V30 37 1 7 35
M  V30 38 1 8 36
M  V30 39 1 8 37
M  V30 40 1 9 38
M  V30 41 1 9 39
M  V30 42 1 13 40
M  V30 43 1 13 41
M  V30 44 1 13 42
M  V30 45 1 19 43
M  V30 46 1 22 44
M  V30 47 1 23 45
M  V30 48 1 26 46
M  V30 END BOND
M  V30 END CTAB
M  END
>  <Dataset>  (165) 
ChEMBL_Kinases

>  <Ligand_Instance>  (165) 
nan

>  <PDB_ID>  (165) 
nan

>  <Standardized_SMILES>  (165) 
CCNC(=O)NCCCc1nn(C)c2c1c(=O)c1cc(Cl)ccc1n2O

>  <Name>  (165) 
nan

>  <Pocket>  (165) 
nan

>  <ATP_Site>  (165) 
nan

>  <Peripheral>  (165) 
nan

>  <Num_H_Atoms_ProtBoundConf>  (165) 
nan

>  <Num_Resolved_Atoms>  (165) 
nan

>  <Num_Not_Resolved_Atoms>  (165) 
nan

$$$$
CHEMBL207476
     RDKit          3D

  0  0  0  0  0  0  0  0  0  0999 V3000
M  V30 BEGIN CTAB
M  V30 COUNTS 50 54 0 0 0
M  V30 BEGIN ATOM
M  V30 1 N 2.864956 -3.345008 5.073750 0
M  V30 2 C 3.219579 -2.886517 3.775101 0
M  V30 3 N 4.425204 -3.101255 3.177573 0
M  V30 4 C 4.677810 -2.628469 1.937267 0
M  V30 5 C 3.707880 -1.916059 1.255838 0
M  V30 6 C 2.495209 -1.712314 1.883249 0
M  V30 7 C 1.469035 -0.966050 1.177213 0
M  V30 8 C 1.631874 0.351296 0.800564 0
M  V30 9 C 2.765056 1.264027 0.988236 0
M  V30 10 C 3.455666 1.827975 -0.077667 0
M  V30 11 C 4.508939 2.675766 0.200090 0
M  V30 12 C 4.921337 3.000274 1.472164 0
M  V30 13 F 5.955985 3.832909 1.731808 0
M  V30 14 C 4.247107 2.449354 2.554566 0
M  V30 15 C 3.188196 1.596989 2.275864 0
M  V30 16 N 0.509539 0.751135 0.170815 0
M  V30 17 C -0.362564 -0.263716 0.132517 0
M  V30 18 C -1.641484 -0.444561 -0.368566 0
M  V30 19 C -2.353335 -1.625842 -0.279836 0
M  V30 20 C -3.726273 -1.753702 -0.838397 0
M  V30 21 C -4.731280 -0.960647 -0.041781 0
M  V30 22 C -5.010990 0.408208 -0.556003 0
M  V30 23 N -5.183068 0.483526 -1.976769 0
M  V30 24 C -4.164944 -0.159528 -2.752650 0
M  V30 25 C -3.817780 -1.545834 -2.306030 0
M  V30 26 C -1.683912 -2.650792 0.363237 0
M  V30 27 C -0.403354 -2.494835 0.873615 0
M  V30 28 N 0.230391 -1.318412 0.752239 0
M  V30 29 N 2.251663 -2.188145 3.122104 0
M  V30 30 H 2.800443 -2.870344 6.020907 0
M  V30 31 H 2.599260 -4.357614 5.194565 0
M  V30 32 H 5.673052 -2.842419 1.523389 0
M  V30 33 H 3.964548 -1.557579 0.258541 0
M  V30 34 H 3.142063 1.581608 -1.090986 0
M  V30 35 H 5.024758 3.097201 -0.653448 0
M  V30 36 H 4.480044 2.630618 3.596618 0
M  V30 37 H 2.635922 1.145924 3.107139 0
M  V30 38 H -2.049401 0.414273 -0.840438 0
M  V30 39 H -4.018037 -2.821507 -0.642926 0
M  V30 40 H -4.283994 -0.843790 0.985264 0
M  V30 41 H -5.683824 -1.508223 0.126346 0
M  V30 42 H -5.970998 0.744445 -0.095980 0
M  V30 43 H -4.260945 1.147057 -0.210383 0
M  V30 44 H -5.190640 1.494978 -2.238705 0
M  V30 45 H -4.578824 -0.250280 -3.795369 0
M  V30 46 H -3.261902 0.497852 -2.914211 0
M  V30 47 H -2.863325 -1.844365 -2.776944 0
M  V30 48 H -4.593832 -2.241053 -2.740792 0
M  V30 49 H -2.176227 -3.601300 0.469724 0
M  V30 50 H 0.066940 -3.336693 1.366842 0
M  V30 END ATOM
M  V30 BEGIN BOND
M  V30 1 1 1 2
M  V30 2 2 2 3
M  V30 3 1 3 4
M  V30 4 2 4 5
M  V30 5 1 5 6
M  V30 6 1 6 7
M  V30 7 2 7 8
M  V30 8 1 8 9
M  V30 9 2 9 10
M  V30 10 1 10 11
M  V30 11 2 11 12
M  V30 12 1 12 13
M  V30 13 1 12 14
M  V30 14 2 14 15
M  V30 15 1 8 16
M  V30 16 2 16 17
M  V30 17 1 17 18
M  V30 18 2 18 19
M  V30 19 1 19 20
M  V30 20 1 20 21
M  V30 21 1 21 22
M  V30 22 1 22 23
M  V30 23 1 23 24
M  V30 24 1 24 25
M  V30 25 1 19 26
M  V30 26 2 26 27
M  V30 27 1 27 28
M  V30 28 2 6 29
M  V30 29 1 29 2
M  V30 30 1 28 7
M  V30 31 1 15 9
M  V30 32 1 28 17
M  V30 33 1 25 20
M  V30 34 1 1 30
M  V30 35 1 1 31
M  V30 36 1 4 32
M  V30 37 1 5 33
M  V30 38 1 10 34
M  V30 39 1 11 35
M  V30 40 1 14 36
M  V30 41 1 15 37
M  V30 42 1 18 38
M  V30 43 1 20 39
M  V30 44 1 21 40
M  V30 45 1 21 41
M  V30 46 1 22 42
M  V30 47 1 22 43
M  V30 48 1 23 44
M  V30 49 1 24 45
M  V30 50 1 24 46
M  V30 51 1 25 47
M  V30 52 1 25 48
M  V30 53 1 26 49
M  V30 54 1 27 50
M  V30 END BOND
M  V30 END CTAB
M  END
>  <Dataset>  (166) 
ChEMBL_Kinases

>  <Ligand_Instance>  (166) 
nan

>  <PDB_ID>  (166) 
nan

>  <Standardized_SMILES>  (166) 
Nc1nccc(-c2c(-c3ccc(F)cc3)nc3cc(C4CCNCC4)ccn23)n1

>  <Name>  (166) 
nan

>  <Pocket>  (166) 
nan

>  <ATP_Site>  (166) 
nan

>  <Peripheral>  (166) 
nan

>  <Num_H_Atoms_ProtBoundConf>  (166) 
nan

>  <Num_Resolved_Atoms>  (166) 
nan

>  <Num_Not_Resolved_Atoms>  (166) 
nan

$$$$
CHEMBL207496
     RDKit          3D

  0  0  0  0  0  0  0  0  0  0999 V3000
M  V30 BEGIN CTAB
M  V30 COUNTS 51 55 0 0 0
M  V30 BEGIN ATOM
M  V30 1 N -1.151675 -2.555849 -0.010958 0
M  V30 2 C -1.087447 -2.506631 1.426898 0 CFG=2
M  V30 3 C 0.311836 -2.185909 1.917542 0
M  V30 4 O 0.765590 -0.945866 1.451752 0
M  V30 5 C 2.029499 -0.495323 1.808227 0
M  V30 6 C 2.972462 -1.118749 2.602307 0
M  V30 7 N 4.156294 -0.526519 2.842803 0
M  V30 8 C 4.440298 0.678979 2.315141 0
M  V30 9 C 3.547997 1.361470 1.512849 0
M  V30 10 N 3.895420 2.570755 1.013969 0
M  V30 11 C 3.035658 3.270221 0.218261 0
M  V30 12 C 3.415087 4.572321 -0.316385 0
M  V30 13 C 2.624606 5.353862 -1.125052 0
M  V30 14 C 2.981765 6.579115 -1.628175 0
M  V30 15 N 4.208530 7.077553 -1.314962 0
M  V30 16 C 5.011399 6.318420 -0.512659 0
M  V30 17 C 4.659526 5.085670 -0.002781 0
M  V30 18 C 1.809447 2.700576 -0.054671 0
M  V30 19 C 1.462464 1.465752 0.458475 0
M  V30 20 C 2.331414 0.755840 1.264276 0
M  V30 21 C -1.585674 -3.785201 2.054731 0
M  V30 22 C -2.993688 -4.074704 1.700094 0
M  V30 23 C -4.034176 -3.776925 2.569648 0
M  V30 24 N -5.225228 -4.101077 2.040097 0
M  V30 25 C -5.010482 -4.618264 0.816735 0
M  V30 26 C -5.770686 -5.125477 -0.199565 0
M  V30 27 C -5.210784 -5.597261 -1.369389 0
M  V30 28 C -3.836159 -5.578716 -1.570439 0
M  V30 29 C -3.066041 -5.068613 -0.549880 0
M  V30 30 C -3.647434 -4.602347 0.609550 0
M  V30 31 H -2.117853 -2.288611 -0.296155 0
M  V30 32 H -0.499508 -1.863845 -0.408266 0
M  V30 33 H -1.795866 -1.704753 1.759659 0
M  V30 34 H 1.002763 -2.968951 1.532063 0
M  V30 35 H 0.381599 -2.242663 3.019219 0
M  V30 36 H 2.641213 -2.090587 2.978423 0
M  V30 37 H 5.427148 1.091233 2.560184 0
M  V30 38 H 1.659190 4.997442 -1.391054 0
M  V30 39 H 2.296231 7.140348 -2.265547 0
M  V30 40 H 5.976738 6.781862 -0.305052 0
M  V30 41 H 5.387526 4.565715 0.632001 0
M  V30 42 H 1.086970 3.183604 -0.666293 0
M  V30 43 H 0.488180 1.032867 0.231014 0
M  V30 44 H -0.923677 -4.594592 1.628209 0
M  V30 45 H -1.444276 -3.794507 3.144486 0
M  V30 46 H -3.955774 -3.334291 3.570233 0
M  V30 47 H -6.175142 -3.986660 2.472232 0
M  V30 48 H -6.838343 -5.156888 -0.081594 0
M  V30 49 H -5.898516 -5.984776 -2.125607 0
M  V30 50 H -3.479871 -5.968962 -2.517684 0
M  V30 51 H -2.010847 -5.066795 -0.714250 0
M  V30 END ATOM
M  V30 BEGIN BOND
M  V30 1 1 1 2
M  V30 2 1 2 3
M  V30 3 1 3 4
M  V30 4 1 4 5
M  V30 5 2 5 6
M  V30 6 1 6 7
M  V30 7 2 7 8
M  V30 8 1 8 9
M  V30 9 2 9 10
M  V30 10 1 10 11
M  V30 11 1 11 12
M  V30 12 2 12 13
M  V30 13 1 13 14
M  V30 14 2 14 15
M  V30 15 1 15 16
M  V30 16 2 16 17
M  V30 17 2 11 18
M  V30 18 1 18 19
M  V30 19 2 19 20
M  V30 20 1 2 21
M  V30 21 1 21 22
M  V30 22 2 22 23
M  V30 23 1 23 24
M  V30 24 1 24 25
M  V30 25 2 25 26
M  V30 26 1 26 27
M  V30 27 2 27 28
M  V30 28 1 28 29
M  V30 29 2 29 30
M  V30 30 1 20 5
M  V30 31 1 30 22
M  V30 32 1 20 9
M  V30 33 1 30 25
M  V30 34 1 17 12
M  V30 35 1 1 31
M  V30 36 1 1 32
M  V30 37 1 2 33 CFG=1
M  V30 38 1 3 34
M  V30 39 1 3 35
M  V30 40 1 6 36
M  V30 41 1 8 37
M  V30 42 1 13 38
M  V30 43 1 14 39
M  V30 44 1 16 40
M  V30 45 1 17 41
M  V30 46 1 18 42
M  V30 47 1 19 43
M  V30 48 1 21 44
M  V30 49 1 21 45
M  V30 50 1 23 46
M  V30 51 1 24 47
M  V30 52 1 26 48
M  V30 53 1 27 49
M  V30 54 1 28 50
M  V30 55 1 29 51
M  V30 END BOND
M  V30 END CTAB
M  END
>  <Dataset>  (167) 
ChEMBL_Kinases

>  <Ligand_Instance>  (167) 
nan

>  <PDB_ID>  (167) 
nan

>  <Standardized_SMILES>  (167) 
N[C@H](COc1cncc2nc(-c3ccncc3)ccc12)Cc1c[nH]c2ccccc12

>  <Name>  (167) 
nan

>  <Pocket>  (167) 
nan

>  <ATP_Site>  (167) 
nan

>  <Peripheral>  (167) 
nan

>  <Num_H_Atoms_ProtBoundConf>  (167) 
nan

>  <Num_Resolved_Atoms>  (167) 
nan

>  <Num_Not_Resolved_Atoms>  (167) 
nan

$$$$
CHEMBL207530
     RDKit          3D

  0  0  0  0  0  0  0  0  0  0999 V3000
M  V30 BEGIN CTAB
M  V30 COUNTS 48 51 0 0 0
M  V30 BEGIN ATOM
M  V30 1 N -0.816991 -2.124296 4.121527 0
M  V30 2 C 0.333307 -2.728926 3.523781 0 CFG=2
M  V30 3 C 0.843832 -1.867466 2.403317 0
M  V30 4 O 1.975379 -2.408324 1.774495 0
M  V30 5 C 2.541281 -1.710186 0.726905 0
M  V30 6 C 3.668033 -2.240325 0.094366 0
M  V30 7 N 4.240473 -1.575968 -0.933645 0
M  V30 8 C 3.773940 -0.397736 -1.397341 0
M  V30 9 C 2.679758 0.103893 -0.773112 0
M  V30 10 C 2.006366 1.399826 -1.136042 0
M  V30 11 N 1.135237 2.056491 -0.833822 0
M  V30 12 C 0.763530 3.213858 -1.368640 0
M  V30 13 C -0.382798 3.990239 -0.904661 0
M  V30 14 C -1.214438 3.625035 0.134424 0
M  V30 15 C -2.298953 4.350050 0.580604 0
M  V30 16 C -2.596820 5.541522 -0.047642 0
M  V30 17 N -1.804683 5.932464 -1.069969 0
M  V30 18 C -0.755407 5.192005 -1.472145 0
M  V30 19 C 1.544643 3.681463 -2.439041 0
M  V30 20 S 2.802417 2.339184 -2.577126 0
M  V30 21 C 2.027299 -0.497074 0.280337 0
M  V30 22 C 0.064795 -4.146377 3.091327 0
M  V30 23 C -1.015879 -4.264883 2.099857 0
M  V30 24 C -2.337911 -4.440878 2.505705 0
M  V30 25 C -3.328879 -4.548637 1.549110 0
M  V30 26 C -3.071832 -4.489989 0.195350 0
M  V30 27 C -1.773962 -4.316930 -0.217721 0
M  V30 28 C -0.782863 -4.209180 0.740346 0
M  V30 29 H -0.854653 -1.100132 4.092312 0
M  V30 30 H -1.071627 -2.526068 5.050199 0
M  V30 31 H 1.134496 -2.787740 4.290049 0
M  V30 32 H 1.162591 -0.899671 2.861189 0
M  V30 33 H 0.080419 -1.637178 1.643130 0
M  V30 34 H 4.107608 -3.178238 0.400909 0
M  V30 35 H 4.203531 0.156459 -2.210913 0
M  V30 36 H -0.997056 2.678204 0.651372 0
M  V30 37 H -2.881952 3.982433 1.393442 0
M  V30 38 H -3.457527 6.064533 0.346103 0
M  V30 39 H -0.179544 5.598725 -2.308033 0
M  V30 40 H 1.430223 4.557398 -2.996915 0
M  V30 41 H 1.170776 -0.121881 0.782209 0
M  V30 42 H -0.219308 -4.712522 3.985089 0
M  V30 43 H 0.982461 -4.605592 2.681549 0
M  V30 44 H -2.550201 -4.488525 3.582914 0
M  V30 45 H -4.333189 -4.684516 1.971660 0
M  V30 46 H -3.915711 -4.584002 -0.501964 0
M  V30 47 H -1.540628 -4.266804 -1.284768 0
M  V30 48 H 0.254440 -4.070948 0.414647 0
M  V30 END ATOM
M  V30 BEGIN BOND
M  V30 1 1 1 2
M  V30 2 1 2 3
M  V30 3 1 3 4
M  V30 4 1 4 5
M  V30 5 2 5 6
M  V30 6 1 6 7
M  V30 7 2 7 8
M  V30 8 1 8 9
M  V30 9 1 9 10
M  V30 10 2 10 11
M  V30 11 1 11 12
M  V30 12 1 12 13
M  V30 13 2 13 14
M  V30 14 1 14 15
M  V30 15 2 15 16
M  V30 16 1 16 17
M  V30 17 2 17 18
M  V30 18 2 12 19
M  V30 19 1 19 20
M  V30 20 2 9 21
M  V30 21 1 2 22
M  V30 22 1 22 23
M  V30 23 2 23 24
M  V30 24 1 24 25
M  V30 25 2 25 26
M  V30 26 1 26 27
M  V30 27 2 27 28
M  V30 28 1 21 5
M  V30 29 1 28 23
M  V30 30 1 20 10
M  V30 31 1 18 13
M  V30 32 1 1 29
M  V30 33 1 1 30
M  V30 34 1 2 31 CFG=1
M  V30 35 1 3 32
M  V30 36 1 3 33
M  V30 37 1 6 34
M  V30 38 1 8 35
M  V30 39 1 14 36
M  V30 40 1 15 37
M  V30 41 1 16 38
M  V30 42 1 18 39
M  V30 43 1 19 40
M  V30 44 1 21 41
M  V30 45 1 22 42
M  V30 46 1 22 43
M  V30 47 1 24 44
M  V30 48 1 25 45
M  V30 49 1 26 46
M  V30 50 1 27 47
M  V30 51 1 28 48
M  V30 END BOND
M  V30 END CTAB
M  END
>  <Dataset>  (168) 
ChEMBL_Kinases

>  <Ligand_Instance>  (168) 
nan

>  <PDB_ID>  (168) 
nan

>  <Standardized_SMILES>  (168) 
N[C@H](COc1cncc(-c2nc(-c3cccnc3)cs2)c1)Cc1ccccc1

>  <Name>  (168) 
nan

>  <Pocket>  (168) 
nan

>  <ATP_Site>  (168) 
nan

>  <Peripheral>  (168) 
nan

>  <Num_H_Atoms_ProtBoundConf>  (168) 
nan

>  <Num_Resolved_Atoms>  (168) 
nan

>  <Num_Not_Resolved_Atoms>  (168) 
nan

$$$$
CHEMBL207536
     RDKit          3D

  0  0  0  0  0  0  0  0  0  0999 V3000
M  V30 BEGIN CTAB
M  V30 COUNTS 33 36 0 0 0
M  V30 BEGIN ATOM
M  V30 1 C -0.931711 -3.321186 1.930204 0
M  V30 2 N -0.941361 -1.993427 1.355858 0
M  V30 3 C 0.203015 -1.433158 0.893951 0
M  V30 4 N 1.496484 -1.788965 0.801088 0 CHG=1 VAL=4
M  V30 5 O 1.867980 -3.031460 1.269284 0 CHG=-1 VAL=1
M  V30 6 C 2.416877 -0.965607 0.267833 0
M  V30 7 C 3.727441 -1.403862 0.207472 0
M  V30 8 C 4.705166 -0.585242 -0.334689 0
M  V30 9 C 4.423793 0.691207 -0.834823 0
M  V30 10 Cl 5.698382 1.686271 -1.510324 0
M  V30 11 C 3.101046 1.122938 -0.769307 0
M  V30 12 C 2.143220 0.292018 -0.225613 0
M  V30 13 C 0.826198 0.698282 -0.150143 0
M  V30 14 O 0.478918 1.845057 -0.581417 0
M  V30 15 C -0.155379 -0.104736 0.385983 0
M  V30 16 C -1.514700 -0.005243 0.602676 0
M  V30 17 N -1.955762 -1.139055 1.179023 0
M  V30 18 C -3.333889 -1.311261 1.517212 0
M  V30 19 O -3.790966 -2.364199 2.061521 0
M  V30 20 N -4.213242 -0.211429 1.208041 0
M  V30 21 C -3.830642 0.575167 0.028426 0
M  V30 22 C -2.433711 1.122671 0.288899 0
M  V30 23 H -0.914648 -4.059229 1.113672 0
M  V30 24 H -1.790124 -3.443514 2.622918 0
M  V30 25 H -0.022934 -3.409981 2.590484 0
M  V30 26 H 4.082059 -2.378175 0.562481 0
M  V30 27 H 5.736416 -0.902317 -0.394222 0
M  V30 28 H 2.854283 2.108610 -1.149902 0
M  V30 29 H -5.052661 -0.056074 1.842074 0
M  V30 30 H -3.821954 -0.053325 -0.893201 0
M  V30 31 H -4.539736 1.391551 -0.139166 0
M  V30 32 H -2.063712 1.716777 -0.546686 0
M  V30 33 H -2.513166 1.728826 1.235502 0
M  V30 END ATOM
M  V30 BEGIN BOND
M  V30 1 1 1 2
M  V30 2 1 2 3
M  V30 3 2 3 4
M  V30 4 1 4 5
M  V30 5 1 4 6
M  V30 6 2 6 7
M  V30 7 1 7 8
M  V30 8 2 8 9
M  V30 9 1 9 10
M  V30 10 1 9 11
M  V30 11 2 11 12
M  V30 12 1 12 13
M  V30 13 2 13 14
M  V30 14 1 13 15
M  V30 15 2 15 16
M  V30 16 1 16 17
M  V30 17 1 17 18
M  V30 18 2 18 19
M  V30 19 1 18 20
M  V30 20 1 20 21
M  V30 21 1 21 22
M  V30 22 1 17 2
M  V30 23 1 15 3
M  V30 24 1 22 16
M  V30 25 1 12 6
M  V30 26 1 1 23
M  V30 27 1 1 24
M  V30 28 1 1 25
M  V30 29 1 7 26
M  V30 30 1 8 27
M  V30 31 1 11 28
M  V30 32 1 20 29
M  V30 33 1 21 30
M  V30 34 1 21 31
M  V30 35 1 22 32
M  V30 36 1 22 33
M  V30 END BOND
M  V30 END CTAB
M  END
>  <Dataset>  (169) 
ChEMBL_Kinases

>  <Ligand_Instance>  (169) 
nan

>  <PDB_ID>  (169) 
nan

>  <Standardized_SMILES>  (169) 
Cn1c2[n+]([O-])c3ccc(Cl)cc3c(=O)c-2c2n1C(=O)NCC2

>  <Name>  (169) 
nan

>  <Pocket>  (169) 
nan

>  <ATP_Site>  (169) 
nan

>  <Peripheral>  (169) 
nan

>  <Num_H_Atoms_ProtBoundConf>  (169) 
nan

>  <Num_Resolved_Atoms>  (169) 
nan

>  <Num_Not_Resolved_Atoms>  (169) 
nan

$$$$
CHEMBL207545
     RDKit          3D

  0  0  0  0  0  0  0  0  0  0999 V3000
M  V30 BEGIN CTAB
M  V30 COUNTS 64 69 0 0 0
M  V30 BEGIN ATOM
M  V30 1 N 4.609020 -2.983849 2.773997 0
M  V30 2 C 3.599014 -2.239980 3.508402 0 CFG=2
M  V30 3 C 2.732202 -1.397593 2.659453 0
M  V30 4 O 2.010772 -2.175564 1.679956 0
M  V30 5 C 1.170240 -1.435397 0.846408 0
M  V30 6 C 1.023072 -0.065768 0.931332 0
M  V30 7 N 0.203029 0.619109 0.111313 0
M  V30 8 C -0.529318 -0.009365 -0.852000 0
M  V30 9 C -1.404791 0.744036 -1.719394 0
M  V30 10 C -2.160753 1.382626 -2.444505 0
M  V30 11 C -3.048709 2.102875 -3.294402 0
M  V30 12 C -2.577671 3.030043 -4.181332 0
M  V30 13 C -3.383380 3.763151 -5.033274 0
M  V30 14 C -4.759329 3.526869 -4.967957 0
M  V30 15 C -5.296738 2.598148 -4.087899 0
M  V30 16 C -4.413882 1.907422 -3.269342 0
M  V30 17 C -0.419040 -1.402065 -0.984131 0
M  V30 18 C -1.176686 -2.128653 -2.000368 0
M  V30 19 C -1.271481 -1.725065 -3.327434 0
M  V30 20 C -1.993542 -2.420317 -4.274643 0
M  V30 21 C -2.666130 -3.577747 -3.918934 0
M  V30 22 C -3.403064 -4.311041 -4.830227 0
M  V30 23 N -4.045467 -5.432920 -4.452474 0
M  V30 24 C -4.004110 -5.892501 -3.186275 0
M  V30 25 C -3.263634 -5.137648 -2.314804 0
M  V30 26 C -2.558527 -3.967233 -2.579998 0
M  V30 27 C -1.847078 -3.295787 -1.613791 0
M  V30 28 C 0.437743 -2.111919 -0.126069 0
M  V30 29 C 4.248506 -1.430828 4.592529 0
M  V30 30 C 3.332547 -0.618547 5.415050 0
M  V30 31 C 2.858432 -1.112482 6.637463 0
M  V30 32 N 2.014236 -0.189924 7.166636 0
M  V30 33 C 1.907233 0.870751 6.372480 0
M  V30 34 C 1.204957 2.059063 6.448655 0
M  V30 35 C 1.303484 2.995506 5.456569 0
M  V30 36 C 2.135415 2.689682 4.386291 0
M  V30 37 C 2.851273 1.531681 4.260191 0
M  V30 38 C 2.728806 0.609191 5.276717 0
M  V30 39 H 5.373486 -2.348271 2.463088 0
M  V30 40 H 4.949051 -3.736595 3.422834 0
M  V30 41 H 2.981697 -3.036789 4.021356 0
M  V30 42 H 3.238154 -0.609861 2.103918 0
M  V30 43 H 1.931960 -0.967424 3.294787 0
M  V30 44 H 1.577957 0.486196 1.676521 0
M  V30 45 H -1.530377 3.238398 -4.260798 0
M  V30 46 H -3.029706 4.496453 -5.737739 0
M  V30 47 H -5.458378 4.075547 -5.617622 0
M  V30 48 H -6.374028 2.431416 -4.055514 0
M  V30 49 H -4.847310 1.195250 -2.597936 0
M  V30 50 H -0.754610 -0.827913 -3.638761 0
M  V30 51 H -2.033989 -2.066859 -5.280938 0
M  V30 52 H -3.416632 -3.912504 -5.845361 0
M  V30 53 H -4.504785 -6.781690 -2.856937 0
M  V30 54 H -3.220624 -5.495408 -1.289826 0
M  V30 55 H -1.838827 -3.702729 -0.596237 0
M  V30 56 H 0.483905 -3.170037 -0.269764 0
M  V30 57 H 4.980719 -0.747781 4.061152 0
M  V30 58 H 4.857319 -2.131191 5.209588 0
M  V30 59 H 3.097076 -2.061774 7.116888 0
M  V30 60 H 1.477003 -0.235027 8.079577 0
M  V30 61 H 0.563919 2.291299 7.276254 0
M  V30 62 H 0.817330 3.946533 5.394144 0
M  V30 63 H 2.258388 3.399185 3.558592 0
M  V30 64 H 3.485116 1.318233 3.438260 0
M  V30 END ATOM
M  V30 BEGIN BOND
M  V30 1 1 1 2
M  V30 2 1 2 3
M  V30 3 1 3 4
M  V30 4 1 4 5
M  V30 5 2 5 6
M  V30 6 1 6 7
M  V30 7 2 7 8
M  V30 8 1 8 9
M  V30 9 3 9 10
M  V30 10 1 10 11
M  V30 11 2 11 12
M  V30 12 1 12 13
M  V30 13 2 13 14
M  V30 14 1 14 15
M  V30 15 2 15 16
M  V30 16 1 8 17
M  V30 17 1 17 18
M  V30 18 2 18 19
M  V30 19 1 19 20
M  V30 20 2 20 21
M  V30 21 1 21 22
M  V30 22 2 22 23
M  V30 23 1 23 24
M  V30 24 2 24 25
M  V30 25 1 25 26
M  V30 26 2 26 27
M  V30 27 2 17 28
M  V30 28 1 2 29
M  V30 29 1 29 30
M  V30 30 2 30 31
M  V30 31 1 31 32
M  V30 32 1 32 33
M  V30 33 2 33 34
M  V30 34 1 34 35
M  V30 35 2 35 36
M  V30 36 1 36 37
M  V30 37 2 37 38
M  V30 38 1 28 5
M  V30 39 1 38 30
M  V30 40 1 16 11
M  V30 41 1 27 18
M  V30 42 1 38 33
M  V30 43 1 26 21
M  V30 44 1 1 39
M  V30 45 1 1 40
M  V30 46 1 2 41 CFG=1
M  V30 47 1 3 42
M  V30 48 1 3 43
M  V30 49 1 6 44
M  V30 50 1 12 45
M  V30 51 1 13 46
M  V30 52 1 14 47
M  V30 53 1 15 48
M  V30 54 1 16 49
M  V30 55 1 19 50
M  V30 56 1 20 51
M  V30 57 1 22 52
M  V30 58 1 24 53
M  V30 59 1 25 54
M  V30 60 1 27 55
M  V30 61 1 28 56
M  V30 62 1 29 57
M  V30 63 1 29 58
M  V30 64 1 31 59
M  V30 65 1 32 60
M  V30 66 1 34 61
M  V30 67 1 35 62
M  V30 68 1 36 63
M  V30 69 1 37 64
M  V30 END BOND
M  V30 END CTAB
M  END
>  <Dataset>  (170) 
ChEMBL_Kinases

>  <Ligand_Instance>  (170) 
nan

>  <PDB_ID>  (170) 
nan

>  <Standardized_SMILES>  (170) 
N[C@H](COc1cnc(C#Cc2ccccc2)c(-c2ccc3cnccc3c2)c1)Cc1c[nH]c2ccccc12

>  <Name>  (170) 
nan

>  <Pocket>  (170) 
nan

>  <ATP_Site>  (170) 
nan

>  <Peripheral>  (170) 
nan

>  <Num_H_Atoms_ProtBoundConf>  (170) 
nan

>  <Num_Resolved_Atoms>  (170) 
nan

>  <Num_Not_Resolved_Atoms>  (170) 
nan

$$$$
CHEMBL207582
     RDKit          3D

  0  0  0  0  0  0  0  0  0  0999 V3000
M  V30 BEGIN CTAB
M  V30 COUNTS 54 56 0 0 0
M  V30 BEGIN ATOM
M  V30 1 C -3.295022 -2.642665 1.769187 0
M  V30 2 O -2.366144 -3.488440 1.080179 0
M  V30 3 C -1.009233 -3.207504 1.189313 0
M  V30 4 C -0.508193 -2.153316 1.928764 0
M  V30 5 C 0.847023 -1.905897 2.013341 0
M  V30 6 N 1.316008 -0.789814 2.799255 0
M  V30 7 C 1.381039 0.349638 1.955769 0
M  V30 8 O 1.083438 0.373486 0.748958 0
M  V30 9 C 1.832990 1.688483 2.458962 0
M  V30 10 C 1.804655 2.715305 1.367109 0
M  V30 11 C 2.262968 4.079065 1.879053 0
M  V30 12 C 1.390881 4.562756 2.973233 0
M  V30 13 C 1.686193 4.256391 4.284710 0
M  V30 14 C 0.922972 4.670013 5.356745 0
M  V30 15 C -0.193391 5.435523 5.029762 0
M  V30 16 C -0.517183 5.759096 3.735026 0
M  V30 17 C 0.276602 5.322554 2.696088 0
M  V30 18 C 1.757154 -2.709008 1.357179 0
M  V30 19 Cl 3.484304 -2.430601 1.438368 0
M  V30 20 C 1.302638 -3.777452 0.603795 0
M  V30 21 C -0.073499 -4.007659 0.533321 0
M  V30 22 N -0.579693 -5.105882 -0.238970 0
M  V30 23 C -0.869101 -4.803937 -1.605448 0
M  V30 24 O -0.614358 -3.584741 -1.880909 0
M  V30 25 N -1.379634 -5.728218 -2.566168 0
M  V30 26 C -1.622452 -5.290133 -3.898645 0
M  V30 27 C -0.555256 -5.424560 -4.768287 0
M  V30 28 N -0.699759 -5.034430 -6.048269 0
M  V30 29 C -1.879195 -4.515930 -6.477441 0
M  V30 30 C -2.011270 -4.102279 -7.861331 0
M  V30 31 N -2.099762 -3.776872 -8.982687 0
M  V30 32 C -2.965987 -4.373372 -5.613000 0
M  V30 33 N -2.776300 -4.772795 -4.356506 0
M  V30 34 H -3.020053 -1.601178 1.571313 0
M  V30 35 H -4.326541 -2.897877 1.469281 0
M  V30 36 H -3.218960 -2.832194 2.861342 0
M  V30 37 H -1.184153 -1.502769 2.455881 0
M  V30 38 H 1.608340 -0.629243 3.806637 0
M  V30 39 H 2.851487 1.567109 2.855882 0
M  V30 40 H 1.193478 2.056617 3.287896 0
M  V30 41 H 2.548735 2.464028 0.557741 0
M  V30 42 H 0.808240 2.764763 0.887082 0
M  V30 43 H 3.273249 3.910345 2.318575 0
M  V30 44 H 2.364524 4.797067 1.054208 0
M  V30 45 H 2.547838 3.670363 4.476281 0
M  V30 46 H 1.112158 4.457175 6.392913 0
M  V30 47 H -0.857059 5.809028 5.801845 0
M  V30 48 H -1.392822 6.357256 3.504844 0
M  V30 49 H 0.093514 5.531989 1.649048 0
M  V30 50 H 1.931810 -4.469406 0.049088 0
M  V30 51 H -0.763952 -6.104894 0.076965 0
M  V30 52 H -1.511875 -6.673912 -2.111015 0
M  V30 53 H 0.401782 -5.822263 -4.505883 0
M  V30 54 H -3.902210 -3.962263 -5.951681 0
M  V30 END ATOM
M  V30 BEGIN BOND
M  V30 1 1 1 2
M  V30 2 1 2 3
M  V30 3 2 3 4
M  V30 4 1 4 5
M  V30 5 1 5 6
M  V30 6 1 6 7
M  V30 7 2 7 8
M  V30 8 1 7 9
M  V30 9 1 9 10
M  V30 10 1 10 11
M  V30 11 1 11 12
M  V30 12 2 12 13
M  V30 13 1 13 14
M  V30 14 2 14 15
M  V30 15 1 15 16
M  V30 16 2 16 17
M  V30 17 2 5 18
M  V30 18 1 18 19
M  V30 19 1 18 20
M  V30 20 2 20 21
M  V30 21 1 21 22
M  V30 22 1 22 23
M  V30 23 2 23 24
M  V30 24 1 23 25
M  V30 25 1 25 26
M  V30 26 2 26 27
M  V30 27 1 27 28
M  V30 28 2 28 29
M  V30 29 1 29 30
M  V30 30 3 30 31
M  V30 31 1 29 32
M  V30 32 2 32 33
M  V30 33 1 21 3
M  V30 34 1 33 26
M  V30 35 1 17 12
M  V30 36 1 1 34
M  V30 37 1 1 35
M  V30 38 1 1 36
M  V30 39 1 4 37
M  V30 40 1 6 38
M  V30 41 1 9 39
M  V30 42 1 9 40
M  V30 43 1 10 41
M  V30 44 1 10 42
M  V30 45 1 11 43
M  V30 46 1 11 44
M  V30 47 1 13 45
M  V30 48 1 14 46
M  V30 49 1 15 47
M  V30 50 1 16 48
M  V30 51 1 17 49
M  V30 52 1 20 50
M  V30 53 1 22 51
M  V30 54 1 25 52
M  V30 55 1 27 53
M  V30 56 1 32 54
M  V30 END BOND
M  V30 END CTAB
M  END
>  <Dataset>  (171) 
ChEMBL_Kinases

>  <Ligand_Instance>  (171) 
nan

>  <PDB_ID>  (171) 
nan

>  <Standardized_SMILES>  (171) 
COc1cc(NC(=O)CCCc2ccccc2)c(Cl)cc1NC(=O)Nc1cnc(C#N)cn1

>  <Name>  (171) 
nan

>  <Pocket>  (171) 
nan

>  <ATP_Site>  (171) 
nan

>  <Peripheral>  (171) 
nan

>  <Num_H_Atoms_ProtBoundConf>  (171) 
nan

>  <Num_Resolved_Atoms>  (171) 
nan

>  <Num_Not_Resolved_Atoms>  (171) 
nan

$$$$
CHEMBL207596
     RDKit          3D

  0  0  0  0  0  0  0  0  0  0999 V3000
M  V30 BEGIN CTAB
M  V30 COUNTS 33 34 0 0 0
M  V30 BEGIN ATOM
M  V30 1 C 0.968831 -3.830586 -1.499655 0
M  V30 2 O 0.943296 -2.459953 -1.173466 0
M  V30 3 C 1.880929 -1.857659 -0.344110 0
M  V30 4 C 2.893874 -2.635351 0.192693 0
M  V30 5 C 3.853338 -2.077210 1.026731 0
M  V30 6 N 4.916619 -2.848491 1.601541 0
M  V30 7 C 3.816734 -0.714845 1.342837 0
M  V30 8 Cl 4.993801 0.057581 2.388082 0
M  V30 9 C 2.802797 0.074285 0.808189 0
M  V30 10 C 1.873844 -0.512915 -0.011095 0
M  V30 11 N 0.810754 0.279310 -0.580496 0
M  V30 12 C -0.384973 0.374850 0.175573 0
M  V30 13 O -0.404377 -0.231832 1.255580 0
M  V30 14 N -1.546628 1.087922 -0.178742 0
M  V30 15 C -2.768076 1.229608 0.516208 0
M  V30 16 C -3.116606 0.698795 1.717396 0
M  V30 17 N -4.311263 0.890577 2.303679 0
M  V30 18 C -5.241848 1.644228 1.699498 0
M  V30 19 C -6.512358 1.839710 2.337903 0
M  V30 20 N -7.532190 1.979650 2.851472 0
M  V30 21 C -4.921565 2.198371 0.479175 0
M  V30 22 N -3.717033 1.983379 -0.073990 0
M  V30 23 H 1.998038 -4.053360 -1.902062 0
M  V30 24 H 0.796873 -4.484735 -0.621298 0
M  V30 25 H 0.234218 -3.994603 -2.310739 0
M  V30 26 H 2.941443 -3.699036 -0.040377 0
M  V30 27 H 5.794580 -3.305790 1.267296 0
M  V30 28 H 4.815735 -3.012108 2.613758 0
M  V30 29 H 2.690949 1.148770 0.997502 0
M  V30 30 H 0.832342 0.795490 -1.503298 0
M  V30 31 H -1.391315 1.544824 -1.100812 0
M  V30 32 H -2.425408 0.096914 2.240072 0
M  V30 33 H -5.644378 2.812137 -0.039938 0
M  V30 END ATOM
M  V30 BEGIN BOND
M  V30 1 1 1 2
M  V30 2 1 2 3
M  V30 3 2 3 4
M  V30 4 1 4 5
M  V30 5 1 5 6
M  V30 6 2 5 7
M  V30 7 1 7 8
M  V30 8 1 7 9
M  V30 9 2 9 10
M  V30 10 1 10 11
M  V30 11 1 11 12
M  V30 12 2 12 13
M  V30 13 1 12 14
M  V30 14 1 14 15
M  V30 15 2 15 16
M  V30 16 1 16 17
M  V30 17 2 17 18
M  V30 18 1 18 19
M  V30 19 3 19 20
M  V30 20 1 18 21
M  V30 21 2 21 22
M  V30 22 1 10 3
M  V30 23 1 22 15
M  V30 24 1 1 23
M  V30 25 1 1 24
M  V30 26 1 1 25
M  V30 27 1 4 26
M  V30 28 1 6 27
M  V30 29 1 6 28
M  V30 30 1 9 29
M  V30 31 1 11 30
M  V30 32 1 14 31
M  V30 33 1 16 32
M  V30 34 1 21 33
M  V30 END BOND
M  V30 END CTAB
M  END
>  <Dataset>  (172) 
ChEMBL_Kinases

>  <Ligand_Instance>  (172) 
nan

>  <PDB_ID>  (172) 
nan

>  <Standardized_SMILES>  (172) 
COc1cc(N)c(Cl)cc1NC(=O)Nc1cnc(C#N)cn1

>  <Name>  (172) 
nan

>  <Pocket>  (172) 
nan

>  <ATP_Site>  (172) 
nan

>  <Peripheral>  (172) 
nan

>  <Num_H_Atoms_ProtBoundConf>  (172) 
nan

>  <Num_Resolved_Atoms>  (172) 
nan

>  <Num_Not_Resolved_Atoms>  (172) 
nan

$$$$
CHEMBL207409
     RDKit          3D

  0  0  0  0  0  0  0  0  0  0999 V3000
M  V30 BEGIN CTAB
M  V30 COUNTS 35 36 0 0 0
M  V30 BEGIN ATOM
M  V30 1 C -0.786830 0.585341 3.161892 0
M  V30 2 C -0.038507 0.123198 1.954304 0
M  V30 3 C 0.546505 -1.121620 1.953211 0
M  V30 4 C 1.269191 -1.712411 0.940266 0
M  V30 5 C 1.879137 -3.037105 0.967841 0
M  V30 6 C 0.972542 -4.133191 0.469187 0
M  V30 7 C 0.546971 -3.898344 -0.963985 0
M  V30 8 C -0.274445 -4.270930 1.291803 0
M  V30 9 N 1.378700 -0.929097 -0.145606 0
M  V30 10 C 0.822739 0.302130 -0.196056 0
M  V30 11 S 0.818070 1.553150 -1.521385 0
M  V30 12 C -0.129917 2.747903 -0.640854 0
M  V30 13 C -0.501829 4.024043 -1.157590 0
M  V30 14 N -0.106475 4.406476 -2.465279 0
M  V30 15 O -1.176575 4.806561 -0.458371 0
M  V30 16 C -0.397011 2.157141 0.597562 0
M  V30 17 N -1.163442 2.922669 1.523997 0
M  V30 18 C 0.093461 0.899119 0.825275 0
M  V30 19 H -1.082108 -0.264386 3.802349 0
M  V30 20 H -1.763188 0.971894 2.745054 0
M  V30 21 H -0.239762 1.361056 3.703817 0
M  V30 22 H 0.421943 -1.718315 2.873966 0
M  V30 23 H 2.259233 -3.302203 1.968572 0
M  V30 24 H 2.774755 -3.059580 0.297114 0
M  V30 25 H 1.529849 -5.091892 0.491544 0
M  V30 26 H -0.126034 -3.014369 -0.981114 0
M  V30 27 H 1.404182 -3.811792 -1.654832 0
M  V30 28 H -0.117108 -4.764295 -1.235080 0
M  V30 29 H -0.052882 -4.411287 2.378108 0
M  V30 30 H -0.801948 -5.192662 0.972188 0
M  V30 31 H -0.965720 -3.413743 1.133568 0
M  V30 32 H 0.619470 4.646184 -3.163765 0
M  V30 33 H -0.997960 4.494366 -3.014819 0
M  V30 34 H -2.180263 2.946701 1.302887 0
M  V30 35 H -0.540583 3.327837 2.273523 0
M  V30 END ATOM
M  V30 BEGIN BOND
M  V30 1 1 1 2
M  V30 2 2 2 3
M  V30 3 1 3 4
M  V30 4 1 4 5
M  V30 5 1 5 6
M  V30 6 1 6 7
M  V30 7 1 6 8
M  V30 8 2 4 9
M  V30 9 1 9 10
M  V30 10 1 10 11
M  V30 11 1 11 12
M  V30 12 1 12 13
M  V30 13 1 13 14
M  V30 14 2 13 15
M  V30 15 2 12 16
M  V30 16 1 16 17
M  V30 17 1 16 18
M  V30 18 1 18 2
M  V30 19 2 18 10
M  V30 20 1 1 19
M  V30 21 1 1 20
M  V30 22 1 1 21
M  V30 23 1 3 22
M  V30 24 1 5 23
M  V30 25 1 5 24
M  V30 26 1 6 25
M  V30 27 1 7 26
M  V30 28 1 7 27
M  V30 29 1 7 28
M  V30 30 1 8 29
M  V30 31 1 8 30
M  V30 32 1 8 31
M  V30 33 1 14 32
M  V30 34 1 14 33
M  V30 35 1 17 34
M  V30 36 1 17 35
M  V30 END BOND
M  V30 END CTAB
M  END
>  <Dataset>  (173) 
ChEMBL_Kinases

>  <Ligand_Instance>  (173) 
nan

>  <PDB_ID>  (173) 
nan

>  <Standardized_SMILES>  (173) 
Cc1cc(CC(C)C)nc2sc(C(N)=O)c(N)c12

>  <Name>  (173) 
nan

>  <Pocket>  (173) 
nan

>  <ATP_Site>  (173) 
nan

>  <Peripheral>  (173) 
nan

>  <Num_H_Atoms_ProtBoundConf>  (173) 
nan

>  <Num_Resolved_Atoms>  (173) 
nan

>  <Num_Not_Resolved_Atoms>  (173) 
nan

$$$$
CHEMBL208728
     RDKit          3D

  0  0  0  0  0  0  0  0  0  0999 V3000
M  V30 BEGIN CTAB
M  V30 COUNTS 54 57 0 0 0
M  V30 BEGIN ATOM
M  V30 1 N 5.857382 -6.675554 -2.317771 0
M  V30 2 C 5.245987 -5.687331 -2.411562 0
M  V30 3 C 4.510933 -4.459458 -2.521169 0
M  V30 4 C 5.160900 -3.226221 -2.469718 0
M  V30 5 N 4.378649 -2.119793 -2.582525 0
M  V30 6 C 3.050366 -2.219407 -2.735196 0
M  V30 7 N 2.160046 -1.116507 -2.860672 0
M  V30 8 C 1.522468 -0.474822 -1.736537 0
M  V30 9 O 1.766006 -0.912878 -0.583207 0
M  V30 10 N 0.632440 0.638862 -1.954961 0
M  V30 11 C 0.147691 1.076466 -0.686758 0
M  V30 12 C 0.877486 2.028934 -0.005108 0
M  V30 13 C 0.404846 2.450960 1.241324 0
M  V30 14 Cl 1.464077 3.674399 1.972309 0
M  V30 15 C -0.781433 1.921710 1.788824 0
M  V30 16 O -0.970750 2.509900 2.967720 0
M  V30 17 C -1.849452 2.492537 4.000625 0
M  V30 18 C -2.035371 1.237897 4.781504 0
M  V30 19 C -0.667144 0.886525 5.365237 0
M  V30 20 C -0.429975 -0.491707 4.760979 0
M  V30 21 C -1.882731 -0.979784 4.690823 0
M  V30 22 O -2.478492 0.141632 4.116952 0
M  V30 23 C -1.421912 0.980432 1.017693 0
M  V30 24 C -1.014675 0.520617 -0.212351 0
M  V30 25 N -1.830632 -0.434820 -0.844483 0
M  V30 26 C -3.001140 -1.169912 -0.335657 0
M  V30 27 C -2.662915 -2.638734 -0.574629 0
M  V30 28 C -1.805349 -2.557023 -1.835360 0
M  V30 29 C -1.905512 -1.053746 -2.146293 0
M  V30 30 C 2.418246 -3.450632 -2.784595 0
M  V30 31 N 3.172064 -4.583363 -2.674608 0
M  V30 32 H 6.228044 -3.158803 -2.346809 0
M  V30 33 H 1.960945 -0.755172 -3.829693 0
M  V30 34 H 0.433537 1.009953 -2.931820 0
M  V30 35 H 1.787764 2.399541 -0.482947 0
M  V30 36 H -1.606664 3.352087 4.701883 0
M  V30 37 H -2.878354 2.739506 3.582523 0
M  V30 38 H -2.713620 1.418316 5.658816 0
M  V30 39 H 0.131628 1.559137 5.022930 0
M  V30 40 H -0.714771 0.740474 6.461098 0
M  V30 41 H -0.090555 -0.401245 3.697306 0
M  V30 42 H 0.201959 -1.118716 5.387945 0
M  V30 43 H -2.274237 -1.234428 5.679102 0
M  V30 44 H -1.899753 -1.847048 4.016818 0
M  V30 45 H -2.308736 0.661215 1.517978 0
M  V30 46 H -3.094257 -0.962819 0.728055 0
M  V30 47 H -3.893282 -0.835254 -0.870326 0
M  V30 48 H -3.616509 -3.169515 -0.732315 0
M  V30 49 H -2.115078 -3.025106 0.293058 0
M  V30 50 H -2.286282 -3.177930 -2.602425 0
M  V30 51 H -0.757950 -2.782593 -1.624444 0
M  V30 52 H -1.101223 -0.778388 -2.807305 0
M  V30 53 H -2.885257 -0.839002 -2.636259 0
M  V30 54 H 1.351503 -3.626841 -2.905294 0
M  V30 END ATOM
M  V30 BEGIN BOND
M  V30 1 3 1 2
M  V30 2 1 2 3
M  V30 3 2 3 4
M  V30 4 1 4 5
M  V30 5 2 5 6
M  V30 6 1 6 7
M  V30 7 1 7 8
M  V30 8 2 8 9
M  V30 9 1 8 10
M  V30 10 1 10 11
M  V30 11 2 11 12
M  V30 12 1 12 13
M  V30 13 1 13 14
M  V30 14 2 13 15
M  V30 15 1 15 16
M  V30 16 1 16 17
M  V30 17 1 17 18
M  V30 18 1 18 19
M  V30 19 1 19 20
M  V30 20 1 20 21
M  V30 21 1 21 22
M  V30 22 1 15 23
M  V30 23 2 23 24
M  V30 24 1 24 25
M  V30 25 1 25 26
M  V30 26 1 26 27
M  V30 27 1 27 28
M  V30 28 1 28 29
M  V30 29 1 6 30
M  V30 30 2 30 31
M  V30 31 1 31 3
M  V30 32 1 24 11
M  V30 33 1 29 25
M  V30 34 1 22 18
M  V30 35 1 4 32
M  V30 36 1 7 33
M  V30 37 1 10 34
M  V30 38 1 12 35
M  V30 39 1 17 36
M  V30 40 1 17 37
M  V30 41 1 18 38
M  V30 42 1 19 39
M  V30 43 1 19 40
M  V30 44 1 20 41
M  V30 45 1 20 42
M  V30 46 1 21 43
M  V30 47 1 21 44
M  V30 48 1 23 45
M  V30 49 1 26 46
M  V30 50 1 26 47
M  V30 51 1 27 48
M  V30 52 1 27 49
M  V30 53 1 28 50
M  V30 54 1 28 51
M  V30 55 1 29 52
M  V30 56 1 29 53
M  V30 57 1 30 54
M  V30 END BOND
M  V30 END CTAB
M  END
>  <Dataset>  (174) 
ChEMBL_Kinases

>  <Ligand_Instance>  (174) 
nan

>  <PDB_ID>  (174) 
nan

>  <Standardized_SMILES>  (174) 
N#Cc1cnc(NC(=O)Nc2cc(Cl)c(OCC3CCCO3)cc2N2CCCC2)cn1

>  <Name>  (174) 
nan

>  <Pocket>  (174) 
nan

>  <ATP_Site>  (174) 
nan

>  <Peripheral>  (174) 
nan

>  <Num_H_Atoms_ProtBoundConf>  (174) 
nan

>  <Num_Resolved_Atoms>  (174) 
nan

>  <Num_Not_Resolved_Atoms>  (174) 
nan

$$$$
CHEMBL2087082
     RDKit          3D

  0  0  0  0  0  0  0  0  0  0999 V3000
M  V30 BEGIN CTAB
M  V30 COUNTS 38 40 0 0 0
M  V30 BEGIN ATOM
M  V30 1 C -2.083328 -5.499426 0.575379 0
M  V30 2 C -1.912625 -4.087047 0.115656 0
M  V30 3 O -0.720003 -3.958180 -0.575939 0
M  V30 4 N -0.492642 -2.699901 -1.027611 0
M  V30 5 C 0.190114 -1.675631 -0.318091 0
M  V30 6 O 0.498191 -2.227856 0.762965 0
M  V30 7 C 0.361073 -0.385498 -0.915715 0
M  V30 8 C -0.114504 -0.119539 -2.169902 0
M  V30 9 C 0.091153 1.141110 -2.681460 0
M  V30 10 C 0.746949 2.146681 -2.003946 0
M  V30 11 N 1.015826 3.393955 -2.378445 0
M  V30 12 N 1.667713 3.937954 -1.364871 0
M  V30 13 C 1.813631 3.067419 -0.368833 0
M  V30 14 C 1.223493 1.847601 -0.722012 0
M  V30 15 C 1.023980 0.569228 -0.182221 0
M  V30 16 N 1.581574 0.473421 1.102899 0
M  V30 17 C 1.261714 0.532856 2.485403 0
M  V30 18 C 1.548033 -0.551318 3.282412 0
M  V30 19 C 1.270433 -0.608594 4.628147 0
M  V30 20 C 0.673583 0.502977 5.162884 0
M  V30 21 I 0.218392 0.480381 7.226359 0
M  V30 22 C 0.351729 1.624881 4.453292 0
M  V30 23 C 0.664550 1.594607 3.116991 0
M  V30 24 F 0.346231 2.695342 2.404902 0
M  V30 25 H -2.191010 -5.560222 1.674415 0
M  V30 26 H -2.967940 -5.952940 0.067969 0
M  V30 27 H -1.165658 -6.094505 0.335408 0
M  V30 28 H -1.850170 -3.427370 1.021909 0
M  V30 29 H -2.792874 -3.773105 -0.480612 0
M  V30 30 H -0.918386 -2.629694 -2.001567 0
M  V30 31 H -0.640426 -0.821659 -2.793753 0
M  V30 32 H -0.290176 1.361132 -3.691117 0
M  V30 33 H 0.767343 3.852934 -3.281079 0
M  V30 34 H 2.297512 3.172311 0.612204 0
M  V30 35 H 2.590826 0.294823 0.973298 0
M  V30 36 H 2.029649 -1.459889 2.889746 0
M  V30 37 H 1.500181 -1.465108 5.241105 0
M  V30 38 H -0.119412 2.486732 4.906007 0
M  V30 END ATOM
M  V30 BEGIN BOND
M  V30 1 1 1 2
M  V30 2 1 2 3
M  V30 3 1 3 4
M  V30 4 1 4 5
M  V30 5 2 5 6
M  V30 6 1 5 7
M  V30 7 2 7 8
M  V30 8 1 8 9
M  V30 9 2 9 10
M  V30 10 1 10 11
M  V30 11 1 11 12
M  V30 12 2 12 13
M  V30 13 1 13 14
M  V30 14 2 14 15
M  V30 15 1 15 16
M  V30 16 1 16 17
M  V30 17 2 17 18
M  V30 18 1 18 19
M  V30 19 2 19 20
M  V30 20 1 20 21
M  V30 21 1 20 22
M  V30 22 2 22 23
M  V30 23 1 23 24
M  V30 24 1 15 7
M  V30 25 1 23 17
M  V30 26 1 14 10
M  V30 27 1 1 25
M  V30 28 1 1 26
M  V30 29 1 1 27
M  V30 30 1 2 28
M  V30 31 1 2 29
M  V30 32 1 4 30
M  V30 33 1 8 31
M  V30 34 1 9 32
M  V30 35 1 11 33
M  V30 36 1 13 34
M  V30 37 1 16 35
M  V30 38 1 18 36
M  V30 39 1 19 37
M  V30 40 1 22 38
M  V30 END BOND
M  V30 END CTAB
M  END
>  <Dataset>  (175) 
ChEMBL_Kinases

>  <Ligand_Instance>  (175) 
nan

>  <PDB_ID>  (175) 
nan

>  <Standardized_SMILES>  (175) 
CCONC(=O)c1ccc2[nH]ncc2c1Nc1ccc(I)cc1F

>  <Name>  (175) 
nan

>  <Pocket>  (175) 
nan

>  <ATP_Site>  (175) 
nan

>  <Peripheral>  (175) 
nan

>  <Num_H_Atoms_ProtBoundConf>  (175) 
nan

>  <Num_Resolved_Atoms>  (175) 
nan

>  <Num_Not_Resolved_Atoms>  (175) 
nan

$$$$
CHEMBL2087081
     RDKit          3D

  0  0  0  0  0  0  0  0  0  0999 V3000
M  V30 BEGIN CTAB
M  V30 COUNTS 42 45 0 0 0
M  V30 BEGIN ATOM
M  V30 1 O 1.069267 -1.142083 1.140784 0
M  V30 2 C 0.977364 -0.195581 0.354426 0
M  V30 3 N 2.078437 0.192050 -0.461182 0
M  V30 4 O 3.300775 -0.386505 -0.486186 0
M  V30 5 C 4.168931 0.201541 0.430230 0
M  V30 6 C 5.544277 -0.394643 0.450259 0
M  V30 7 C 6.529579 0.207228 1.428923 0
M  V30 8 C 6.667314 0.571619 -0.045996 0
M  V30 9 C -0.301093 0.509646 0.292931 0
M  V30 10 C -0.585139 1.584972 -0.523112 0
M  V30 11 C -1.824596 2.193331 -0.517359 0
M  V30 12 C -2.840587 1.754007 0.306551 0
M  V30 13 N -4.096595 2.204694 0.457105 0
M  V30 14 N -4.661891 1.424808 1.383121 0
M  V30 15 C -3.769001 0.492019 1.810931 0
M  V30 16 C -2.576186 0.681882 1.128340 0
M  V30 17 C -1.324950 0.080151 1.111689 0
M  V30 18 N -1.225875 -1.008570 2.019953 0
M  V30 19 C -1.555099 -2.333793 1.603677 0
M  V30 20 C -1.971814 -2.562415 0.313578 0
M  V30 21 C -2.278550 -3.866542 -0.037707 0
M  V30 22 C -2.175584 -4.907652 0.859296 0
M  V30 23 I -2.666692 -6.839636 0.214767 0
M  V30 24 C -1.755806 -4.631039 2.134484 0
M  V30 25 C -1.433155 -3.350447 2.552023 0
M  V30 26 F -1.029181 -3.160632 3.819290 0
M  V30 27 H 2.013169 0.990234 -1.129411 0
M  V30 28 H 4.229388 1.300675 0.292355 0
M  V30 29 H 3.719252 0.044752 1.444320 0
M  V30 30 H 5.706798 -1.456113 0.258924 0
M  V30 31 H 6.200356 0.982564 2.133268 0
M  V30 32 H 7.398183 -0.393399 1.785972 0
M  V30 33 H 6.345374 1.613217 -0.282938 0
M  V30 34 H 7.470473 0.117049 -0.651067 0
M  V30 35 H 0.206898 1.933837 -1.171010 0
M  V30 36 H -1.982388 3.033024 -1.182304 0
M  V30 37 H -4.522531 3.009247 -0.061011 0
M  V30 38 H -3.924187 -0.279252 2.551750 0
M  V30 39 H -0.910432 -0.787558 2.970788 0
M  V30 40 H -2.049518 -1.740049 -0.382676 0
M  V30 41 H -2.601406 -3.971089 -1.075677 0
M  V30 42 H -1.698688 -5.508096 2.789616 0
M  V30 END ATOM
M  V30 BEGIN BOND
M  V30 1 2 1 2
M  V30 2 1 2 3
M  V30 3 1 3 4
M  V30 4 1 4 5
M  V30 5 1 5 6
M  V30 6 1 6 7
M  V30 7 1 7 8
M  V30 8 1 2 9
M  V30 9 2 9 10
M  V30 10 1 10 11
M  V30 11 2 11 12
M  V30 12 1 12 13
M  V30 13 1 13 14
M  V30 14 2 14 15
M  V30 15 1 15 16
M  V30 16 2 16 17
M  V30 17 1 17 18
M  V30 18 1 18 19
M  V30 19 2 19 20
M  V30 20 1 20 21
M  V30 21 2 21 22
M  V30 22 1 22 23
M  V30 23 1 22 24
M  V30 24 2 24 25
M  V30 25 1 25 26
M  V30 26 1 8 6
M  V30 27 1 17 9
M  V30 28 1 25 19
M  V30 29 1 16 12
M  V30 30 1 3 27
M  V30 31 1 5 28
M  V30 32 1 5 29
M  V30 33 1 6 30
M  V30 34 1 7 31
M  V30 35 1 7 32
M  V30 36 1 8 33
M  V30 37 1 8 34
M  V30 38 1 10 35
M  V30 39 1 11 36
M  V30 40 1 13 37
M  V30 41 1 15 38
M  V30 42 1 18 39
M  V30 43 1 20 40
M  V30 44 1 21 41
M  V30 45 1 24 42
M  V30 END BOND
M  V30 END CTAB
M  END
>  <Dataset>  (176) 
ChEMBL_Kinases

>  <Ligand_Instance>  (176) 
nan

>  <PDB_ID>  (176) 
nan

>  <Standardized_SMILES>  (176) 
O=C(NOCC1CC1)c1ccc2[nH]ncc2c1Nc1ccc(I)cc1F

>  <Name>  (176) 
nan

>  <Pocket>  (176) 
nan

>  <ATP_Site>  (176) 
nan

>  <Peripheral>  (176) 
nan

>  <Num_H_Atoms_ProtBoundConf>  (176) 
nan

>  <Num_Resolved_Atoms>  (176) 
nan

>  <Num_Not_Resolved_Atoms>  (176) 
nan

$$$$
CHEMBL2087080
     RDKit          3D

  0  0  0  0  0  0  0  0  0  0999 V3000
M  V30 BEGIN CTAB
M  V30 COUNTS 43 45 0 0 0
M  V30 BEGIN ATOM
M  V30 1 O 0.248227 -0.942128 -0.134609 0
M  V30 2 C 1.165379 -0.298344 0.431017 0
M  V30 3 N 2.212073 -0.021211 -0.489445 0
M  V30 4 O 2.257667 -0.376689 -1.787796 0
M  V30 5 C 1.691483 0.619199 -2.544880 0
M  V30 6 C 1.711538 0.280178 -4.038586 0 CFG=2
M  V30 7 O 3.053606 0.122192 -4.387428 0
M  V30 8 C 1.180341 1.485043 -4.797793 0
M  V30 9 O 1.307610 1.253725 -6.147492 0
M  V30 10 C 1.207133 0.129050 1.819396 0
M  V30 11 C 2.260543 0.883501 2.279024 0
M  V30 12 C 2.309763 1.323614 3.585569 0
M  V30 13 C 1.274879 0.993353 4.438213 0
M  V30 14 N 1.103848 1.303918 5.736071 0
M  V30 15 N -0.056276 0.748968 6.106060 0
M  V30 16 C -0.595287 0.105558 5.056188 0
M  V30 17 C 0.219992 0.228785 3.950960 0
M  V30 18 C 0.161680 -0.216464 2.646736 0
M  V30 19 N -0.945714 -0.999002 2.299751 0
M  V30 20 C -1.345983 -2.339927 2.500107 0
M  V30 21 C -2.569572 -2.322841 3.187226 0
M  V30 22 C -3.219924 -3.511639 3.537127 0
M  V30 23 C -2.648498 -4.716548 3.200927 0
M  V30 24 I -3.582618 -6.546384 3.701677 0
M  V30 25 C -1.447077 -4.732838 2.526404 0
M  V30 26 C -0.803326 -3.565695 2.180098 0
M  V30 27 F 0.369567 -3.438193 1.531929 0
M  V30 28 H 3.070489 0.505662 -0.217960 0
M  V30 29 H 2.151222 1.598002 -2.387815 0
M  V30 30 H 0.607432 0.727039 -2.247422 0
M  V30 31 H 1.080639 -0.579894 -4.277442 0
M  V30 32 H 3.185483 0.240445 -5.376187 0
M  V30 33 H 1.658035 2.432250 -4.502603 0
M  V30 34 H 0.088140 1.627712 -4.563862 0
M  V30 35 H 0.968388 2.065517 -6.620651 0
M  V30 36 H 3.106954 1.185177 1.681251 0
M  V30 37 H 3.132423 1.919499 3.965890 0
M  V30 38 H 1.741649 1.864009 6.340703 0
M  V30 39 H -1.537259 -0.421625 5.113508 0
M  V30 40 H -1.540511 -0.309149 1.771573 0
M  V30 41 H -3.161136 -1.468111 3.530227 0
M  V30 42 H -4.159573 -3.577275 4.063812 0
M  V30 43 H -0.938462 -5.637819 2.229316 0
M  V30 END ATOM
M  V30 BEGIN BOND
M  V30 1 2 1 2
M  V30 2 1 2 3
M  V30 3 1 3 4
M  V30 4 1 4 5
M  V30 5 1 5 6
M  V30 6 1 6 7
M  V30 7 1 6 8
M  V30 8 1 8 9
M  V30 9 1 2 10
M  V30 10 2 10 11
M  V30 11 1 11 12
M  V30 12 2 12 13
M  V30 13 1 13 14
M  V30 14 1 14 15
M  V30 15 2 15 16
M  V30 16 1 16 17
M  V30 17 2 17 18
M  V30 18 1 18 19
M  V30 19 1 19 20
M  V30 20 2 20 21
M  V30 21 1 21 22
M  V30 22 2 22 23
M  V30 23 1 23 24
M  V30 24 1 23 25
M  V30 25 2 25 26
M  V30 26 1 26 27
M  V30 27 1 18 10
M  V30 28 1 26 20
M  V30 29 1 17 13
M  V30 30 1 3 28
M  V30 31 1 5 29
M  V30 32 1 5 30
M  V30 33 1 6 31 CFG=1
M  V30 34 1 7 32
M  V30 35 1 8 33
M  V30 36 1 8 34
M  V30 37 1 9 35
M  V30 38 1 11 36
M  V30 39 1 12 37
M  V30 40 1 14 38
M  V30 41 1 16 39
M  V30 42 1 19 40
M  V30 43 1 21 41
M  V30 44 1 22 42
M  V30 45 1 25 43
M  V30 END BOND
M  V30 END CTAB
M  END
>  <Dataset>  (177) 
ChEMBL_Kinases

>  <Ligand_Instance>  (177) 
nan

>  <PDB_ID>  (177) 
nan

>  <Standardized_SMILES>  (177) 
O=C(NOC[C@H](O)CO)c1ccc2[nH]ncc2c1Nc1ccc(I)cc1F

>  <Name>  (177) 
nan

>  <Pocket>  (177) 
nan

>  <ATP_Site>  (177) 
nan

>  <Peripheral>  (177) 
nan

>  <Num_H_Atoms_ProtBoundConf>  (177) 
nan

>  <Num_Resolved_Atoms>  (177) 
nan

>  <Num_Not_Resolved_Atoms>  (177) 
nan

$$$$
CHEMBL2087079
     RDKit          3D

  0  0  0  0  0  0  0  0  0  0999 V3000
M  V30 BEGIN CTAB
M  V30 COUNTS 39 41 0 0 0
M  V30 BEGIN ATOM
M  V30 1 O 0.520124 -1.517982 1.611278 0
M  V30 2 C 1.382179 -1.127007 0.752435 0
M  V30 3 N 2.199250 -2.093511 0.163293 0
M  V30 4 O 1.923622 -3.333577 0.625456 0
M  V30 5 C 2.703770 -4.312241 0.072190 0
M  V30 6 C 2.388550 -5.694870 0.594563 0
M  V30 7 O 1.064816 -6.012615 0.315172 0
M  V30 8 C 1.419621 0.305345 0.477088 0
M  V30 9 C 2.313779 0.831498 -0.433915 0
M  V30 10 C 2.353392 2.196735 -0.699897 0
M  V30 11 C 1.476477 3.056475 -0.037771 0
M  V30 12 N 1.259272 4.390002 -0.062183 0
M  V30 13 N 0.283183 4.693337 0.784717 0
M  V30 14 C -0.152353 3.558235 1.376221 0
M  V30 15 C 0.584590 2.492728 0.877463 0
M  V30 16 C 0.546148 1.126808 1.142483 0
M  V30 17 N -0.405058 0.689250 2.091010 0
M  V30 18 C -1.746983 0.283024 1.845935 0
M  V30 19 C -2.207266 0.305564 0.548470 0
M  V30 20 C -3.517952 -0.103183 0.398776 0
M  V30 21 C -4.328764 -0.507478 1.441311 0
M  V30 22 Br -6.130878 -1.066854 1.216009 0
M  V30 23 C -3.778833 -0.497147 2.712202 0
M  V30 24 C -2.462959 -0.099573 2.958358 0
M  V30 25 F -1.919562 -0.087404 4.199279 0
M  V30 26 H 2.908038 -1.779683 -0.541571 0
M  V30 27 H 2.714381 -4.315632 -1.052059 0
M  V30 28 H 3.764467 -4.087815 0.364551 0
M  V30 29 H 2.590137 -5.687483 1.680077 0
M  V30 30 H 3.079940 -6.419481 0.120481 0
M  V30 31 H 0.805008 -5.655952 -0.580531 0
M  V30 32 H 3.013192 0.217116 -0.974008 0
M  V30 33 H 3.032347 2.648308 -1.400384 0
M  V30 34 H 1.779911 5.078229 -0.656838 0
M  V30 35 H -0.954139 3.485186 2.126065 0
M  V30 36 H 0.056717 0.718251 3.006514 0
M  V30 37 H -1.595842 0.616274 -0.281405 0
M  V30 38 H -3.984748 -0.123214 -0.595525 0
M  V30 39 H -4.390606 -0.810469 3.560803 0
M  V30 END ATOM
M  V30 BEGIN BOND
M  V30 1 2 1 2
M  V30 2 1 2 3
M  V30 3 1 3 4
M  V30 4 1 4 5
M  V30 5 1 5 6
M  V30 6 1 6 7
M  V30 7 1 2 8
M  V30 8 2 8 9
M  V30 9 1 9 10
M  V30 10 2 10 11
M  V30 11 1 11 12
M  V30 12 1 12 13
M  V30 13 2 13 14
M  V30 14 1 14 15
M  V30 15 2 15 16
M  V30 16 1 16 17
M  V30 17 1 17 18
M  V30 18 2 18 19
M  V30 19 1 19 20
M  V30 20 2 20 21
M  V30 21 1 21 22
M  V30 22 1 21 23
M  V30 23 2 23 24
M  V30 24 1 24 25
M  V30 25 1 16 8
M  V30 26 1 24 18
M  V30 27 1 15 11
M  V30 28 1 3 26
M  V30 29 1 5 27
M  V30 30 1 5 28
M  V30 31 1 6 29
M  V30 32 1 6 30
M  V30 33 1 7 31
M  V30 34 1 9 32
M  V30 35 1 10 33
M  V30 36 1 12 34
M  V30 37 1 14 35
M  V30 38 1 17 36
M  V30 39 1 19 37
M  V30 40 1 20 38
M  V30 41 1 23 39
M  V30 END BOND
M  V30 END CTAB
M  END
>  <Dataset>  (178) 
ChEMBL_Kinases

>  <Ligand_Instance>  (178) 
nan

>  <PDB_ID>  (178) 
nan

>  <Standardized_SMILES>  (178) 
O=C(NOCCO)c1ccc2[nH]ncc2c1Nc1ccc(Br)cc1F

>  <Name>  (178) 
nan

>  <Pocket>  (178) 
nan

>  <ATP_Site>  (178) 
nan

>  <Peripheral>  (178) 
nan

>  <Num_H_Atoms_ProtBoundConf>  (178) 
nan

>  <Num_Resolved_Atoms>  (178) 
nan

>  <Num_Not_Resolved_Atoms>  (178) 
nan

$$$$
CHEMBL2087078
     RDKit          3D

  0  0  0  0  0  0  0  0  0  0999 V3000
M  V30 BEGIN CTAB
M  V30 COUNTS 41 43 0 0 0
M  V30 BEGIN ATOM
M  V30 1 C 3.465500 -2.844075 5.976260 0
M  V30 2 C 3.846371 -2.679257 4.522153 0 CFG=2
M  V30 3 O 5.162314 -2.190928 4.439310 0
M  V30 4 C 2.942920 -1.632176 3.915260 0
M  V30 5 O 3.258259 -1.380002 2.585225 0
M  V30 6 N 2.474612 -0.444593 2.040337 0
M  V30 7 C 1.237691 -0.610133 1.360907 0
M  V30 8 O 0.899298 -1.795187 1.300504 0
M  V30 9 C 0.521946 0.540463 0.830522 0
M  V30 10 O 0.900013 1.776270 0.927585 0
M  V30 11 C 0.015058 2.573509 0.336351 0
M  V30 12 C -0.000503 3.957775 0.190957 0
M  V30 13 F 0.981710 4.751900 0.681719 0
M  V30 14 C -1.069415 4.547879 -0.486354 0
M  V30 15 N -2.044386 3.754855 -0.972977 0
M  V30 16 C -2.026675 2.398350 -0.829100 0
M  V30 17 C -0.987346 1.767694 -0.164966 0
M  V30 18 C -0.670492 0.459414 0.147209 0
M  V30 19 N -1.488662 -0.608419 -0.237594 0
M  V30 20 C -1.689743 -1.396641 -1.401492 0
M  V30 21 C -3.022524 -1.256211 -1.806202 0
M  V30 22 C -3.500329 -1.925809 -2.937500 0
M  V30 23 C -2.632683 -2.725573 -3.644226 0
M  V30 24 I -3.290384 -3.758695 -5.353001 0
M  V30 25 C -1.329022 -2.865360 -3.251743 0
M  V30 26 C -0.862353 -2.207365 -2.141456 0
M  V30 27 F 0.384620 -2.246671 -1.642594 0
M  V30 28 H 2.732624 -3.697709 5.994222 0
M  V30 29 H 4.368316 -3.082442 6.596220 0
M  V30 30 H 2.992164 -1.908062 6.306511 0
M  V30 31 H 3.769521 -3.652666 3.990935 0
M  V30 32 H 5.184858 -1.234073 4.176835 0
M  V30 33 H 1.880783 -1.869838 4.059099 0
M  V30 34 H 3.141346 -0.682706 4.483736 0
M  V30 35 H 2.922173 0.505361 2.188168 0
M  V30 36 H -1.127901 5.631662 -0.626981 0
M  V30 37 H -2.800277 1.748616 -1.213298 0
M  V30 38 H -2.073001 -0.813508 0.623203 0
M  V30 39 H -3.821112 -0.659401 -1.346399 0
M  V30 40 H -4.515772 -1.859799 -3.301986 0
M  V30 41 H -0.576682 -3.482498 -3.760279 0
M  V30 END ATOM
M  V30 BEGIN BOND
M  V30 1 1 1 2
M  V30 2 1 2 3
M  V30 3 1 2 4
M  V30 4 1 4 5
M  V30 5 1 5 6
M  V30 6 1 6 7
M  V30 7 2 7 8
M  V30 8 1 7 9
M  V30 9 1 9 10
M  V30 10 1 10 11
M  V30 11 2 11 12
M  V30 12 1 12 13
M  V30 13 1 12 14
M  V30 14 2 14 15
M  V30 15 1 15 16
M  V30 16 2 16 17
M  V30 17 1 17 18
M  V30 18 1 18 19
M  V30 19 1 19 20
M  V30 20 2 20 21
M  V30 21 1 21 22
M  V30 22 2 22 23
M  V30 23 1 23 24
M  V30 24 1 23 25
M  V30 25 2 25 26
M  V30 26 1 26 27
M  V30 27 2 18 9
M  V30 28 1 26 20
M  V30 29 1 17 11
M  V30 30 1 1 28
M  V30 31 1 1 29
M  V30 32 1 1 30
M  V30 33 1 2 31 CFG=3
M  V30 34 1 3 32
M  V30 35 1 4 33
M  V30 36 1 4 34
M  V30 37 1 6 35
M  V30 38 1 14 36
M  V30 39 1 16 37
M  V30 40 1 19 38
M  V30 41 1 21 39
M  V30 42 1 22 40
M  V30 43 1 25 41
M  V30 END BOND
M  V30 END CTAB
M  END
>  <Dataset>  (179) 
ChEMBL_Kinases

>  <Ligand_Instance>  (179) 
nan

>  <PDB_ID>  (179) 
nan

>  <Standardized_SMILES>  (179) 
C[C@H](O)CONC(=O)c1oc2c(F)cncc2c1Nc1ccc(I)cc1F

>  <Name>  (179) 
nan

>  <Pocket>  (179) 
nan

>  <ATP_Site>  (179) 
nan

>  <Peripheral>  (179) 
nan

>  <Num_H_Atoms_ProtBoundConf>  (179) 
nan

>  <Num_Resolved_Atoms>  (179) 
nan

>  <Num_Not_Resolved_Atoms>  (179) 
nan

$$$$
CHEMBL2087077
     RDKit          3D

  0  0  0  0  0  0  0  0  0  0999 V3000
M  V30 BEGIN CTAB
M  V30 COUNTS 42 44 0 0 0
M  V30 BEGIN ATOM
M  V30 1 O 1.160587 -1.557722 0.605248 0
M  V30 2 C 0.989316 -0.361811 0.949192 0
M  V30 3 N 2.010597 0.529186 0.541671 0
M  V30 4 O 3.000221 -0.083927 -0.155664 0
M  V30 5 C 3.940069 0.872735 -0.503606 0
M  V30 6 C 5.089636 0.275247 -1.292430 0 CFG=2
M  V30 7 O 5.737354 -0.703029 -0.540557 0
M  V30 8 C 6.069699 1.380448 -1.637486 0
M  V30 9 O 6.567836 1.953721 -0.459315 0
M  V30 10 C -0.168152 0.091152 1.710648 0
M  V30 11 O -0.364367 1.333843 2.079400 0
M  V30 12 C -1.479236 1.450457 2.747216 0
M  V30 13 C -2.149988 2.507387 3.351998 0
M  V30 14 C -3.349328 2.340023 4.010600 0
M  V30 15 N -3.883197 1.102478 4.064788 0
M  V30 16 C -3.230623 0.075666 3.476635 0
M  V30 17 C -2.030625 0.187911 2.806153 0
M  V30 18 C -1.208030 -0.702495 2.147974 0
M  V30 19 N -1.412358 -2.097682 1.980616 0
M  V30 20 C -2.006213 -2.947122 1.025438 0
M  V30 21 C -1.112888 -3.875126 0.474214 0
M  V30 22 C -1.552549 -4.768740 -0.472944 0
M  V30 23 C -2.871612 -4.752805 -0.881050 0
M  V30 24 I -3.641257 -6.086446 -2.330795 0
M  V30 25 C -3.774132 -3.854930 -0.359960 0
M  V30 26 C -3.313929 -2.966812 0.588767 0
M  V30 27 F -4.125580 -2.046157 1.158143 0
M  V30 28 H 1.968228 1.561545 0.777626 0
M  V30 29 H 3.449430 1.644407 -1.131045 0
M  V30 30 H 4.349679 1.388082 0.374822 0
M  V30 31 H 4.755343 -0.197249 -2.230543 0
M  V30 32 H 6.616153 -0.885491 -0.983099 0
M  V30 33 H 5.588109 2.183957 -2.209811 0
M  V30 34 H 6.912681 1.011763 -2.231431 0
M  V30 35 H 7.446495 2.365202 -0.646452 0
M  V30 36 H -1.709537 3.514197 3.304412 0
M  V30 37 H -3.877062 3.177693 4.487689 0
M  V30 38 H -3.704715 -0.892379 3.553267 0
M  V30 39 H -0.994298 -2.605982 2.814832 0
M  V30 40 H -0.050599 -4.022352 0.682106 0
M  V30 41 H -0.974821 -5.530384 -0.975174 0
M  V30 42 H -4.801447 -3.801006 -0.640380 0
M  V30 END ATOM
M  V30 BEGIN BOND
M  V30 1 2 1 2
M  V30 2 1 2 3
M  V30 3 1 3 4
M  V30 4 1 4 5
M  V30 5 1 5 6
M  V30 6 1 6 7
M  V30 7 1 6 8
M  V30 8 1 8 9
M  V30 9 1 2 10
M  V30 10 1 10 11
M  V30 11 1 11 12
M  V30 12 2 12 13
M  V30 13 1 13 14
M  V30 14 2 14 15
M  V30 15 1 15 16
M  V30 16 2 16 17
M  V30 17 1 17 18
M  V30 18 1 18 19
M  V30 19 1 19 20
M  V30 20 2 20 21
M  V30 21 1 21 22
M  V30 22 2 22 23
M  V30 23 1 23 24
M  V30 24 1 23 25
M  V30 25 2 25 26
M  V30 26 1 26 27
M  V30 27 2 18 10
M  V30 28 1 26 20
M  V30 29 1 17 12
M  V30 30 1 3 28
M  V30 31 1 5 29
M  V30 32 1 5 30
M  V30 33 1 6 31 CFG=3
M  V30 34 1 7 32
M  V30 35 1 8 33
M  V30 36 1 8 34
M  V30 37 1 9 35
M  V30 38 1 13 36
M  V30 39 1 14 37
M  V30 40 1 16 38
M  V30 41 1 19 39
M  V30 42 1 21 40
M  V30 43 1 22 41
M  V30 44 1 25 42
M  V30 END BOND
M  V30 END CTAB
M  END
>  <Dataset>  (180) 
ChEMBL_Kinases

>  <Ligand_Instance>  (180) 
nan

>  <PDB_ID>  (180) 
nan

>  <Standardized_SMILES>  (180) 
O=C(NOC[C@H](O)CO)c1oc2ccncc2c1Nc1ccc(I)cc1F

>  <Name>  (180) 
nan

>  <Pocket>  (180) 
nan

>  <ATP_Site>  (180) 
nan

>  <Peripheral>  (180) 
nan

>  <Num_H_Atoms_ProtBoundConf>  (180) 
nan

>  <Num_Resolved_Atoms>  (180) 
nan

>  <Num_Not_Resolved_Atoms>  (180) 
nan

$$$$
CHEMBL2087076
     RDKit          3D

  0  0  0  0  0  0  0  0  0  0999 V3000
M  V30 BEGIN CTAB
M  V30 COUNTS 39 41 0 0 0
M  V30 BEGIN ATOM
M  V30 1 O 0.531796 -1.279704 1.842272 0
M  V30 2 C 1.360226 -1.177290 0.900767 0
M  V30 3 N 2.084289 -2.333691 0.563600 0
M  V30 4 O 1.691709 -3.355669 1.389217 0
M  V30 5 C 2.356439 -4.523684 1.121398 0
M  V30 6 C 1.901253 -5.632636 2.047036 0
M  V30 7 O 0.519481 -5.852031 1.877469 0
M  V30 8 C 1.489325 0.127766 0.251437 0
M  V30 9 C 2.372370 0.335032 -0.790060 0
M  V30 10 C 2.499680 1.581634 -1.414736 0
M  V30 11 C 1.718283 2.649820 -0.981268 0
M  V30 12 N 1.555113 3.948485 -1.310312 0
M  V30 13 N 0.641634 4.506903 -0.534382 0
M  V30 14 C 0.181158 3.565477 0.333759 0
M  V30 15 C 0.848533 2.379029 0.070534 0
M  V30 16 C 0.703782 1.148070 0.708100 0
M  V30 17 N -0.219599 1.004306 1.768641 0
M  V30 18 C -1.594569 0.619532 1.602148 0
M  V30 19 C -2.031696 0.377249 0.321370 0
M  V30 20 C -3.376442 0.007178 0.221198 0
M  V30 21 C -4.155577 -0.091287 1.349659 0
M  V30 22 I -6.188411 -0.656918 1.132458 0
M  V30 23 C -3.662133 0.165082 2.620305 0
M  V30 24 C -2.334916 0.534600 2.762821 0
M  V30 25 F -1.805485 0.794579 3.971465 0
M  V30 26 H 2.776919 -2.253713 -0.221598 0
M  V30 27 H 2.233464 -4.859426 0.071936 0
M  V30 28 H 3.434297 -4.362691 1.330582 0
M  V30 29 H 2.091936 -5.334212 3.098814 0
M  V30 30 H 2.461789 -6.569211 1.852328 0
M  V30 31 H 0.134485 -5.127407 1.311622 0
M  V30 32 H 2.995580 -0.455587 -1.159752 0
M  V30 33 H 3.182518 1.755500 -2.225410 0
M  V30 34 H 2.094736 4.406180 -2.075915 0
M  V30 35 H -0.590898 3.778714 1.090394 0
M  V30 36 H 0.226147 1.212272 2.673519 0
M  V30 37 H -1.399199 0.462929 -0.535802 0
M  V30 38 H -3.818831 -0.206450 -0.751935 0
M  V30 39 H -4.322219 0.070470 3.462436 0
M  V30 END ATOM
M  V30 BEGIN BOND
M  V30 1 2 1 2
M  V30 2 1 2 3
M  V30 3 1 3 4
M  V30 4 1 4 5
M  V30 5 1 5 6
M  V30 6 1 6 7
M  V30 7 1 2 8
M  V30 8 2 8 9
M  V30 9 1 9 10
M  V30 10 2 10 11
M  V30 11 1 11 12
M  V30 12 1 12 13
M  V30 13 2 13 14
M  V30 14 1 14 15
M  V30 15 2 15 16
M  V30 16 1 16 17
M  V30 17 1 17 18
M  V30 18 2 18 19
M  V30 19 1 19 20
M  V30 20 2 20 21
M  V30 21 1 21 22
M  V30 22 1 21 23
M  V30 23 2 23 24
M  V30 24 1 24 25
M  V30 25 1 16 8
M  V30 26 1 24 18
M  V30 27 1 15 11
M  V30 28 1 3 26
M  V30 29 1 5 27
M  V30 30 1 5 28
M  V30 31 1 6 29
M  V30 32 1 6 30
M  V30 33 1 7 31
M  V30 34 1 9 32
M  V30 35 1 10 33
M  V30 36 1 12 34
M  V30 37 1 14 35
M  V30 38 1 17 36
M  V30 39 1 19 37
M  V30 40 1 20 38
M  V30 41 1 23 39
M  V30 END BOND
M  V30 END CTAB
M  END
>  <Dataset>  (181) 
ChEMBL_Kinases

>  <Ligand_Instance>  (181) 
nan

>  <PDB_ID>  (181) 
nan

>  <Standardized_SMILES>  (181) 
O=C(NOCCO)c1ccc2[nH]ncc2c1Nc1ccc(I)cc1F

>  <Name>  (181) 
nan

>  <Pocket>  (181) 
nan

>  <ATP_Site>  (181) 
nan

>  <Peripheral>  (181) 
nan

>  <Num_H_Atoms_ProtBoundConf>  (181) 
nan

>  <Num_Resolved_Atoms>  (181) 
nan

>  <Num_Not_Resolved_Atoms>  (181) 
nan

$$$$
CHEMBL208618
     RDKit          3D

  0  0  0  0  0  0  0  0  0  0999 V3000
M  V30 BEGIN CTAB
M  V30 COUNTS 63 64 0 0 0
M  V30 BEGIN ATOM
M  V30 1 C 1.297154 -2.090944 6.148615 0
M  V30 2 C 0.376436 -2.342219 4.940627 0
M  V30 3 C -0.750387 -3.159268 5.458960 0
M  V30 4 C 1.194265 -2.890596 3.849349 0
M  V30 5 C 2.306562 -1.898064 3.476006 0
M  V30 6 C 1.846561 -0.606309 3.032260 0
M  V30 7 C 2.040661 0.060540 1.886426 0
M  V30 8 C 1.618026 1.375473 1.336954 0
M  V30 9 C 1.736274 1.162491 -0.171193 0
M  V30 10 C 2.384559 2.344941 -0.851612 0
M  V30 11 O 1.575114 3.447322 -0.640277 0
M  V30 12 C 0.344852 0.999054 -0.754419 0
M  V30 13 O 0.439980 0.752114 -2.157812 0
M  V30 14 C -0.671046 0.552687 -2.936616 0
M  V30 15 O -1.394037 0.694858 -1.924097 0
M  V30 16 C -1.831149 0.337878 -3.786523 0
M  V30 17 C -3.150084 0.362382 -3.050710 0
M  V30 18 C -4.164016 -0.366226 -3.941870 0
M  V30 19 C -4.015101 0.111505 -5.349610 0
M  V30 20 C -3.301770 1.437966 -5.464327 0
M  V30 21 C -1.902759 1.351946 -4.917566 0
M  V30 22 O 2.526202 0.024765 -0.362559 0
M  V30 23 C 2.860888 -0.563617 0.836821 0
M  V30 24 O 3.704595 -1.453757 0.967094 0
M  V30 25 C 0.547457 -3.417019 2.629823 0
M  V30 26 C -0.385404 -4.589064 2.830530 0
M  V30 27 C -0.145671 -2.352396 1.798565 0
M  V30 28 H 2.124451 -2.800560 6.206237 0
M  V30 29 H 1.731309 -1.067797 6.085624 0
M  V30 30 H 0.684322 -2.209702 7.063299 0
M  V30 31 H -0.031280 -1.336698 4.643721 0
M  V30 32 H -1.561026 -3.389727 4.763931 0
M  V30 33 H -0.419068 -4.128046 5.909322 0
M  V30 34 H -1.212051 -2.634546 6.360214 0
M  V30 35 H 1.728942 -3.799480 4.304297 0
M  V30 36 H 3.101454 -2.411887 2.944028 0
M  V30 37 H 2.793152 -1.711368 4.489076 0
M  V30 38 H 1.226939 -0.041102 3.734527 0
M  V30 39 H 0.580334 1.636431 1.625489 0
M  V30 40 H 2.372940 2.123255 1.691753 0
M  V30 41 H 3.434882 2.491347 -0.528179 0
M  V30 42 H 2.399883 2.131059 -1.925715 0
M  V30 43 H 2.045755 4.126192 -0.076159 0
M  V30 44 H -0.268227 1.897502 -0.595674 0
M  V30 45 H -0.126388 0.128393 -0.288713 0
M  V30 46 H -1.787870 -0.676672 -4.278811 0
M  V30 47 H -3.480927 1.365972 -2.785921 0
M  V30 48 H -3.004466 -0.258744 -2.116399 0
M  V30 49 H -5.194387 -0.226141 -3.551252 0
M  V30 50 H -3.951585 -1.438316 -3.915061 0
M  V30 51 H -5.021510 0.223779 -5.815281 0
M  V30 52 H -3.415860 -0.611258 -5.974609 0
M  V30 53 H -3.864903 2.265123 -5.015664 0
M  V30 54 H -3.209577 1.645310 -6.565823 0
M  V30 55 H -1.634923 2.366560 -4.531670 0
M  V30 56 H -1.195957 1.072080 -5.725409 0
M  V30 57 H 1.387057 -3.787585 1.968888 0
M  V30 58 H -0.252960 -5.122510 3.777216 0
M  V30 59 H -0.183872 -5.391853 2.045628 0
M  V30 60 H -1.460237 -4.326044 2.603307 0
M  V30 61 H -1.107882 -2.799972 1.399911 0
M  V30 62 H -0.374972 -1.435196 2.336834 0
M  V30 63 H 0.404885 -2.086809 0.874488 0
M  V30 END ATOM
M  V30 BEGIN BOND
M  V30 1 1 1 2
M  V30 2 1 2 3
M  V30 3 1 2 4
M  V30 4 1 4 5
M  V30 5 1 5 6
M  V30 6 2 6 7
M  V30 7 1 7 8
M  V30 8 1 8 9
M  V30 9 1 9 10
M  V30 10 1 10 11
M  V30 11 1 9 12
M  V30 12 1 12 13
M  V30 13 1 13 14
M  V30 14 2 14 15
M  V30 15 1 14 16
M  V30 16 1 16 17
M  V30 17 1 17 18
M  V30 18 1 18 19
M  V30 19 1 19 20
M  V30 20 1 20 21
M  V30 21 1 9 22
M  V30 22 1 22 23
M  V30 23 2 23 24
M  V30 24 1 4 25
M  V30 25 1 25 26
M  V30 26 1 25 27
M  V30 27 1 23 7
M  V30 28 1 21 16
M  V30 29 1 1 28
M  V30 30 1 1 29
M  V30 31 1 1 30
M  V30 32 1 2 31
M  V30 33 1 3 32
M  V30 34 1 3 33
M  V30 35 1 3 34
M  V30 36 1 4 35
M  V30 37 1 5 36
M  V30 38 1 5 37
M  V30 39 1 6 38
M  V30 40 1 8 39
M  V30 41 1 8 40
M  V30 42 1 10 41
M  V30 43 1 10 42
M  V30 44 1 11 43
M  V30 45 1 12 44
M  V30 46 1 12 45
M  V30 47 1 16 46
M  V30 48 1 17 47
M  V30 49 1 17 48
M  V30 50 1 18 49
M  V30 51 1 18 50
M  V30 52 1 19 51
M  V30 53 1 19 52
M  V30 54 1 20 53
M  V30 55 1 20 54
M  V30 56 1 21 55
M  V30 57 1 21 56
M  V30 58 1 25 57
M  V30 59 1 26 58
M  V30 60 1 26 59
M  V30 61 1 26 60
M  V30 62 1 27 61
M  V30 63 1 27 62
M  V30 64 1 27 63
M  V30 END BOND
M  V30 END CTAB
M  END
>  <Dataset>  (182) 
ChEMBL_Kinases

>  <Ligand_Instance>  (182) 
nan

>  <PDB_ID>  (182) 
nan

>  <Standardized_SMILES>  (182) 
CC(C)C(C/C=C1/CC(CO)(COC(=O)C2CCCCC2)OC1=O)C(C)C

>  <Name>  (182) 
nan

>  <Pocket>  (182) 
nan

>  <ATP_Site>  (182) 
nan

>  <Peripheral>  (182) 
nan

>  <Num_H_Atoms_ProtBoundConf>  (182) 
nan

>  <Num_Resolved_Atoms>  (182) 
nan

>  <Num_Not_Resolved_Atoms>  (182) 
nan

$$$$
CHEMBL208612
     RDKit          3D

  0  0  0  0  0  0  0  0  0  0999 V3000
M  V30 BEGIN CTAB
M  V30 COUNTS 48 51 0 0 0
M  V30 BEGIN ATOM
M  V30 1 C -1.245571 -4.053689 -1.136481 0
M  V30 2 C -0.196926 -3.871910 -2.169067 0
M  V30 3 N 0.249787 -4.779621 -3.074890 0
M  V30 4 N 1.182876 -4.179036 -3.786177 0
M  V30 5 C 1.371012 -2.914325 -3.388845 0
M  V30 6 C 2.207480 -1.871973 -3.788480 0
M  V30 7 C 2.155456 -0.643611 -3.152382 0
M  V30 8 C 1.268386 -0.429072 -2.104632 0
M  V30 9 C 1.286832 0.901461 -1.496188 0
M  V30 10 C 1.584321 2.023841 -2.244145 0
M  V30 11 N 1.578504 3.214707 -1.600852 0
M  V30 12 C 1.295795 3.309983 -0.287747 0
M  V30 13 C 0.993137 2.192776 0.486162 0
M  V30 14 O 0.709118 2.377113 1.851892 0
M  V30 15 C 0.411423 1.201589 2.576091 0
M  V30 16 C 0.118233 1.495944 4.033307 0 CFG=1
M  V30 17 N -0.998678 2.372964 4.182935 0
M  V30 18 C -0.032701 0.208691 4.809851 0
M  V30 19 C -1.142490 -0.627673 4.283200 0
M  V30 20 C -0.990842 -1.580489 3.295643 0
M  V30 21 C -2.072687 -2.325567 2.850939 0
M  V30 22 N -3.275742 -2.119794 3.383567 0
M  V30 23 C -3.510866 -1.218571 4.342692 0
M  V30 24 C -2.437513 -0.471502 4.791691 0
M  V30 25 C 0.993606 0.974518 -0.147651 0
M  V30 26 C 0.431962 -1.448191 -1.694120 0
M  V30 27 C 0.489949 -2.670542 -2.333795 0
M  V30 28 H -1.550658 -5.118136 -1.163147 0
M  V30 29 H -2.110330 -3.396481 -1.366257 0
M  V30 30 H -0.870375 -3.789091 -0.115598 0
M  V30 31 H 1.696640 -4.648040 -4.556261 0
M  V30 32 H 2.904660 -2.056233 -4.618954 0
M  V30 33 H 2.848259 0.112598 -3.533613 0
M  V30 34 H 1.804896 1.891257 -3.299389 0
M  V30 35 H 1.301066 4.291602 0.198490 0
M  V30 36 H 1.262315 0.524596 2.447279 0
M  V30 37 H -0.488637 0.676051 2.177071 0
M  V30 38 H 1.017028 2.008539 4.436601 0
M  V30 39 H -1.029067 2.636830 5.210833 0
M  V30 40 H -0.763231 3.265121 3.686400 0
M  V30 41 H 0.946659 -0.327949 4.730183 0
M  V30 42 H -0.201702 0.389674 5.889201 0
M  V30 43 H -0.017232 -1.737934 2.874198 0
M  V30 44 H -1.917034 -3.062201 2.076884 0
M  V30 45 H -4.479221 -1.018884 4.804994 0
M  V30 46 H -2.550773 0.277124 5.566747 0
M  V30 47 H 0.758530 0.112899 0.456610 0
M  V30 48 H -0.241630 -1.266578 -0.890066 0
M  V30 END ATOM
M  V30 BEGIN BOND
M  V30 1 1 1 2
M  V30 2 2 2 3
M  V30 3 1 3 4
M  V30 4 1 4 5
M  V30 5 2 5 6
M  V30 6 1 6 7
M  V30 7 2 7 8
M  V30 8 1 8 9
M  V30 9 2 9 10
M  V30 10 1 10 11
M  V30 11 2 11 12
M  V30 12 1 12 13
M  V30 13 1 13 14
M  V30 14 1 14 15
M  V30 15 1 15 16
M  V30 16 1 16 17
M  V30 17 1 16 18
M  V30 18 1 18 19
M  V30 19 2 19 20
M  V30 20 1 20 21
M  V30 21 2 21 22
M  V30 22 1 22 23
M  V30 23 2 23 24
M  V30 24 2 13 25
M  V30 25 1 8 26
M  V30 26 2 26 27
M  V30 27 1 27 2
M  V30 28 1 27 5
M  V30 29 1 25 9
M  V30 30 1 24 19
M  V30 31 1 1 28
M  V30 32 1 1 29
M  V30 33 1 1 30
M  V30 34 1 4 31
M  V30 35 1 6 32
M  V30 36 1 7 33
M  V30 37 1 10 34
M  V30 38 1 12 35
M  V30 39 1 15 36
M  V30 40 1 15 37
M  V30 41 1 16 38 CFG=1
M  V30 42 1 17 39
M  V30 43 1 17 40
M  V30 44 1 18 41
M  V30 45 1 18 42
M  V30 46 1 20 43
M  V30 47 1 21 44
M  V30 48 1 23 45
M  V30 49 1 24 46
M  V30 50 1 25 47
M  V30 51 1 26 48
M  V30 END BOND
M  V30 END CTAB
M  END
>  <Dataset>  (183) 
ChEMBL_Kinases

>  <Ligand_Instance>  (183) 
nan

>  <PDB_ID>  (183) 
nan

>  <Standardized_SMILES>  (183) 
Cc1n[nH]c2ccc(-c3cncc(OC[C@@H](N)Cc4ccncc4)c3)cc12

>  <Name>  (183) 
nan

>  <Pocket>  (183) 
nan

>  <ATP_Site>  (183) 
nan

>  <Peripheral>  (183) 
nan

>  <Num_H_Atoms_ProtBoundConf>  (183) 
nan

>  <Num_Resolved_Atoms>  (183) 
nan

>  <Num_Not_Resolved_Atoms>  (183) 
nan

$$$$
CHEMBL208606
     RDKit          3D

  0  0  0  0  0  0  0  0  0  0999 V3000
M  V30 BEGIN CTAB
M  V30 COUNTS 55 59 0 0 0
M  V30 BEGIN ATOM
M  V30 1 C -0.999185 -2.727989 4.762391 0
M  V30 2 N -0.191814 -2.538782 3.566446 0
M  V30 3 C 0.998064 -1.934112 3.500735 0
M  V30 4 C 1.455244 -1.942194 2.222769 0
M  V30 5 C 2.669175 -1.457098 1.513807 0
M  V30 6 C 3.623544 -0.711636 2.366242 0 CFG=2
M  V30 7 N 4.050197 -1.577492 3.418350 0
M  V30 8 C 3.195527 0.634492 2.798808 0
M  V30 9 O 2.801283 1.462996 1.818620 0
M  V30 10 C 1.951350 1.725258 0.862275 0
M  V30 11 C 2.431885 2.945912 0.327541 0
M  V30 12 N 1.830992 3.607081 -0.719664 0
M  V30 13 C 0.720129 3.051257 -1.261112 0
M  V30 14 C 0.187686 1.878490 -0.809104 0
M  V30 15 C -1.001516 1.231160 -1.340100 0
M  V30 16 C -1.809609 0.485073 -0.518187 0
M  V30 17 C -2.969434 -0.183907 -0.876219 0
M  V30 18 C -3.335016 -0.076856 -2.205899 0
M  V30 19 C -4.477837 -0.714771 -2.637361 0
M  V30 20 N -4.878320 -0.639427 -3.931411 0
M  V30 21 C -4.149906 0.071363 -4.819014 0
M  V30 22 C -2.989533 0.722854 -4.395134 0
M  V30 23 C -2.564681 0.659937 -3.087860 0
M  V30 24 C -1.416009 1.301772 -2.653900 0
M  V30 25 C 0.819767 1.261422 0.231129 0
M  V30 26 C 0.503353 -2.582157 1.462635 0
M  V30 27 C 0.284444 -2.947135 0.163392 0
M  V30 28 C -0.808812 -3.610130 -0.326420 0
M  V30 29 C -1.820879 -3.965325 0.558666 0
M  V30 30 C -1.648937 -3.619182 1.887158 0
M  V30 31 C -0.528840 -2.950543 2.333694 0
M  V30 32 H -2.028869 -2.973010 4.496306 0
M  V30 33 H -0.613981 -3.600731 5.353192 0
M  V30 34 H -1.005507 -1.837321 5.423500 0
M  V30 35 H 1.550622 -1.499659 4.291518 0
M  V30 36 H 3.219290 -2.440418 1.264293 0
M  V30 37 H 2.456275 -1.032059 0.522645 0
M  V30 38 H 4.555997 -0.554184 1.733569 0
M  V30 39 H 4.481714 -1.189933 4.236567 0
M  V30 40 H 3.699205 -2.537847 3.422549 0
M  V30 41 H 2.408123 0.600435 3.611005 0
M  V30 42 H 4.068710 1.103110 3.378694 0
M  V30 43 H 3.285380 3.592328 0.571254 0
M  V30 44 H 0.169802 3.490685 -2.089843 0
M  V30 45 H -1.520354 0.401863 0.527617 0
M  V30 46 H -3.531285 -0.743567 -0.148106 0
M  V30 47 H -5.052132 -1.285748 -1.895665 0
M  V30 48 H -4.472922 0.131943 -5.861468 0
M  V30 49 H -2.406126 1.297867 -5.126780 0
M  V30 50 H -0.811649 1.880564 -3.349251 0
M  V30 51 H 0.538186 0.333124 0.725960 0
M  V30 52 H 1.046200 -2.690771 -0.559249 0
M  V30 53 H -0.885791 -3.856718 -1.393538 0
M  V30 54 H -2.681837 -4.480057 0.210834 0
M  V30 55 H -2.456284 -3.911161 2.548371 0
M  V30 END ATOM
M  V30 BEGIN BOND
M  V30 1 1 1 2
M  V30 2 1 2 3
M  V30 3 2 3 4
M  V30 4 1 4 5
M  V30 5 1 5 6
M  V30 6 1 6 7
M  V30 7 1 6 8
M  V30 8 1 8 9
M  V30 9 1 9 10
M  V30 10 2 10 11
M  V30 11 1 11 12
M  V30 12 2 12 13
M  V30 13 1 13 14
M  V30 14 1 14 15
M  V30 15 2 15 16
M  V30 16 1 16 17
M  V30 17 2 17 18
M  V30 18 1 18 19
M  V30 19 2 19 20
M  V30 20 1 20 21
M  V30 21 2 21 22
M  V30 22 1 22 23
M  V30 23 2 23 24
M  V30 24 2 14 25
M  V30 25 1 4 26
M  V30 26 2 26 27
M  V30 27 1 27 28
M  V30 28 2 28 29
M  V30 29 1 29 30
M  V30 30 2 30 31
M  V30 31 1 31 2
M  V30 32 1 25 10
M  V30 33 1 31 26
M  V30 34 1 24 15
M  V30 35 1 23 18
M  V30 36 1 1 32
M  V30 37 1 1 33
M  V30 38 1 1 34
M  V30 39 1 3 35
M  V30 40 1 5 36
M  V30 41 1 5 37
M  V30 42 1 6 38 CFG=3
M  V30 43 1 7 39
M  V30 44 1 7 40
M  V30 45 1 8 41
M  V30 46 1 8 42
M  V30 47 1 11 43
M  V30 48 1 13 44
M  V30 49 1 16 45
M  V30 50 1 17 46
M  V30 51 1 19 47
M  V30 52 1 21 48
M  V30 53 1 22 49
M  V30 54 1 24 50
M  V30 55 1 25 51
M  V30 56 1 27 52
M  V30 57 1 28 53
M  V30 58 1 29 54
M  V30 59 1 30 55
M  V30 END BOND
M  V30 END CTAB
M  END
>  <Dataset>  (184) 
ChEMBL_Kinases

>  <Ligand_Instance>  (184) 
nan

>  <PDB_ID>  (184) 
nan

>  <Standardized_SMILES>  (184) 
Cn1cc(C[C@H](N)COc2cncc(-c3ccc4cnccc4c3)c2)c2ccccc21

>  <Name>  (184) 
nan

>  <Pocket>  (184) 
nan

>  <ATP_Site>  (184) 
nan

>  <Peripheral>  (184) 
nan

>  <Num_H_Atoms_ProtBoundConf>  (184) 
nan

>  <Num_Resolved_Atoms>  (184) 
nan

>  <Num_Not_Resolved_Atoms>  (184) 
nan

$$$$
CHEMBL208568
     RDKit          3D

  0  0  0  0  0  0  0  0  0  0999 V3000
M  V30 BEGIN CTAB
M  V30 COUNTS 61 62 0 0 0
M  V30 BEGIN ATOM
M  V30 1 C 0.796681 -0.821302 8.005725 0
M  V30 2 O 1.392354 -1.093752 6.752954 0
M  V30 3 C 1.334810 -0.206658 5.685963 0
M  V30 4 C 0.709236 1.035283 5.682353 0
M  V30 5 C 0.729612 1.817748 4.546794 0
M  V30 6 C 1.362392 1.397363 3.396854 0
M  V30 7 C 2.003193 0.154142 3.360595 0
M  V30 8 C 2.699613 -0.355247 2.159627 0
M  V30 9 O 3.266270 -1.471979 2.151686 0
M  V30 10 O 2.685204 0.470355 1.059620 0
M  V30 11 C 3.242173 0.261779 -0.188787 0
M  V30 12 C 2.736409 -0.887298 -0.985904 0
M  V30 13 C 3.490127 -0.841246 -2.325428 0
M  V30 14 O 3.247524 0.376694 -2.958054 0
M  V30 15 C 1.236610 -0.797025 -1.240751 0
M  V30 16 C 0.689632 -2.012598 -0.584736 0
M  V30 17 C -0.572201 -2.241749 -0.201657 0
M  V30 18 C -1.615395 -1.235193 -0.409924 0
M  V30 19 C -2.763180 -1.660366 -1.261514 0
M  V30 20 C -3.822825 -0.610982 -1.460804 0
M  V30 21 C -3.352191 0.646065 -2.112381 0
M  V30 22 C -4.517119 -0.249723 -0.165397 0
M  V30 23 C -2.374704 -2.289124 -2.567217 0
M  V30 24 C -1.564994 -1.412319 -3.469627 0
M  V30 25 C -1.774681 -3.675109 -2.416470 0
M  V30 26 C 1.834243 -2.935891 -0.435382 0
M  V30 27 O 1.719659 -4.208478 -0.426283 0
M  V30 28 O 2.951794 -2.087494 -0.320383 0
M  V30 29 C 1.952480 -0.577558 4.509053 0
M  V30 30 H -0.178052 -0.302132 7.770112 0
M  V30 31 H 1.407310 -0.080634 8.525901 0
M  V30 32 H 0.526102 -1.719977 8.559790 0
M  V30 33 H 0.226137 1.323258 6.605727 0
M  V30 34 H 0.228315 2.794496 4.569471 0
M  V30 35 H 1.389132 2.007462 2.481618 0
M  V30 36 H 3.160749 1.236212 -0.748168 0
M  V30 37 H 4.357288 0.155237 -0.039753 0
M  V30 38 H 3.006931 -1.620886 -2.946616 0
M  V30 39 H 4.560745 -1.007577 -2.165808 0
M  V30 40 H 2.405565 0.773951 -2.601975 0
M  V30 41 H 0.795559 0.130897 -0.827078 0
M  V30 42 H 1.087747 -0.789197 -2.320577 0
M  V30 43 H -0.814105 -3.177109 0.263753 0
M  V30 44 H -1.209145 -0.284065 -0.809661 0
M  V30 45 H -2.003536 -0.960452 0.607092 0
M  V30 46 H -3.278324 -2.485247 -0.681884 0
M  V30 47 H -4.606942 -1.038527 -2.119367 0
M  V30 48 H -2.444066 1.088505 -1.661362 0
M  V30 49 H -3.328851 0.592965 -3.222704 0
M  V30 50 H -4.155088 1.415481 -1.906299 0
M  V30 51 H -4.372746 -1.025925 0.611709 0
M  V30 52 H -5.608312 -0.118200 -0.314762 0
M  V30 53 H -4.125100 0.713430 0.220419 0
M  V30 54 H -3.347946 -2.463908 -3.118741 0
M  V30 55 H -1.197344 -0.479554 -2.982308 0
M  V30 56 H -2.095258 -1.099436 -4.392276 0
M  V30 57 H -0.701241 -2.027446 -3.848047 0
M  V30 58 H -2.091628 -4.180507 -1.497869 0
M  V30 59 H -0.679314 -3.614902 -2.569971 0
M  V30 60 H -2.126455 -4.351713 -3.250053 0
M  V30 61 H 2.461335 -1.553450 4.464593 0
M  V30 END ATOM
M  V30 BEGIN BOND
M  V30 1 1 1 2
M  V30 2 1 2 3
M  V30 3 2 3 4
M  V30 4 1 4 5
M  V30 5 2 5 6
M  V30 6 1 6 7
M  V30 7 1 7 8
M  V30 8 2 8 9
M  V30 9 1 8 10
M  V30 10 1 10 11
M  V30 11 1 11 12
M  V30 12 1 12 13
M  V30 13 1 13 14
M  V30 14 1 12 15
M  V30 15 1 15 16
M  V30 16 2 16 17
M  V30 17 1 17 18
M  V30 18 1 18 19
M  V30 19 1 19 20
M  V30 20 1 20 21
M  V30 21 1 20 22
M  V30 22 1 19 23
M  V30 23 1 23 24
M  V30 24 1 23 25
M  V30 25 1 16 26
M  V30 26 2 26 27
M  V30 27 1 26 28
M  V30 28 2 7 29
M  V30 29 1 29 3
M  V30 30 1 28 12
M  V30 31 1 1 30
M  V30 32 1 1 31
M  V30 33 1 1 32
M  V30 34 1 4 33
M  V30 35 1 5 34
M  V30 36 1 6 35
M  V30 37 1 11 36
M  V30 38 1 11 37
M  V30 39 1 13 38
M  V30 40 1 13 39
M  V30 41 1 14 40
M  V30 42 1 15 41
M  V30 43 1 15 42
M  V30 44 1 17 43
M  V30 45 1 18 44
M  V30 46 1 18 45
M  V30 47 1 19 46
M  V30 48 1 20 47
M  V30 49 1 21 48
M  V30 50 1 21 49
M  V30 51 1 21 50
M  V30 52 1 22 51
M  V30 53 1 22 52
M  V30 54 1 22 53
M  V30 55 1 23 54
M  V30 56 1 24 55
M  V30 57 1 24 56
M  V30 58 1 24 57
M  V30 59 1 25 58
M  V30 60 1 25 59
M  V30 61 1 25 60
M  V30 62 1 29 61
M  V30 END BOND
M  V30 END CTAB
M  END
>  <Dataset>  (185) 
ChEMBL_Kinases

>  <Ligand_Instance>  (185) 
nan

>  <PDB_ID>  (185) 
nan

>  <Standardized_SMILES>  (185) 
COc1cccc(C(=O)OCC2(CO)C/C(=C\CC(C(C)C)C(C)C)C(=O)O2)c1

>  <Name>  (185) 
nan

>  <Pocket>  (185) 
nan

>  <ATP_Site>  (185) 
nan

>  <Peripheral>  (185) 
nan

>  <Num_H_Atoms_ProtBoundConf>  (185) 
nan

>  <Num_Resolved_Atoms>  (185) 
nan

>  <Num_Not_Resolved_Atoms>  (185) 
nan

$$$$
CHEMBL208537
     RDKit          3D

  0  0  0  0  0  0  0  0  0  0999 V3000
M  V30 BEGIN CTAB
M  V30 COUNTS 51 53 0 0 0
M  V30 BEGIN ATOM
M  V30 1 C 0.731349 -1.834919 3.295939 0
M  V30 2 O -0.103018 -1.718925 2.175567 0
M  V30 3 C -0.469973 -0.511168 1.684693 0
M  V30 4 C 0.005339 0.609406 2.324845 0
M  V30 5 C -0.360100 1.839296 1.835999 0
M  V30 6 C 0.106136 3.075161 2.463487 0
M  V30 7 N 1.334037 3.609592 1.962324 0
M  V30 8 C 2.461256 2.764929 2.087564 0
M  V30 9 C 2.746643 1.881953 0.929659 0
M  V30 10 N 1.959685 2.147488 -0.243827 0
M  V30 11 C 2.537073 1.536518 -1.400266 0
M  V30 12 C 1.672684 3.525048 -0.487363 0
M  V30 13 C 1.215929 4.292004 0.707411 0
M  V30 14 C -1.179999 1.888736 0.734968 0
M  V30 15 C -1.637318 0.750439 0.118971 0
M  V30 16 C -1.290241 -0.501850 0.583081 0
M  V30 17 N -1.838494 -1.564457 -0.155049 0
M  V30 18 C -1.772621 -2.956244 -0.067622 0
M  V30 19 O -1.089926 -3.447638 0.850164 0
M  V30 20 N -2.382687 -3.926445 -0.888938 0
M  V30 21 C -2.219033 -5.315839 -0.669740 0
M  V30 22 C -2.859051 -6.179455 -1.531378 0
M  V30 23 N -2.705750 -7.515498 -1.325870 0
M  V30 24 C -1.947929 -7.967094 -0.306479 0
M  V30 25 C -1.757733 -9.360958 -0.051394 0
M  V30 26 N -1.614755 -10.492469 0.144243 0
M  V30 27 C -1.323859 -7.072816 0.533728 0
M  V30 28 N -1.459220 -5.748508 0.352351 0
M  V30 29 H 0.317714 -1.291575 4.172309 0
M  V30 30 H 1.745277 -1.408717 3.135791 0
M  V30 31 H 0.792923 -2.909199 3.594293 0
M  V30 32 H 0.647528 0.506918 3.187782 0
M  V30 33 H 0.293531 2.844857 3.553263 0
M  V30 34 H -0.704937 3.829020 2.430728 0
M  V30 35 H 2.348386 2.189123 3.040277 0
M  V30 36 H 3.365980 3.414771 2.278225 0
M  V30 37 H 3.819555 1.985226 0.598841 0
M  V30 38 H 2.651669 0.788158 1.154765 0
M  V30 39 H 3.558253 1.115339 -1.199782 0
M  V30 40 H 2.573468 2.265345 -2.223747 0
M  V30 41 H 1.890341 0.687268 -1.765514 0
M  V30 42 H 0.861318 3.553558 -1.255293 0
M  V30 43 H 2.590235 3.956141 -0.979345 0
M  V30 44 H 1.883328 5.197720 0.770938 0
M  V30 45 H 0.201780 4.700314 0.616454 0
M  V30 46 H -1.455478 2.861558 0.366564 0
M  V30 47 H -2.279778 0.936621 -0.743556 0
M  V30 48 H -2.457871 -1.360061 -0.987808 0
M  V30 49 H -2.963708 -3.555912 -1.670112 0
M  V30 50 H -3.476755 -5.820645 -2.362294 0
M  V30 51 H -0.713480 -7.418819 1.354812 0
M  V30 END ATOM
M  V30 BEGIN BOND
M  V30 1 1 1 2
M  V30 2 1 2 3
M  V30 3 2 3 4
M  V30 4 1 4 5
M  V30 5 1 5 6
M  V30 6 1 6 7
M  V30 7 1 7 8
M  V30 8 1 8 9
M  V30 9 1 9 10
M  V30 10 1 10 11
M  V30 11 1 10 12
M  V30 12 1 12 13
M  V30 13 2 5 14
M  V30 14 1 14 15
M  V30 15 2 15 16
M  V30 16 1 16 17
M  V30 17 1 17 18
M  V30 18 2 18 19
M  V30 19 1 18 20
M  V30 20 1 20 21
M  V30 21 2 21 22
M  V30 22 1 22 23
M  V30 23 2 23 24
M  V30 24 1 24 25
M  V30 25 3 25 26
M  V30 26 1 24 27
M  V30 27 2 27 28
M  V30 28 1 16 3
M  V30 29 1 28 21
M  V30 30 1 13 7
M  V30 31 1 1 29
M  V30 32 1 1 30
M  V30 33 1 1 31
M  V30 34 1 4 32
M  V30 35 1 6 33
M  V30 36 1 6 34
M  V30 37 1 8 35
M  V30 38 1 8 36
M  V30 39 1 9 37
M  V30 40 1 9 38
M  V30 41 1 11 39
M  V30 42 1 11 40
M  V30 43 1 11 41
M  V30 44 1 12 42
M  V30 45 1 12 43
M  V30 46 1 13 44
M  V30 47 1 13 45
M  V30 48 1 14 46
M  V30 49 1 15 47
M  V30 50 1 17 48
M  V30 51 1 20 49
M  V30 52 1 22 50
M  V30 53 1 27 51
M  V30 END BOND
M  V30 END CTAB
M  END
>  <Dataset>  (186) 
ChEMBL_Kinases

>  <Ligand_Instance>  (186) 
nan

>  <PDB_ID>  (186) 
nan

>  <Standardized_SMILES>  (186) 
COc1cc(CN2CCN(C)CC2)ccc1NC(=O)Nc1cnc(C#N)cn1

>  <Name>  (186) 
nan

>  <Pocket>  (186) 
nan

>  <ATP_Site>  (186) 
nan

>  <Peripheral>  (186) 
nan

>  <Num_H_Atoms_ProtBoundConf>  (186) 
nan

>  <Num_Resolved_Atoms>  (186) 
nan

>  <Num_Not_Resolved_Atoms>  (186) 
nan

$$$$
CHEMBL208516
     RDKit          3D

  0  0  0  0  0  0  0  0  0  0999 V3000
M  V30 BEGIN CTAB
M  V30 COUNTS 28 29 0 0 0
M  V30 BEGIN ATOM
M  V30 1 C -0.640806 -4.419367 4.616317 0
M  V30 2 O -0.179240 -3.083702 4.711994 0
M  V30 3 C -0.023144 -2.316832 3.561989 0
M  V30 4 C -0.288969 -2.754618 2.263386 0
M  V30 5 C -0.107641 -1.930894 1.179265 0
M  V30 6 C 0.348217 -0.641260 1.384537 0
M  V30 7 C 0.558242 0.275583 0.268604 0
M  V30 8 N 0.341910 -0.017261 -1.026296 0
M  V30 9 C 0.632220 1.045100 -1.799823 0
M  V30 10 C 0.563021 1.226690 -3.246586 0
M  V30 11 N 0.130126 0.179395 -4.107933 0
M  V30 12 O 0.904931 2.353361 -3.689625 0
M  V30 13 C 1.044775 2.028020 -0.922827 0
M  V30 14 N 1.475459 3.364105 -1.170212 0
M  V30 15 O 0.987920 1.532131 0.308521 0
M  V30 16 C 0.607822 -0.218489 2.670644 0
M  V30 17 C 0.432500 -1.029830 3.774761 0
M  V30 18 H -1.734373 -4.404697 4.450005 0
M  V30 19 H -0.159457 -4.966425 3.777622 0
M  V30 20 H -0.451893 -4.959507 5.555263 0
M  V30 21 H -0.640906 -3.771285 2.183791 0
M  V30 22 H -0.319938 -2.290671 0.180291 0
M  V30 23 H 0.173270 0.345646 -5.134648 0
M  V30 24 H -0.209798 -0.704894 -3.670787 0
M  V30 25 H 2.421152 3.762829 -0.979525 0
M  V30 26 H 0.710604 3.949062 -1.587134 0
M  V30 27 H 0.966704 0.803698 2.806435 0
M  V30 28 H 0.662897 -0.608874 4.744580 0
M  V30 END ATOM
M  V30 BEGIN BOND
M  V30 1 1 1 2
M  V30 2 1 2 3
M  V30 3 2 3 4
M  V30 4 1 4 5
M  V30 5 2 5 6
M  V30 6 1 6 7
M  V30 7 2 7 8
M  V30 8 1 8 9
M  V30 9 1 9 10
M  V30 10 1 10 11
M  V30 11 2 10 12
M  V30 12 2 9 13
M  V30 13 1 13 14
M  V30 14 1 13 15
M  V30 15 1 6 16
M  V30 16 2 16 17
M  V30 17 1 17 3
M  V30 18 1 15 7
M  V30 19 1 1 18
M  V30 20 1 1 19
M  V30 21 1 1 20
M  V30 22 1 4 21
M  V30 23 1 5 22
M  V30 24 1 11 23
M  V30 25 1 11 24
M  V30 26 1 14 25
M  V30 27 1 14 26
M  V30 28 1 16 27
M  V30 29 1 17 28
M  V30 END BOND
M  V30 END CTAB
M  END
>  <Dataset>  (187) 
ChEMBL_Kinases

>  <Ligand_Instance>  (187) 
nan

>  <PDB_ID>  (187) 
nan

>  <Standardized_SMILES>  (187) 
COc1ccc(-c2nc(C(N)=O)c(N)o2)cc1

>  <Name>  (187) 
nan

>  <Pocket>  (187) 
nan

>  <ATP_Site>  (187) 
nan

>  <Peripheral>  (187) 
nan

>  <Num_H_Atoms_ProtBoundConf>  (187) 
nan

>  <Num_Resolved_Atoms>  (187) 
nan

>  <Num_Not_Resolved_Atoms>  (187) 
nan

$$$$
CHEMBL208499
     RDKit          3D

  0  0  0  0  0  0  0  0  0  0999 V3000
M  V30 BEGIN CTAB
M  V30 COUNTS 50 53 0 0 0
M  V30 BEGIN ATOM
M  V30 1 N -0.512528 -1.076712 0.331500 0
M  V30 2 C -0.817950 -1.865145 -0.814446 0 CFG=2
M  V30 3 C -0.177889 -1.486502 -2.102530 0
M  V30 4 O 1.181435 -1.490822 -2.208170 0
M  V30 5 C 2.137630 -0.774077 -1.603243 0
M  V30 6 C 3.327034 -1.307426 -2.155226 0
M  V30 7 N 4.585261 -0.868273 -1.821788 0
M  V30 8 C 4.731636 0.139446 -0.908418 0
M  V30 9 C 3.600703 0.686121 -0.348128 0
M  V30 10 C 3.710815 1.757056 0.625636 0
M  V30 11 O 4.886046 2.106578 0.895530 0
M  V30 12 N 2.655591 2.430318 1.285021 0
M  V30 13 C 2.683854 3.461123 2.225601 0
M  V30 14 C 1.502420 3.963300 2.728392 0
M  V30 15 C 1.469497 4.978500 3.656768 0
M  V30 16 N 2.596155 5.533370 4.121353 0
M  V30 17 C 3.806542 5.096449 3.677091 0
M  V30 18 C 3.784398 4.083341 2.752653 0
M  V30 19 C 2.365833 0.213675 -0.713825 0
M  V30 20 C -2.334846 -1.778361 -1.065448 0
M  V30 21 C -3.073616 -2.297833 0.122815 0
M  V30 22 C -3.728839 -1.520701 1.081283 0
M  V30 23 N -4.266668 -2.344223 1.981329 0
M  V30 24 C -3.994467 -3.629619 1.657917 0
M  V30 25 C -4.311131 -4.844955 2.244615 0
M  V30 26 C -3.873045 -6.030516 1.655373 0
M  V30 27 C -3.130035 -5.976938 0.495915 0
M  V30 28 C -2.798339 -4.774790 -0.113055 0
M  V30 29 C -3.243146 -3.615095 0.488558 0
M  V30 30 H -1.350145 -0.675125 0.806849 0
M  V30 31 H 0.156110 -1.524366 0.997914 0
M  V30 32 H -0.542556 -2.918399 -0.564947 0
M  V30 33 H -0.606864 -2.110268 -2.936831 0
M  V30 34 H -0.619487 -0.455584 -2.348925 0
M  V30 35 H 3.531401 -2.104352 -2.895011 0
M  V30 36 H 5.718374 0.501361 -0.630476 0
M  V30 37 H 1.727494 2.059412 0.985004 0
M  V30 38 H 0.536314 3.568899 2.404303 0
M  V30 39 H 0.535843 5.340988 4.022277 0
M  V30 40 H 4.717534 5.541776 4.049700 0
M  V30 41 H 4.765880 3.774437 2.434089 0
M  V30 42 H 1.431936 0.588659 -0.347418 0
M  V30 43 H -2.632384 -2.327246 -1.979273 0
M  V30 44 H -2.587254 -0.711146 -1.213652 0
M  V30 45 H -3.799528 -0.451895 1.108183 0
M  V30 46 H -4.819053 -2.047431 2.817093 0
M  V30 47 H -4.896514 -4.789305 3.150382 0
M  V30 48 H -4.133139 -6.964470 2.132284 0
M  V30 49 H -2.783441 -6.902588 0.028521 0
M  V30 50 H -2.211350 -4.802084 -1.023876 0
M  V30 END ATOM
M  V30 BEGIN BOND
M  V30 1 1 1 2
M  V30 2 1 2 3
M  V30 3 1 3 4
M  V30 4 1 4 5
M  V30 5 2 5 6
M  V30 6 1 6 7
M  V30 7 2 7 8
M  V30 8 1 8 9
M  V30 9 1 9 10
M  V30 10 2 10 11
M  V30 11 1 10 12
M  V30 12 1 12 13
M  V30 13 2 13 14
M  V30 14 1 14 15
M  V30 15 2 15 16
M  V30 16 1 16 17
M  V30 17 2 17 18
M  V30 18 2 9 19
M  V30 19 1 2 20
M  V30 20 1 20 21
M  V30 21 2 21 22
M  V30 22 1 22 23
M  V30 23 1 23 24
M  V30 24 2 24 25
M  V30 25 1 25 26
M  V30 26 2 26 27
M  V30 27 1 27 28
M  V30 28 2 28 29
M  V30 29 1 19 5
M  V30 30 1 29 21
M  V30 31 1 18 13
M  V30 32 1 29 24
M  V30 33 1 1 30
M  V30 34 1 1 31
M  V30 35 1 2 32 CFG=1
M  V30 36 1 3 33
M  V30 37 1 3 34
M  V30 38 1 6 35
M  V30 39 1 8 36
M  V30 40 1 12 37
M  V30 41 1 14 38
M  V30 42 1 15 39
M  V30 43 1 17 40
M  V30 44 1 18 41
M  V30 45 1 19 42
M  V30 46 1 20 43
M  V30 47 1 20 44
M  V30 48 1 22 45
M  V30 49 1 23 46
M  V30 50 1 25 47
M  V30 51 1 26 48
M  V30 52 1 27 49
M  V30 53 1 28 50
M  V30 END BOND
M  V30 END CTAB
M  END
>  <Dataset>  (188) 
ChEMBL_Kinases

>  <Ligand_Instance>  (188) 
nan

>  <PDB_ID>  (188) 
nan

>  <Standardized_SMILES>  (188) 
N[C@H](COc1cncc(C(=O)Nc2ccncc2)c1)Cc1c[nH]c2ccccc12

>  <Name>  (188) 
nan

>  <Pocket>  (188) 
nan

>  <ATP_Site>  (188) 
nan

>  <Peripheral>  (188) 
nan

>  <Num_H_Atoms_ProtBoundConf>  (188) 
nan

>  <Num_Resolved_Atoms>  (188) 
nan

>  <Num_Not_Resolved_Atoms>  (188) 
nan

$$$$
CHEMBL208014
     RDKit          3D

  0  0  0  0  0  0  0  0  0  0999 V3000
M  V30 BEGIN CTAB
M  V30 COUNTS 52 56 0 0 0
M  V30 BEGIN ATOM
M  V30 1 N 1.265916 -2.720338 4.511605 0
M  V30 2 C 0.856016 -3.530443 3.373993 0 CFG=2
M  V30 3 C 1.693818 -3.075160 2.211143 0
M  V30 4 O 1.551464 -1.788681 1.906671 0
M  V30 5 C 1.684043 -0.531293 2.271845 0
M  V30 6 C 2.127589 0.184327 3.338831 0
M  V30 7 N 2.129071 1.525005 3.409217 0
M  V30 8 C 1.664746 2.271684 2.365334 0
M  V30 9 C 1.189019 1.655145 1.226842 0
M  V30 10 C 0.720579 2.551692 0.179085 0
M  V30 11 C 0.155203 3.760353 0.601762 0
M  V30 12 C -0.322850 4.686913 -0.331631 0
M  V30 13 C -0.232873 4.400238 -1.677166 0
M  V30 14 C -0.695293 5.293097 -2.639253 0
M  V30 15 Cl -1.391954 6.790137 -2.043558 0
M  V30 16 N -0.605228 5.008874 -3.954309 0
M  V30 17 C -0.054624 3.832948 -4.347551 0
M  V30 18 C 0.426637 2.898355 -3.424449 0
M  V30 19 C 0.325544 3.207229 -2.083699 0
M  V30 20 C 0.803540 2.278413 -1.179268 0
M  V30 21 C 1.211165 0.253732 1.209157 0
M  V30 22 C -0.596634 -3.245585 3.113989 0
M  V30 23 C -1.214647 -3.984030 2.025841 0
M  V30 24 C -1.851796 -5.192121 2.362919 0
M  V30 25 N -2.347662 -5.815960 1.281653 0
M  V30 26 C -2.077141 -5.081175 0.204049 0
M  V30 27 C -2.301335 -5.133117 -1.156502 0
M  V30 28 C -1.890094 -4.165309 -2.052269 0
M  V30 29 C -1.202870 -3.070881 -1.516357 0
M  V30 30 C -0.953031 -2.971569 -0.165760 0
M  V30 31 C -1.393400 -3.977281 0.664929 0
M  V30 32 H 1.505002 -3.295553 5.339673 0
M  V30 33 H 0.630888 -1.934024 4.695850 0
M  V30 34 H 1.021679 -4.619121 3.594067 0
M  V30 35 H 2.776578 -3.391441 2.378612 0
M  V30 36 H 1.327516 -3.709428 1.336478 0
M  V30 37 H 2.508095 -0.396149 4.156851 0
M  V30 38 H 1.735221 3.325457 2.582514 0
M  V30 39 H 0.053235 4.050636 1.631410 0
M  V30 40 H -0.766311 5.634166 -0.015916 0
M  V30 41 H 0.028091 3.582927 -5.395663 0
M  V30 42 H 0.864529 1.963300 -3.764764 0
M  V30 43 H 1.246752 1.337120 -1.408836 0
M  V30 44 H 0.796285 -0.046508 0.228319 0
M  V30 45 H -0.719618 -2.124115 2.956622 0
M  V30 46 H -1.141825 -3.396752 4.095629 0
M  V30 47 H -2.009544 -5.698465 3.323545 0
M  V30 48 H -2.866032 -6.708159 1.173059 0
M  V30 49 H -2.847665 -6.026980 -1.493197 0
M  V30 50 H -2.131973 -4.331176 -3.085783 0
M  V30 51 H -0.884967 -2.317789 -2.218295 0
M  V30 52 H -0.434516 -2.109686 0.186425 0
M  V30 END ATOM
M  V30 BEGIN BOND
M  V30 1 1 1 2
M  V30 2 1 2 3
M  V30 3 1 3 4
M  V30 4 1 4 5
M  V30 5 2 5 6
M  V30 6 1 6 7
M  V30 7 2 7 8
M  V30 8 1 8 9
M  V30 9 1 9 10
M  V30 10 2 10 11
M  V30 11 1 11 12
M  V30 12 2 12 13
M  V30 13 1 13 14
M  V30 14 1 14 15
M  V30 15 2 14 16
M  V30 16 1 16 17
M  V30 17 2 17 18
M  V30 18 1 18 19
M  V30 19 2 19 20
M  V30 20 2 9 21
M  V30 21 1 2 22
M  V30 22 1 22 23
M  V30 23 2 23 24
M  V30 24 1 24 25
M  V30 25 1 25 26
M  V30 26 2 26 27
M  V30 27 1 27 28
M  V30 28 2 28 29
M  V30 29 1 29 30
M  V30 30 2 30 31
M  V30 31 1 21 5
M  V30 32 1 31 23
M  V30 33 1 20 10
M  V30 34 1 31 26
M  V30 35 1 19 13
M  V30 36 1 1 32
M  V30 37 1 1 33
M  V30 38 1 2 34 CFG=1
M  V30 39 1 3 35
M  V30 40 1 3 36
M  V30 41 1 6 37
M  V30 42 1 8 38
M  V30 43 1 11 39
M  V30 44 1 12 40
M  V30 45 1 17 41
M  V30 46 1 18 42
M  V30 47 1 20 43
M  V30 48 1 21 44
M  V30 49 1 22 45
M  V30 50 1 22 46
M  V30 51 1 24 47
M  V30 52 1 25 48
M  V30 53 1 27 49
M  V30 54 1 28 50
M  V30 55 1 29 51
M  V30 56 1 30 52
M  V30 END BOND
M  V30 END CTAB
M  END
>  <Dataset>  (189) 
ChEMBL_Kinases

>  <Ligand_Instance>  (189) 
nan

>  <PDB_ID>  (189) 
nan

>  <Standardized_SMILES>  (189) 
N[C@H](COc1cncc(-c2ccc3c(Cl)nccc3c2)c1)Cc1c[nH]c2ccccc12

>  <Name>  (189) 
nan

>  <Pocket>  (189) 
nan

>  <ATP_Site>  (189) 
nan

>  <Peripheral>  (189) 
nan

>  <Num_H_Atoms_ProtBoundConf>  (189) 
nan

>  <Num_Resolved_Atoms>  (189) 
nan

>  <Num_Not_Resolved_Atoms>  (189) 
nan

$$$$
CHEMBL208033
     RDKit          3D

  0  0  0  0  0  0  0  0  0  0999 V3000
M  V30 BEGIN CTAB
M  V30 COUNTS 47 50 0 0 0
M  V30 BEGIN ATOM
M  V30 1 C 0.327460 -4.980993 2.138178 0
M  V30 2 N 0.590001 -3.745341 1.472749 0
M  V30 3 C 0.959653 -3.807223 0.118262 0
M  V30 4 C 2.146575 -3.033511 -0.307518 0
M  V30 5 C 3.118839 -2.667605 0.749787 0
M  V30 6 C 2.648557 -2.770884 2.156524 0
M  V30 7 C 1.153802 -2.718673 2.273987 0
M  V30 8 C 0.644217 -1.401829 1.772693 0
M  V30 9 C 1.234857 -0.180181 1.513772 0
M  V30 10 C 0.259538 0.695528 1.056099 0
M  V30 11 C 0.636045 2.046640 0.714555 0
M  V30 12 C 0.124699 3.171785 1.364337 0
M  V30 13 C 0.510704 4.464809 1.010252 0
M  V30 14 N 1.412237 4.611954 0.000475 0
M  V30 15 C 1.928157 3.553612 -0.650342 0
M  V30 16 C 1.545937 2.278036 -0.299411 0
M  V30 17 C -0.914730 -0.005952 1.042310 0
M  V30 18 C -2.125664 0.671055 0.601004 0
M  V30 19 C -2.240122 1.155339 -0.663073 0
M  V30 20 C -3.398243 1.799429 -1.074726 0
M  V30 21 C -4.460768 1.957284 -0.193158 0
M  V30 22 F -5.627408 2.587889 -0.550313 0
M  V30 23 C -4.384308 1.473873 1.115679 0
M  V30 24 C -3.195818 0.835723 1.472106 0
M  V30 25 N -0.660073 -1.269714 1.478456 0
M  V30 26 H -0.735321 -5.254299 1.877038 0
M  V30 27 H 0.952752 -5.829739 1.851128 0
M  V30 28 H 0.320133 -4.794169 3.227480 0
M  V30 29 H 0.064345 -3.572322 -0.515499 0
M  V30 30 H 1.170675 -4.887821 -0.131963 0
M  V30 31 H 1.774323 -2.069107 -0.761934 0
M  V30 32 H 2.655367 -3.540971 -1.178795 0
M  V30 33 H 3.621814 -1.680267 0.539795 0
M  V30 34 H 3.979191 -3.394640 0.656186 0
M  V30 35 H 3.037469 -1.870429 2.710340 0
M  V30 36 H 3.047877 -3.636082 2.716292 0
M  V30 37 H 0.857085 -2.883845 3.328532 0
M  V30 38 H 2.287495 -0.041912 1.676550 0
M  V30 39 H -0.596743 3.016886 2.169743 0
M  V30 40 H 0.098867 5.333685 1.530956 0
M  V30 41 H 2.652328 3.654080 -1.461930 0
M  V30 42 H 1.965125 1.425874 -0.827568 0
M  V30 43 H -1.445677 1.049813 -1.358210 0
M  V30 44 H -3.557514 2.212080 -2.073619 0
M  V30 45 H -5.194486 1.576915 1.836336 0
M  V30 46 H -3.110962 0.453018 2.477429 0
M  V30 47 H -1.488202 -1.932068 1.520625 0
M  V30 END ATOM
M  V30 BEGIN BOND
M  V30 1 1 1 2
M  V30 2 1 2 3
M  V30 3 1 3 4
M  V30 4 1 4 5
M  V30 5 1 5 6
M  V30 6 1 6 7
M  V30 7 1 7 8
M  V30 8 2 8 9
M  V30 9 1 9 10
M  V30 10 1 10 11
M  V30 11 2 11 12
M  V30 12 1 12 13
M  V30 13 2 13 14
M  V30 14 1 14 15
M  V30 15 2 15 16
M  V30 16 2 10 17
M  V30 17 1 17 18
M  V30 18 2 18 19
M  V30 19 1 19 20
M  V30 20 2 20 21
M  V30 21 1 21 22
M  V30 22 1 21 23
M  V30 23 2 23 24
M  V30 24 1 17 25
M  V30 25 1 7 2
M  V30 26 1 25 8
M  V30 27 1 16 11
M  V30 28 1 24 18
M  V30 29 1 1 26
M  V30 30 1 1 27
M  V30 31 1 1 28
M  V30 32 1 3 29
M  V30 33 1 3 30
M  V30 34 1 4 31
M  V30 35 1 4 32
M  V30 36 1 5 33
M  V30 37 1 5 34
M  V30 38 1 6 35
M  V30 39 1 6 36
M  V30 40 1 7 37
M  V30 41 1 9 38
M  V30 42 1 12 39
M  V30 43 1 13 40
M  V30 44 1 15 41
M  V30 45 1 16 42
M  V30 46 1 19 43
M  V30 47 1 20 44
M  V30 48 1 23 45
M  V30 49 1 24 46
M  V30 50 1 25 47
M  V30 END BOND
M  V30 END CTAB
M  END
>  <Dataset>  (190) 
ChEMBL_Kinases

>  <Ligand_Instance>  (190) 
nan

>  <PDB_ID>  (190) 
nan

>  <Standardized_SMILES>  (190) 
CN1CCCCC1c1cc(-c2ccncc2)c(-c2ccc(F)cc2)[nH]1

>  <Name>  (190) 
nan

>  <Pocket>  (190) 
nan

>  <ATP_Site>  (190) 
nan

>  <Peripheral>  (190) 
nan

>  <Num_H_Atoms_ProtBoundConf>  (190) 
nan

>  <Num_Resolved_Atoms>  (190) 
nan

>  <Num_Not_Resolved_Atoms>  (190) 
nan

$$$$
CHEMBL208095
     RDKit          3D

  0  0  0  0  0  0  0  0  0  0999 V3000
M  V30 BEGIN CTAB
M  V30 COUNTS 34 36 0 0 0
M  V30 BEGIN ATOM
M  V30 1 C -0.569946 -3.773582 2.998156 0
M  V30 2 C -0.244553 -2.385066 2.524694 0
M  V30 3 O -0.335829 -2.274549 1.097049 0
M  V30 4 N -0.066902 -1.062945 0.504659 0
M  V30 5 C 1.231035 -0.870408 0.205291 0
M  V30 6 C 2.219141 -1.779480 0.455228 0
M  V30 7 C 3.553451 -1.596547 0.154267 0
M  V30 8 C 3.909792 -0.394589 -0.448059 0
M  V30 9 Cl 5.625851 -0.187562 -0.822346 0
M  V30 10 C 2.952093 0.557351 -0.722373 0
M  V30 11 C 1.636153 0.314052 -0.397089 0
M  V30 12 C 0.717189 1.315911 -0.700324 0
M  V30 13 O 1.054580 2.393061 -1.243056 0
M  V30 14 C -0.591426 1.083311 -0.381075 0
M  V30 15 C -1.773831 1.785686 -0.505668 0
M  V30 16 C -1.831120 3.158340 -1.117622 0
M  V30 17 N -2.778132 1.039063 -0.003503 0
M  V30 18 N -2.288866 -0.118223 0.440338 0
M  V30 19 C -3.101061 -1.156466 1.043103 0
M  V30 20 C -0.963286 -0.100780 0.215700 0
M  V30 21 H 0.345525 -4.362213 3.213831 0
M  V30 22 H -1.174428 -4.253792 2.204314 0
M  V30 23 H -1.166135 -3.769483 3.929212 0
M  V30 24 H 0.761847 -2.124071 2.904997 0
M  V30 25 H -0.964817 -1.698498 3.018361 0
M  V30 26 H 1.973858 -2.719682 0.920916 0
M  V30 27 H 4.287589 -2.363945 0.381604 0
M  V30 28 H 3.278558 1.461671 -1.185087 0
M  V30 29 H -1.046294 3.816960 -0.657453 0
M  V30 30 H -2.799584 3.644306 -0.838031 0
M  V30 31 H -1.700135 3.126140 -2.202402 0
M  V30 32 H -4.048593 -1.185494 0.429206 0
M  V30 33 H -2.686954 -2.160162 0.977216 0
M  V30 34 H -3.416377 -0.901799 2.064189 0
M  V30 END ATOM
M  V30 BEGIN BOND
M  V30 1 1 1 2
M  V30 2 1 2 3
M  V30 3 1 3 4
M  V30 4 1 4 5
M  V30 5 2 5 6
M  V30 6 1 6 7
M  V30 7 2 7 8
M  V30 8 1 8 9
M  V30 9 1 8 10
M  V30 10 2 10 11
M  V30 11 1 11 12
M  V30 12 2 12 13
M  V30 13 1 12 14
M  V30 14 1 14 15
M  V30 15 1 15 16
M  V30 16 2 15 17
M  V30 17 1 17 18
M  V30 18 1 18 19
M  V30 19 1 18 20
M  V30 20 1 20 4
M  V30 21 1 11 5
M  V30 22 2 20 14
M  V30 23 1 1 21
M  V30 24 1 1 22
M  V30 25 1 1 23
M  V30 26 1 2 24
M  V30 27 1 2 25
M  V30 28 1 6 26
M  V30 29 1 7 27
M  V30 30 1 10 28
M  V30 31 1 16 29
M  V30 32 1 16 30
M  V30 33 1 16 31
M  V30 34 1 19 32
M  V30 35 1 19 33
M  V30 36 1 19 34
M  V30 END BOND
M  V30 END CTAB
M  END
>  <Dataset>  (191) 
ChEMBL_Kinases

>  <Ligand_Instance>  (191) 
nan

>  <PDB_ID>  (191) 
nan

>  <Standardized_SMILES>  (191) 
CCOn1c2ccc(Cl)cc2c(=O)c2c(C)nn(C)c21

>  <Name>  (191) 
nan

>  <Pocket>  (191) 
nan

>  <ATP_Site>  (191) 
nan

>  <Peripheral>  (191) 
nan

>  <Num_H_Atoms_ProtBoundConf>  (191) 
nan

>  <Num_Resolved_Atoms>  (191) 
nan

>  <Num_Not_Resolved_Atoms>  (191) 
nan

$$$$
CHEMBL208161
     RDKit          3D

  0  0  0  0  0  0  0  0  0  0999 V3000
M  V30 BEGIN CTAB
M  V30 COUNTS 44 47 0 0 0
M  V30 BEGIN ATOM
M  V30 1 C 4.935050 -0.087121 2.624481 0
M  V30 2 N 4.284140 -0.868596 3.659635 0
M  V30 3 C 5.177578 -1.056605 4.759478 0
M  V30 4 C 3.082254 -0.121325 4.053108 0
M  V30 5 C 2.191720 0.047103 2.876084 0
M  V30 6 C 2.220507 1.104640 1.987278 0
M  V30 7 C 1.348922 1.172358 0.916995 0
M  V30 8 N 0.452788 0.160301 0.759977 0
M  V30 9 C -0.499684 -0.043863 -0.167854 0
M  V30 10 C -0.837012 0.809642 -1.301045 0
M  V30 11 C -0.755278 0.610369 -2.664279 0
M  V30 12 C -1.162440 1.628884 -3.499309 0
M  V30 13 N -1.626732 2.786444 -3.021875 0
M  V30 14 C -1.708317 2.985958 -1.677504 0
M  V30 15 N -1.313199 1.996786 -0.826421 0
M  V30 16 C -1.164757 -1.222716 0.087721 0
M  V30 17 C -2.255614 -1.935169 -0.561992 0
M  V30 18 C -2.325009 -2.530796 -1.802952 0
M  V30 19 C -3.479044 -3.156527 -2.223120 0
M  V30 20 C -4.590175 -3.196416 -1.401845 0
M  V30 21 F -5.628365 -3.848945 -1.975779 0
M  V30 22 C -4.544953 -2.606975 -0.154422 0
M  V30 23 C -3.381611 -1.979486 0.261919 0
M  V30 24 N -0.571098 -1.710572 1.202513 0
M  V30 25 C 0.408493 -0.880036 1.615749 0
M  V30 26 C 1.277015 -0.977615 2.708484 0
M  V30 27 H 4.345802 -0.106046 1.698891 0
M  V30 28 H 5.976027 -0.429293 2.451145 0
M  V30 29 H 5.016302 0.955895 3.001401 0
M  V30 30 H 4.838888 -0.392278 5.597022 0
M  V30 31 H 5.261304 -2.116509 5.103088 0
M  V30 32 H 6.205044 -0.711221 4.470037 0
M  V30 33 H 2.553154 -0.619440 4.888371 0
M  V30 34 H 3.361281 0.897272 4.395073 0
M  V30 35 H 2.958525 1.872373 2.173895 0
M  V30 36 H 1.376578 2.002056 0.225762 0
M  V30 37 H -0.366373 -0.353793 -2.887683 0
M  V30 38 H -1.067150 1.393182 -4.560783 0
M  V30 39 H -2.090322 3.940409 -1.355970 0
M  V30 40 H -1.399989 -2.437583 -2.351936 0
M  V30 41 H -3.350075 -3.566734 -3.223344 0
M  V30 42 H -5.457641 -2.685619 0.420740 0
M  V30 43 H -3.483593 -1.563193 1.252399 0
M  V30 44 H 1.184946 -1.830018 3.344451 0
M  V30 END ATOM
M  V30 BEGIN BOND
M  V30 1 1 1 2
M  V30 2 1 2 3
M  V30 3 1 2 4
M  V30 4 1 4 5
M  V30 5 1 5 6
M  V30 6 2 6 7
M  V30 7 1 7 8
M  V30 8 1 8 9
M  V30 9 1 9 10
M  V30 10 2 10 11
M  V30 11 1 11 12
M  V30 12 2 12 13
M  V30 13 1 13 14
M  V30 14 2 14 15
M  V30 15 2 9 16
M  V30 16 1 16 17
M  V30 17 2 17 18
M  V30 18 1 18 19
M  V30 19 2 19 20
M  V30 20 1 20 21
M  V30 21 1 20 22
M  V30 22 2 22 23
M  V30 23 1 16 24
M  V30 24 2 24 25
M  V30 25 1 25 26
M  V30 26 2 26 5
M  V30 27 1 25 8
M  V30 28 1 15 10
M  V30 29 1 23 17
M  V30 30 1 1 27
M  V30 31 1 1 28
M  V30 32 1 1 29
M  V30 33 1 3 30
M  V30 34 1 3 31
M  V30 35 1 3 32
M  V30 36 1 4 33
M  V30 37 1 4 34
M  V30 38 1 6 35
M  V30 39 1 7 36
M  V30 40 1 11 37
M  V30 41 1 12 38
M  V30 42 1 14 39
M  V30 43 1 18 40
M  V30 44 1 19 41
M  V30 45 1 22 42
M  V30 46 1 23 43
M  V30 47 1 26 44
M  V30 END BOND
M  V30 END CTAB
M  END
>  <Dataset>  (192) 
ChEMBL_Kinases

>  <Ligand_Instance>  (192) 
nan

>  <PDB_ID>  (192) 
nan

>  <Standardized_SMILES>  (192) 
CN(C)Cc1ccn2c(-c3ccncn3)c(-c3ccc(F)cc3)nc2c1

>  <Name>  (192) 
nan

>  <Pocket>  (192) 
nan

>  <ATP_Site>  (192) 
nan

>  <Peripheral>  (192) 
nan

>  <Num_H_Atoms_ProtBoundConf>  (192) 
nan

>  <Num_Resolved_Atoms>  (192) 
nan

>  <Num_Not_Resolved_Atoms>  (192) 
nan

$$$$
CHEMBL208174
     RDKit          3D

  0  0  0  0  0  0  0  0  0  0999 V3000
M  V30 BEGIN CTAB
M  V30 COUNTS 34 36 0 0 0
M  V30 BEGIN ATOM
M  V30 1 C -0.090262 -1.622183 4.073879 0
M  V30 2 C 1.088503 -1.588769 3.110324 0
M  V30 3 C 1.946884 -2.810550 3.434765 0
M  V30 4 C 0.603457 -1.724468 1.694750 0
M  V30 5 N 0.418598 -2.854145 0.970013 0
M  V30 6 N -0.018787 -2.552725 -0.233560 0
M  V30 7 C -0.345453 -3.457589 -1.326698 0
M  V30 8 C -0.151280 -1.212270 -0.383448 0
M  V30 9 C 0.240828 -0.687182 0.832221 0
M  V30 10 C 0.232974 0.682900 1.045149 0
M  V30 11 O 0.594046 1.142380 2.160455 0
M  V30 12 C -0.182381 1.475025 -0.010844 0
M  V30 13 C -0.195939 2.847061 0.186054 0
M  V30 14 C -0.610953 3.676060 -0.862641 0
M  V30 15 Cl -0.634903 5.413519 -0.632783 0
M  V30 16 C -0.988163 3.078725 -2.047967 0
M  V30 17 C -0.981055 1.710603 -2.262697 0
M  V30 18 C -0.567842 0.915115 -1.213413 0
M  V30 19 N -0.556261 -0.416706 -1.409078 0
M  V30 20 O -0.939079 -0.981963 -2.604958 0
M  V30 21 H -0.136093 -0.690119 4.689267 0
M  V30 22 H -0.037852 -2.464983 4.792898 0
M  V30 23 H -1.010862 -1.779329 3.478817 0
M  V30 24 H 1.661346 -0.651224 3.213792 0
M  V30 25 H 1.978162 -2.980260 4.530833 0
M  V30 26 H 1.395566 -3.693057 3.024271 0
M  V30 27 H 2.975843 -2.711505 3.047390 0
M  V30 28 H -0.259220 -4.513364 -1.047290 0
M  V30 29 H 0.335905 -3.279842 -2.200341 0
M  V30 30 H -1.370492 -3.218641 -1.718705 0
M  V30 31 H 0.103980 3.307679 1.126058 0
M  V30 32 H -1.303061 3.783765 -2.830608 0
M  V30 33 H -1.300735 1.339349 -3.244051 0
M  V30 34 H -1.897026 -1.024788 -2.923609 0
M  V30 END ATOM
M  V30 BEGIN BOND
M  V30 1 1 1 2
M  V30 2 1 2 3
M  V30 3 1 2 4
M  V30 4 2 4 5
M  V30 5 1 5 6
M  V30 6 1 6 7
M  V30 7 1 6 8
M  V30 8 2 8 9
M  V30 9 1 9 10
M  V30 10 2 10 11
M  V30 11 1 10 12
M  V30 12 2 12 13
M  V30 13 1 13 14
M  V30 14 1 14 15
M  V30 15 2 14 16
M  V30 16 1 16 17
M  V30 17 2 17 18
M  V30 18 1 18 19
M  V30 19 1 19 20
M  V30 20 1 9 4
M  V30 21 1 18 12
M  V30 22 1 19 8
M  V30 23 1 1 21
M  V30 24 1 1 22
M  V30 25 1 1 23
M  V30 26 1 2 24
M  V30 27 1 3 25
M  V30 28 1 3 26
M  V30 29 1 3 27
M  V30 30 1 7 28
M  V30 31 1 7 29
M  V30 32 1 7 30
M  V30 33 1 13 31
M  V30 34 1 16 32
M  V30 35 1 17 33
M  V30 36 1 20 34
M  V30 END BOND
M  V30 END CTAB
M  END
>  <Dataset>  (193) 
ChEMBL_Kinases

>  <Ligand_Instance>  (193) 
nan

>  <PDB_ID>  (193) 
nan

>  <Standardized_SMILES>  (193) 
CC(C)c1nn(C)c2c1c(=O)c1cc(Cl)ccc1n2O

>  <Name>  (193) 
nan

>  <Pocket>  (193) 
nan

>  <ATP_Site>  (193) 
nan

>  <Peripheral>  (193) 
nan

>  <Num_H_Atoms_ProtBoundConf>  (193) 
nan

>  <Num_Resolved_Atoms>  (193) 
nan

>  <Num_Not_Resolved_Atoms>  (193) 
nan

$$$$
CHEMBL208187
     RDKit          3D

  0  0  0  0  0  0  0  0  0  0999 V3000
M  V30 BEGIN CTAB
M  V30 COUNTS 42 44 0 0 0
M  V30 BEGIN ATOM
M  V30 1 C 0.135309 -6.052424 -0.396489 0
M  V30 2 N 0.762023 -5.363706 0.727489 0
M  V30 3 C 1.372002 -6.119984 1.811530 0
M  V30 4 C 0.775948 -3.962660 0.760875 0
M  V30 5 O 1.241587 -3.154184 1.603250 0
M  V30 6 C 0.165549 -3.168932 -0.332345 0
M  V30 7 C 0.303487 -1.713053 -0.067719 0
M  V30 8 C 1.338887 -0.864422 -0.417809 0
M  V30 9 C 1.044987 0.409882 0.028160 0
M  V30 10 C 1.846748 1.618146 -0.116092 0
M  V30 11 C 1.615599 2.773303 -0.817361 0
M  V30 12 C 2.518828 3.807329 -0.812245 0
M  V30 13 N 3.664671 3.682404 -0.097965 0
M  V30 14 C 3.931861 2.565657 0.604398 0
M  V30 15 C 3.032591 1.494998 0.620116 0
M  V30 16 C -0.181128 0.320180 0.652129 0
M  V30 17 C -0.993780 1.339712 1.307574 0
M  V30 18 C -1.601648 2.399998 0.671968 0
M  V30 19 C -2.364968 3.359257 1.299377 0
M  V30 20 C -2.518228 3.228473 2.662957 0
M  V30 21 F -3.278255 4.186788 3.275785 0
M  V30 22 C -1.944313 2.195750 3.384472 0
M  V30 23 C -1.181435 1.256331 2.683725 0
M  V30 24 N -0.631160 -0.970123 0.593694 0
M  V30 25 H -0.965038 -6.125128 -0.172088 0
M  V30 26 H 0.198343 -5.470723 -1.338067 0
M  V30 27 H 0.528871 -7.077592 -0.510492 0
M  V30 28 H 2.461079 -5.910022 1.880154 0
M  V30 29 H 1.229487 -7.218187 1.671526 0
M  V30 30 H 0.912669 -5.830090 2.777849 0
M  V30 31 H -0.929317 -3.432853 -0.325695 0
M  V30 32 H 0.612416 -3.464766 -1.300859 0
M  V30 33 H 2.233368 -1.165005 -0.956694 0
M  V30 34 H 0.691205 2.759208 -1.339033 0
M  V30 35 H 2.199330 4.643776 -1.406190 0
M  V30 36 H 4.884573 2.654308 1.102944 0
M  V30 37 H 3.408235 0.690544 1.229790 0
M  V30 38 H -1.478430 2.492076 -0.397167 0
M  V30 39 H -2.819791 4.173808 0.747860 0
M  V30 40 H -2.083927 2.118537 4.466060 0
M  V30 41 H -0.751470 0.462649 3.300150 0
M  V30 42 H -1.521870 -1.361808 0.972192 0
M  V30 END ATOM
M  V30 BEGIN BOND
M  V30 1 1 1 2
M  V30 2 1 2 3
M  V30 3 1 2 4
M  V30 4 2 4 5
M  V30 5 1 4 6
M  V30 6 1 6 7
M  V30 7 2 7 8
M  V30 8 1 8 9
M  V30 9 1 9 10
M  V30 10 2 10 11
M  V30 11 1 11 12
M  V30 12 2 12 13
M  V30 13 1 13 14
M  V30 14 2 14 15
M  V30 15 2 9 16
M  V30 16 1 16 17
M  V30 17 2 17 18
M  V30 18 1 18 19
M  V30 19 2 19 20
M  V30 20 1 20 21
M  V30 21 1 20 22
M  V30 22 2 22 23
M  V30 23 1 16 24
M  V30 24 1 24 7
M  V30 25 1 15 10
M  V30 26 1 23 17
M  V30 27 1 1 25
M  V30 28 1 1 26
M  V30 29 1 1 27
M  V30 30 1 3 28
M  V30 31 1 3 29
M  V30 32 1 3 30
M  V30 33 1 6 31
M  V30 34 1 6 32
M  V30 35 1 8 33
M  V30 36 1 11 34
M  V30 37 1 12 35
M  V30 38 1 14 36
M  V30 39 1 15 37
M  V30 40 1 18 38
M  V30 41 1 19 39
M  V30 42 1 22 40
M  V30 43 1 23 41
M  V30 44 1 24 42
M  V30 END BOND
M  V30 END CTAB
M  END
>  <Dataset>  (194) 
ChEMBL_Kinases

>  <Ligand_Instance>  (194) 
nan

>  <PDB_ID>  (194) 
nan

>  <Standardized_SMILES>  (194) 
CN(C)C(=O)Cc1cc(-c2ccncc2)c(-c2ccc(F)cc2)[nH]1

>  <Name>  (194) 
nan

>  <Pocket>  (194) 
nan

>  <ATP_Site>  (194) 
nan

>  <Peripheral>  (194) 
nan

>  <Num_H_Atoms_ProtBoundConf>  (194) 
nan

>  <Num_Resolved_Atoms>  (194) 
nan

>  <Num_Not_Resolved_Atoms>  (194) 
nan

$$$$
CHEMBL208199
     RDKit          3D

  0  0  0  0  0  0  0  0  0  0999 V3000
M  V30 BEGIN CTAB
M  V30 COUNTS 46 49 0 0 0
M  V30 BEGIN ATOM
M  V30 1 N 1.487101 -3.785947 2.888819 0
M  V30 2 C 0.522504 -3.711381 1.771085 0 CFG=2
M  V30 3 C 1.056513 -2.664633 0.872472 0
M  V30 4 O 1.233023 -1.395634 1.442980 0
M  V30 5 C 1.738664 -0.334897 0.664740 0
M  V30 6 C 2.033334 -0.629618 -0.649559 0
M  V30 7 N 2.517744 0.356615 -1.421741 0
M  V30 8 C 2.724092 1.605625 -0.968908 0
M  V30 9 C 2.421840 1.893385 0.365923 0
M  V30 10 C 2.662000 3.261781 0.821907 0
M  V30 11 C 2.489995 4.249811 -0.138638 0
M  V30 12 C 2.705372 5.561456 0.232033 0
M  V30 13 N 3.074387 5.907047 1.487194 0
M  V30 14 C 3.241306 4.950784 2.419660 0
M  V30 15 C 3.037678 3.609907 2.102223 0
M  V30 16 C 1.924108 0.921480 1.198328 0
M  V30 17 C -0.823235 -3.562026 2.337677 0
M  V30 18 C -1.956057 -3.484611 1.426156 0
M  V30 19 C -2.769163 -4.591021 1.129568 0
M  V30 20 N -3.724405 -4.295981 0.255878 0
M  V30 21 C -3.623318 -3.009852 -0.084523 0
M  V30 22 C -4.307550 -2.133484 -0.922949 0
M  V30 23 C -3.926720 -0.811607 -1.040796 0
M  V30 24 C -2.842743 -0.325421 -0.317939 0
M  V30 25 C -2.181405 -1.208447 0.503727 0
M  V30 26 C -2.548198 -2.529516 0.631708 0
M  V30 27 H 2.462127 -3.729532 2.527782 0
M  V30 28 H 1.275317 -2.998300 3.572054 0
M  V30 29 H 0.635637 -4.707980 1.275453 0
M  V30 30 H 2.061101 -3.001572 0.538202 0
M  V30 31 H 0.474264 -2.515769 -0.058866 0
M  V30 32 H 1.920253 -1.581111 -1.147792 0
M  V30 33 H 3.115294 2.336933 -1.654603 0
M  V30 34 H 2.197770 4.127271 -1.182261 0
M  V30 35 H 2.590018 6.384678 -0.465310 0
M  V30 36 H 3.537777 5.203960 3.437936 0
M  V30 37 H 3.158488 2.804832 2.810957 0
M  V30 38 H 1.687813 1.134650 2.232999 0
M  V30 39 H -0.824803 -2.683706 3.053098 0
M  V30 40 H -0.984052 -4.433028 3.033508 0
M  V30 41 H -2.665984 -5.593691 1.543477 0
M  V30 42 H -4.454464 -4.924510 -0.131740 0
M  V30 43 H -5.153567 -2.508716 -1.487582 0
M  V30 44 H -4.448062 -0.119013 -1.687559 0
M  V30 45 H -2.512284 0.719086 -0.386821 0
M  V30 46 H -1.351215 -0.804765 1.057943 0
M  V30 END ATOM
M  V30 BEGIN BOND
M  V30 1 1 1 2
M  V30 2 1 2 3
M  V30 3 1 3 4
M  V30 4 1 4 5
M  V30 5 2 5 6
M  V30 6 1 6 7
M  V30 7 2 7 8
M  V30 8 1 8 9
M  V30 9 1 9 10
M  V30 10 2 10 11
M  V30 11 1 11 12
M  V30 12 2 12 13
M  V30 13 1 13 14
M  V30 14 2 14 15
M  V30 15 2 9 16
M  V30 16 1 2 17
M  V30 17 1 17 18
M  V30 18 2 18 19
M  V30 19 1 19 20
M  V30 20 1 20 21
M  V30 21 2 21 22
M  V30 22 1 22 23
M  V30 23 2 23 24
M  V30 24 1 24 25
M  V30 25 2 25 26
M  V30 26 1 16 5
M  V30 27 1 26 18
M  V30 28 1 15 10
M  V30 29 1 26 21
M  V30 30 1 1 27
M  V30 31 1 1 28
M  V30 32 1 2 29 CFG=3
M  V30 33 1 3 30
M  V30 34 1 3 31
M  V30 35 1 6 32
M  V30 36 1 8 33
M  V30 37 1 11 34
M  V30 38 1 12 35
M  V30 39 1 14 36
M  V30 40 1 15 37
M  V30 41 1 16 38
M  V30 42 1 17 39
M  V30 43 1 17 40
M  V30 44 1 19 41
M  V30 45 1 20 42
M  V30 46 1 22 43
M  V30 47 1 23 44
M  V30 48 1 24 45
M  V30 49 1 25 46
M  V30 END BOND
M  V30 END CTAB
M  END
>  <Dataset>  (195) 
ChEMBL_Kinases

>  <Ligand_Instance>  (195) 
nan

>  <PDB_ID>  (195) 
nan

>  <Standardized_SMILES>  (195) 
N[C@H](COc1cncc(-c2ccncc2)c1)Cc1c[nH]c2ccccc12

>  <Name>  (195) 
nan

>  <Pocket>  (195) 
nan

>  <ATP_Site>  (195) 
nan

>  <Peripheral>  (195) 
nan

>  <Num_H_Atoms_ProtBoundConf>  (195) 
nan

>  <Num_Resolved_Atoms>  (195) 
nan

>  <Num_Not_Resolved_Atoms>  (195) 
nan

$$$$
CHEMBL208331
     RDKit          3D

  0  0  0  0  0  0  0  0  0  0999 V3000
M  V30 BEGIN CTAB
M  V30 COUNTS 23 24 0 0 0
M  V30 BEGIN ATOM
M  V30 1 N 0.466617 -1.792130 4.197907 0
M  V30 2 C 0.573177 -0.396297 4.025076 0
M  V30 3 O 0.711005 0.350967 5.021133 0
M  V30 4 C 0.524920 0.194606 2.693736 0
M  V30 5 N 0.383624 -0.435180 1.513477 0
M  V30 6 C 0.387740 0.484929 0.509164 0
M  V30 7 C 0.249073 0.069651 -0.882650 0
M  V30 8 C 0.106038 -1.237900 -1.306698 0
M  V30 9 C -0.013769 -1.462379 -2.662829 0
M  V30 10 C 0.001361 -0.456802 -3.614899 0
M  V30 11 N 0.143335 0.795846 -3.142010 0
M  V30 12 C 0.264383 1.073176 -1.829935 0
M  V30 13 O 0.531966 1.683004 1.074344 0
M  V30 14 C 0.615876 1.533671 2.378022 0
M  V30 15 N 0.775460 2.550074 3.359471 0
M  V30 16 H 0.871485 -2.726465 3.972266 0
M  V30 17 H -0.118979 -2.516739 4.667696 0
M  V30 18 H 0.097557 -1.992688 -0.553329 0
M  V30 19 H -0.125062 -2.516603 -2.950478 0
M  V30 20 H -0.099874 -0.760657 -4.629462 0
M  V30 21 H 0.367812 2.126404 -1.647174 0
M  V30 22 H 1.667667 3.059929 3.303727 0
M  V30 23 H 0.133234 2.848424 4.112558 0
M  V30 END ATOM
M  V30 BEGIN BOND
M  V30 1 1 1 2
M  V30 2 2 2 3
M  V30 3 1 2 4
M  V30 4 1 4 5
M  V30 5 2 5 6
M  V30 6 1 6 7
M  V30 7 2 7 8
M  V30 8 1 8 9
M  V30 9 2 9 10
M  V30 10 1 10 11
M  V30 11 2 11 12
M  V30 12 1 6 13
M  V30 13 1 13 14
M  V30 14 1 14 15
M  V30 15 2 14 4
M  V30 16 1 12 7
M  V30 17 1 1 16
M  V30 18 1 1 17
M  V30 19 1 8 18
M  V30 20 1 9 19
M  V30 21 1 10 20
M  V30 22 1 12 21
M  V30 23 1 15 22
M  V30 24 1 15 23
M  V30 END BOND
M  V30 END CTAB
M  END
>  <Dataset>  (196) 
ChEMBL_Kinases

>  <Ligand_Instance>  (196) 
nan

>  <PDB_ID>  (196) 
nan

>  <Standardized_SMILES>  (196) 
NC(=O)c1nc(-c2cccnc2)oc1N

>  <Name>  (196) 
nan

>  <Pocket>  (196) 
nan

>  <ATP_Site>  (196) 
nan

>  <Peripheral>  (196) 
nan

>  <Num_H_Atoms_ProtBoundConf>  (196) 
nan

>  <Num_Resolved_Atoms>  (196) 
nan

>  <Num_Not_Resolved_Atoms>  (196) 
nan

$$$$
CHEMBL208463
     RDKit          3D

  0  0  0  0  0  0  0  0  0  0999 V3000
M  V30 BEGIN CTAB
M  V30 COUNTS 39 42 0 0 0
M  V30 BEGIN ATOM
M  V30 1 O 3.833173 -7.861578 0.104351 0
M  V30 2 C 2.737951 -7.249514 0.039679 0
M  V30 3 O 1.580468 -8.009027 -0.061105 0
M  V30 4 C 2.724015 -5.794306 0.072240 0
M  V30 5 C 3.929536 -5.137774 0.174134 0
M  V30 6 C 4.011943 -3.764546 0.211759 0
M  V30 7 C 2.833738 -3.033272 0.143864 0
M  V30 8 N 2.532986 -1.701391 0.152974 0
M  V30 9 C 1.198170 -1.547982 0.060475 0
M  V30 10 C 0.475188 -0.276420 0.037823 0
M  V30 11 C 1.194749 0.900353 0.116790 0
M  V30 12 C 0.531632 2.115102 0.097142 0
M  V30 13 C -0.846023 2.129115 -0.001664 0
M  V30 14 O -1.706416 3.219664 -0.038376 0
M  V30 15 C -2.257769 3.784456 1.114427 0
M  V30 16 C -3.122263 4.882922 1.053824 0
M  V30 17 C -3.661688 5.433409 2.200011 0
M  V30 18 C -3.349264 4.898274 3.434189 0
M  V30 19 Cl -4.071030 5.646570 4.865000 0
M  V30 20 C -2.497170 3.815185 3.497229 0
M  V30 21 C -1.947951 3.250449 2.367555 0
M  V30 22 C -1.567326 0.934592 -0.081168 0
M  V30 23 C -0.903284 -0.291127 -0.061708 0
M  V30 24 N 0.661475 -2.779933 -0.006582 0
M  V30 25 C 1.629179 -3.717295 0.041405 0
M  V30 26 C 1.534140 -5.099361 0.002665 0
M  V30 27 H 1.485130 -8.914621 0.415187 0
M  V30 28 H 4.868123 -5.710629 0.228448 0
M  V30 29 H 4.953728 -3.242028 0.291586 0
M  V30 30 H 3.235576 -0.925410 0.221437 0
M  V30 31 H 2.273389 0.952318 0.195607 0
M  V30 32 H 0.970685 3.105751 0.151625 0
M  V30 33 H -3.330960 5.259665 0.060293 0
M  V30 34 H -4.333793 6.292618 2.107209 0
M  V30 35 H -2.271468 3.417367 4.487305 0
M  V30 36 H -1.288244 2.412825 2.408283 0
M  V30 37 H -2.637177 0.830012 -0.160578 0
M  V30 38 H -1.402981 -1.251163 -0.119848 0
M  V30 39 H 0.586796 -5.614076 -0.077373 0
M  V30 END ATOM
M  V30 BEGIN BOND
M  V30 1 2 1 2
M  V30 2 1 2 3
M  V30 3 1 2 4
M  V30 4 2 4 5
M  V30 5 1 5 6
M  V30 6 2 6 7
M  V30 7 1 7 8
M  V30 8 1 8 9
M  V30 9 1 9 10
M  V30 10 2 10 11
M  V30 11 1 11 12
M  V30 12 2 12 13
M  V30 13 1 13 14
M  V30 14 1 14 15
M  V30 15 2 15 16
M  V30 16 1 16 17
M  V30 17 2 17 18
M  V30 18 1 18 19
M  V30 19 1 18 20
M  V30 20 2 20 21
M  V30 21 1 13 22
M  V30 22 2 22 23
M  V30 23 2 9 24
M  V30 24 1 24 25
M  V30 25 2 25 26
M  V30 26 1 26 4
M  V30 27 1 25 7
M  V30 28 1 23 10
M  V30 29 1 21 15
M  V30 30 1 3 27
M  V30 31 1 5 28
M  V30 32 1 6 29
M  V30 33 1 8 30
M  V30 34 1 11 31
M  V30 35 1 12 32
M  V30 36 1 16 33
M  V30 37 1 17 34
M  V30 38 1 20 35
M  V30 39 1 21 36
M  V30 40 1 22 37
M  V30 41 1 23 38
M  V30 42 1 26 39
M  V30 END BOND
M  V30 END CTAB
M  END
>  <Dataset>  (197) 
ChEMBL_Kinases

>  <Ligand_Instance>  (197) 
nan

>  <PDB_ID>  (197) 
nan

>  <Standardized_SMILES>  (197) 
O=C(O)c1ccc2[nH]c(-c3ccc(Oc4ccc(Cl)cc4)cc3)nc2c1

>  <Name>  (197) 
nan

>  <Pocket>  (197) 
nan

>  <ATP_Site>  (197) 
nan

>  <Peripheral>  (197) 
nan

>  <Num_H_Atoms_ProtBoundConf>  (197) 
nan

>  <Num_Resolved_Atoms>  (197) 
nan

>  <Num_Not_Resolved_Atoms>  (197) 
nan

$$$$
CHEMBL208365
     RDKit          3D

  0  0  0  0  0  0  0  0  0  0999 V3000
M  V30 BEGIN CTAB
M  V30 COUNTS 40 43 0 0 0
M  V30 BEGIN ATOM
M  V30 1 N 1.181296 -6.463113 0.317302 0
M  V30 2 C 2.126571 -5.594294 0.980855 0
M  V30 3 C 1.696306 -4.189440 0.773870 0
M  V30 4 C 2.115251 -3.433663 -0.300991 0
M  V30 5 C 1.726210 -2.126968 -0.509861 0
M  V30 6 N 0.887603 -1.608560 0.420957 0
M  V30 7 C 0.356847 -0.372831 0.464991 0
M  V30 8 C 0.561884 0.707504 -0.487228 0
M  V30 9 C 0.200285 0.620178 -1.809254 0
M  V30 10 C 0.404440 1.657120 -2.696005 0
M  V30 11 N 0.976878 2.813477 -2.286719 0
M  V30 12 C 1.330605 2.893139 -0.984066 0
M  V30 13 N 1.950775 4.026627 -0.345087 0
M  V30 14 N 1.126992 1.881308 -0.136466 0
M  V30 15 C -0.448826 -0.235895 1.576472 0
M  V30 16 C -1.245104 0.877264 2.087563 0
M  V30 17 C -2.309309 1.405338 1.362748 0
M  V30 18 C -3.051165 2.459294 1.863961 0
M  V30 19 C -2.681596 2.949610 3.104429 0
M  V30 20 F -3.391262 3.971574 3.604270 0
M  V30 21 C -1.631612 2.446440 3.845836 0
M  V30 22 C -0.889814 1.380333 3.326652 0
M  V30 23 N -0.382256 -1.428456 2.194340 0
M  V30 24 C 0.424254 -2.263561 1.501112 0
M  V30 25 C 0.841355 -3.572314 1.669587 0
M  V30 26 H 0.246987 -5.990326 0.185402 0
M  V30 27 H 1.060372 -7.380195 0.797948 0
M  V30 28 H 3.132336 -5.820597 0.600850 0
M  V30 29 H 2.134664 -5.873885 2.054554 0
M  V30 30 H 2.786321 -3.873422 -1.030736 0
M  V30 31 H 2.059308 -1.540796 -1.355422 0
M  V30 32 H -0.262334 -0.308669 -2.148961 0
M  V30 33 H 0.117593 1.583660 -3.736701 0
M  V30 34 H 1.457867 4.720759 0.275776 0
M  V30 35 H 2.980412 4.235288 -0.468689 0
M  V30 36 H -2.523002 0.957718 0.404929 0
M  V30 37 H -3.879380 2.867054 1.294643 0
M  V30 38 H -1.372349 2.863581 4.823333 0
M  V30 39 H -0.068174 0.996365 3.921402 0
M  V30 40 H 0.456251 -4.085091 2.548234 0
M  V30 END ATOM
M  V30 BEGIN BOND
M  V30 1 1 1 2
M  V30 2 1 2 3
M  V30 3 1 3 4
M  V30 4 2 4 5
M  V30 5 1 5 6
M  V30 6 1 6 7
M  V30 7 1 7 8
M  V30 8 2 8 9
M  V30 9 1 9 10
M  V30 10 2 10 11
M  V30 11 1 11 12
M  V30 12 1 12 13
M  V30 13 2 12 14
M  V30 14 2 7 15
M  V30 15 1 15 16
M  V30 16 2 16 17
M  V30 17 1 17 18
M  V30 18 2 18 19
M  V30 19 1 19 20
M  V30 20 1 19 21
M  V30 21 2 21 22
M  V30 22 1 15 23
M  V30 23 2 23 24
M  V30 24 1 24 25
M  V30 25 2 25 3
M  V30 26 1 24 6
M  V30 27 1 14 8
M  V30 28 1 22 16
M  V30 29 1 1 26
M  V30 30 1 1 27
M  V30 31 1 2 28
M  V30 32 1 2 29
M  V30 33 1 4 30
M  V30 34 1 5 31
M  V30 35 1 9 32
M  V30 36 1 10 33
M  V30 37 1 13 34
M  V30 38 1 13 35
M  V30 39 1 17 36
M  V30 40 1 18 37
M  V30 41 1 21 38
M  V30 42 1 22 39
M  V30 43 1 25 40
M  V30 END BOND
M  V30 END CTAB
M  END
>  <Dataset>  (198) 
ChEMBL_Kinases

>  <Ligand_Instance>  (198) 
nan

>  <PDB_ID>  (198) 
nan

>  <Standardized_SMILES>  (198) 
NCc1ccn2c(-c3ccnc(N)n3)c(-c3ccc(F)cc3)nc2c1

>  <Name>  (198) 
nan

>  <Pocket>  (198) 
nan

>  <ATP_Site>  (198) 
nan

>  <Peripheral>  (198) 
nan

>  <Num_H_Atoms_ProtBoundConf>  (198) 
nan

>  <Num_Resolved_Atoms>  (198) 
nan

>  <Num_Not_Resolved_Atoms>  (198) 
nan

$$$$
CHEMBL208395
     RDKit          3D

  0  0  0  0  0  0  0  0  0  0999 V3000
M  V30 BEGIN CTAB
M  V30 COUNTS 51 54 0 0 0
M  V30 BEGIN ATOM
M  V30 1 C 3.759038 -0.275186 -0.857583 0
M  V30 2 C 3.210672 -1.685851 -0.770899 0 CFG=1
M  V30 3 O 3.971805 -2.407060 -1.759470 0
M  V30 4 C 3.424929 -2.358700 0.556798 0
M  V30 5 N 2.707082 -1.840651 1.618090 0
M  V30 6 C 2.891026 -2.527673 2.884434 0
M  V30 7 C 1.977490 -1.756605 3.820787 0
M  V30 8 C 2.242975 -0.346927 3.383966 0
M  V30 9 C 2.404365 -0.503570 1.843611 0
M  V30 10 C 1.000648 -0.254959 1.347866 0
M  V30 11 C 0.272897 0.909428 1.450156 0
M  V30 12 C -0.989811 0.708083 0.881176 0
M  V30 13 C -2.093726 1.662182 0.753541 0
M  V30 14 C -1.700684 2.692293 -0.097886 0
M  V30 15 C -2.601317 3.723247 -0.370729 0
M  V30 16 N -3.847416 3.739598 0.176305 0
M  V30 17 C -4.196735 2.734221 0.991953 0
M  V30 18 C -3.353438 1.671333 1.311564 0
M  V30 19 C -0.996440 -0.589556 0.443022 0
M  V30 20 C -2.057251 -1.344612 -0.213552 0
M  V30 21 C -3.096824 -1.721298 0.639345 0
M  V30 22 C -4.213643 -2.440152 0.216232 0
M  V30 23 C -4.312622 -2.804143 -1.101820 0
M  V30 24 F -5.380670 -3.495952 -1.534842 0
M  V30 25 C -3.291611 -2.437060 -1.949539 0
M  V30 26 C -2.186638 -1.726467 -1.534991 0
M  V30 27 N 0.191125 -1.150039 0.725256 0
M  V30 28 H 4.602441 -0.065908 -0.206156 0
M  V30 29 H 4.175824 -0.118028 -1.908719 0
M  V30 30 H 2.971634 0.494184 -0.772263 0
M  V30 31 H 2.186677 -1.684006 -1.138465 0
M  V30 32 H 3.345400 -2.900626 -2.342595 0
M  V30 33 H 3.089954 -3.432365 0.398153 0
M  V30 34 H 4.534759 -2.442816 0.765710 0
M  V30 35 H 3.923320 -2.536431 3.221369 0
M  V30 36 H 2.419689 -3.529310 2.756759 0
M  V30 37 H 2.186673 -1.910903 4.877917 0
M  V30 38 H 0.917799 -2.010301 3.616269 0
M  V30 39 H 3.175734 0.045226 3.800160 0
M  V30 40 H 1.401769 0.295518 3.641041 0
M  V30 41 H 3.118418 0.253994 1.508538 0
M  V30 42 H 0.618318 1.831673 1.899349 0
M  V30 43 H -0.765891 2.840079 -0.615692 0
M  V30 44 H -2.394404 4.565260 -1.017866 0
M  V30 45 H -5.174855 2.641375 1.491714 0
M  V30 46 H -3.524611 0.837010 1.938203 0
M  V30 47 H -3.127118 -1.496623 1.698945 0
M  V30 48 H -5.007562 -2.727161 0.873449 0
M  V30 49 H -3.331866 -2.705030 -2.995100 0
M  V30 50 H -1.349137 -1.406302 -2.142325 0
M  V30 51 H 0.519517 -2.139141 0.523473 0
M  V30 END ATOM
M  V30 BEGIN BOND
M  V30 1 1 1 2
M  V30 2 1 2 3
M  V30 3 1 2 4
M  V30 4 1 4 5
M  V30 5 1 5 6
M  V30 6 1 6 7
M  V30 7 1 7 8
M  V30 8 1 8 9
M  V30 9 1 9 10
M  V30 10 2 10 11
M  V30 11 1 11 12
M  V30 12 1 12 13
M  V30 13 2 13 14
M  V30 14 1 14 15
M  V30 15 2 15 16
M  V30 16 1 16 17
M  V30 17 2 17 18
M  V30 18 2 12 19
M  V30 19 1 19 20
M  V30 20 2 20 21
M  V30 21 1 21 22
M  V30 22 2 22 23
M  V30 23 1 23 24
M  V30 24 1 23 25
M  V30 25 2 25 26
M  V30 26 1 19 27
M  V30 27 1 9 5
M  V30 28 1 27 10
M  V30 29 1 18 13
M  V30 30 1 26 20
M  V30 31 1 1 28
M  V30 32 1 1 29
M  V30 33 1 1 30
M  V30 34 1 2 31 CFG=3
M  V30 35 1 3 32
M  V30 36 1 4 33
M  V30 37 1 4 34
M  V30 38 1 6 35
M  V30 39 1 6 36
M  V30 40 1 7 37
M  V30 41 1 7 38
M  V30 42 1 8 39
M  V30 43 1 8 40
M  V30 44 1 9 41
M  V30 45 1 11 42
M  V30 46 1 14 43
M  V30 47 1 15 44
M  V30 48 1 17 45
M  V30 49 1 18 46
M  V30 50 1 21 47
M  V30 51 1 22 48
M  V30 52 1 25 49
M  V30 53 1 26 50
M  V30 54 1 27 51
M  V30 END BOND
M  V30 END CTAB
M  END
>  <Dataset>  (199) 
ChEMBL_Kinases

>  <Ligand_Instance>  (199) 
nan

>  <PDB_ID>  (199) 
nan

>  <Standardized_SMILES>  (199) 
C[C@@H](O)CN1CCCC1c1cc(-c2ccncc2)c(-c2ccc(F)cc2)[nH]1

>  <Name>  (199) 
nan

>  <Pocket>  (199) 
nan

>  <ATP_Site>  (199) 
nan

>  <Peripheral>  (199) 
nan

>  <Num_H_Atoms_ProtBoundConf>  (199) 
nan

>  <Num_Resolved_Atoms>  (199) 
nan

>  <Num_Not_Resolved_Atoms>  (199) 
nan

$$$$
CHEMBL208406
     RDKit          3D

  0  0  0  0  0  0  0  0  0  0999 V3000
M  V30 BEGIN CTAB
M  V30 COUNTS 59 63 0 0 0
M  V30 BEGIN ATOM
M  V30 1 N 7.228847 -3.176645 0.465529 0
M  V30 2 C 6.741216 -2.416453 1.577948 0
M  V30 3 N 6.523396 -3.058686 2.755386 0
M  V30 4 C 6.059421 -2.276000 3.769415 0
M  V30 5 C 5.850155 -0.912091 3.524347 0
M  V30 6 C 6.099029 -0.325466 2.279045 0
M  V30 7 N 5.757315 1.061914 2.407383 0
M  V30 8 C 4.467280 1.452668 1.888470 0
M  V30 9 C 3.915867 0.643577 0.940049 0
M  V30 10 C 2.680112 0.943160 0.406957 0
M  V30 11 C 1.937631 2.064560 0.796883 0
M  V30 12 C 0.639111 2.317953 0.186548 0
M  V30 13 C 0.060647 3.557420 -0.021054 0
M  V30 14 N -1.137856 3.730745 -0.600124 0
M  V30 15 C -1.886101 2.682789 -1.034733 0
M  V30 16 C -1.399225 1.390340 -0.875864 0
M  V30 17 O -1.935056 0.193007 -1.215440 0
M  V30 18 C -3.120321 -0.166347 -1.806491 0
M  V30 19 C -4.386526 0.159565 -1.108513 0 CFG=1
M  V30 20 N -5.473486 -0.322922 -2.013243 0
M  V30 21 C -4.652159 -0.548077 0.180677 0
M  V30 22 C -4.747997 -1.997844 0.121328 0
M  V30 23 C -5.958657 -2.681353 0.073503 0
M  V30 24 N -5.792639 -4.011794 -0.000713 0
M  V30 25 C -4.481264 -4.276154 -0.005478 0
M  V30 26 C -3.761682 -5.456097 -0.062389 0
M  V30 27 C -2.363688 -5.386458 -0.041344 0
M  V30 28 C -1.736128 -4.166201 0.034576 0
M  V30 29 C -2.463073 -3.017998 0.089456 0
M  V30 30 C -3.828536 -3.040691 0.070480 0
M  V30 31 C -0.144634 1.248510 -0.266448 0
M  V30 32 C 2.533824 2.854813 1.757141 0
M  V30 33 C 3.766741 2.567270 2.297448 0
M  V30 34 N 6.563987 -1.095765 1.253676 0
M  V30 35 H 8.013765 -3.355261 -0.201191 0
M  V30 36 H 6.438774 -3.842975 0.225368 0
M  V30 37 H 5.890744 -2.785700 4.696543 0
M  V30 38 H 5.478425 -0.444949 4.450385 0
M  V30 39 H 6.430971 1.727911 2.857176 0
M  V30 40 H 4.440484 -0.226871 0.604023 0
M  V30 41 H 2.313649 0.235146 -0.357879 0
M  V30 42 H 0.636937 4.417851 0.314944 0
M  V30 43 H -2.851650 2.733561 -1.511497 0
M  V30 44 H -3.160097 0.400165 -2.797122 0
M  V30 45 H -3.102274 -1.248555 -2.057864 0
M  V30 46 H -4.579926 1.222436 -0.960005 0
M  V30 47 H -5.461239 -1.350577 -2.094464 0
M  V30 48 H -6.349088 0.046255 -1.574190 0
M  V30 49 H -5.630976 -0.133813 0.564121 0
M  V30 50 H -3.912509 -0.204486 0.941022 0
M  V30 51 H -6.947169 -2.225269 0.092758 0
M  V30 52 H -6.513226 -4.768248 -0.050637 0
M  V30 53 H -4.224127 -6.417181 -0.121669 0
M  V30 54 H -1.741806 -6.275717 -0.082649 0
M  V30 55 H -0.657107 -4.137665 0.048082 0
M  V30 56 H -1.967391 -2.090151 0.154752 0
M  V30 57 H 0.318130 0.265006 -0.095835 0
M  V30 58 H 1.992996 3.747944 2.096132 0
M  V30 59 H 4.257027 3.160955 3.044836 0
M  V30 END ATOM
M  V30 BEGIN BOND
M  V30 1 1 1 2
M  V30 2 2 2 3
M  V30 3 1 3 4
M  V30 4 2 4 5
M  V30 5 1 5 6
M  V30 6 1 6 7
M  V30 7 1 7 8
M  V30 8 2 8 9
M  V30 9 1 9 10
M  V30 10 2 10 11
M  V30 11 1 11 12
M  V30 12 2 12 13
M  V30 13 1 13 14
M  V30 14 2 14 15
M  V30 15 1 15 16
M  V30 16 1 16 17
M  V30 17 1 17 18
M  V30 18 1 18 19
M  V30 19 1 19 20
M  V30 20 1 19 21
M  V30 21 1 21 22
M  V30 22 2 22 23
M  V30 23 1 23 24
M  V30 24 1 24 25
M  V30 25 2 25 26
M  V30 26 1 26 27
M  V30 27 2 27 28
M  V30 28 1 28 29
M  V30 29 2 29 30
M  V30 30 2 16 31
M  V30 31 1 11 32
M  V30 32 2 32 33
M  V30 33 2 6 34
M  V30 34 1 34 2
M  V30 35 1 33 8
M  V30 36 1 31 12
M  V30 37 1 30 22
M  V30 38 1 30 25
M  V30 39 1 1 35
M  V30 40 1 1 36
M  V30 41 1 4 37
M  V30 42 1 5 38
M  V30 43 1 7 39
M  V30 44 1 9 40
M  V30 45 1 10 41
M  V30 46 1 13 42
M  V30 47 1 15 43
M  V30 48 1 18 44
M  V30 49 1 18 45
M  V30 50 1 19 46 CFG=1
M  V30 51 1 20 47
M  V30 52 1 20 48
M  V30 53 1 21 49
M  V30 54 1 21 50
M  V30 55 1 23 51
M  V30 56 1 24 52
M  V30 57 1 26 53
M  V30 58 1 27 54
M  V30 59 1 28 55
M  V30 60 1 29 56
M  V30 61 1 31 57
M  V30 62 1 32 58
M  V30 63 1 33 59
M  V30 END BOND
M  V30 END CTAB
M  END
>  <Dataset>  (200) 
ChEMBL_Kinases

>  <Ligand_Instance>  (200) 
nan

>  <PDB_ID>  (200) 
nan

>  <Standardized_SMILES>  (200) 
Nc1nccc(Nc2ccc(-c3cncc(OC[C@@H](N)Cc4c[nH]c5ccccc45)c3)cc2)n1

>  <Name>  (200) 
nan

>  <Pocket>  (200) 
nan

>  <ATP_Site>  (200) 
nan

>  <Peripheral>  (200) 
nan

>  <Num_H_Atoms_ProtBoundConf>  (200) 
nan

>  <Num_Resolved_Atoms>  (200) 
nan

>  <Num_Not_Resolved_Atoms>  (200) 
nan

$$$$
CHEMBL208417
     RDKit          3D

  0  0  0  0  0  0  0  0  0  0999 V3000
M  V30 BEGIN CTAB
M  V30 COUNTS 61 62 0 0 0
M  V30 BEGIN ATOM
M  V30 1 C 0.316192 0.884173 8.704395 0
M  V30 2 O 0.691924 0.219364 7.532211 0
M  V30 3 C 1.415928 0.772598 6.497315 0
M  V30 4 C 1.890113 2.065783 6.440471 0
M  V30 5 C 2.603007 2.507041 5.352450 0
M  V30 6 C 2.832013 1.626164 4.320788 0
M  V30 7 C 2.389398 0.325561 4.311459 0
M  V30 8 C 2.648224 -0.600548 3.192326 0
M  V30 9 O 2.196802 -1.753394 3.298383 0
M  V30 10 O 3.365856 -0.104154 2.132702 0
M  V30 11 C 3.702505 -0.817151 0.994444 0
M  V30 12 C 2.574421 -1.310004 0.149344 0
M  V30 13 C 3.200237 -1.957059 -1.084680 0
M  V30 14 O 4.038597 -1.033237 -1.704660 0
M  V30 15 C 1.705490 -0.157183 -0.316613 0
M  V30 16 C 0.388403 -0.824009 -0.491134 0
M  V30 17 C -0.718495 -0.599389 -1.184590 0
M  V30 18 C -1.985671 -1.304077 -1.308157 0
M  V30 19 C -2.370033 -1.814397 -2.649248 0
M  V30 20 C -3.715313 -2.505153 -2.518538 0
M  V30 21 C -4.763209 -1.544211 -2.023487 0
M  V30 22 C -3.642938 -3.686547 -1.577004 0
M  V30 23 C -2.450786 -0.911718 -3.795196 0
M  V30 24 C -1.260984 -0.160581 -4.240063 0
M  V30 25 C -2.927197 -1.767328 -4.982586 0
M  V30 26 C 0.447247 -2.008128 0.356734 0
M  V30 27 O -0.437500 -2.806513 0.681036 0
M  V30 28 O 1.722986 -2.179844 0.818792 0
M  V30 29 C 1.671193 -0.067879 5.441663 0
M  V30 30 H 0.434259 0.158570 9.538092 0
M  V30 31 H 0.961379 1.744542 8.926673 0
M  V30 32 H -0.748134 1.239490 8.659674 0
M  V30 33 H 1.678871 2.706287 7.277333 0
M  V30 34 H 2.971519 3.523141 5.315756 0
M  V30 35 H 3.393700 1.942098 3.442426 0
M  V30 36 H 4.376830 -0.205232 0.357610 0
M  V30 37 H 4.296891 -1.736151 1.279800 0
M  V30 38 H 2.406456 -2.226260 -1.793437 0
M  V30 39 H 3.775009 -2.851704 -0.765331 0
M  V30 40 H 3.552352 -0.600389 -2.446261 0
M  V30 41 H 1.609596 0.632192 0.454423 0
M  V30 42 H 2.125449 0.237443 -1.254689 0
M  V30 43 H -0.648565 0.323359 -1.788605 0
M  V30 44 H -2.800994 -0.568068 -0.998268 0
M  V30 45 H -2.156241 -2.127137 -0.592024 0
M  V30 46 H -1.669694 -2.660627 -2.925004 0
M  V30 47 H -4.069011 -2.915984 -3.502974 0
M  V30 48 H -4.941036 -1.729977 -0.924738 0
M  V30 49 H -4.508040 -0.486985 -2.098290 0
M  V30 50 H -5.740433 -1.716432 -2.561974 0
M  V30 51 H -2.679199 -4.207695 -1.647878 0
M  V30 52 H -4.528357 -4.332448 -1.809923 0
M  V30 53 H -3.842546 -3.284748 -0.548010 0
M  V30 54 H -3.285819 -0.157383 -3.681670 0
M  V30 55 H -1.328218 0.941259 -3.988981 0
M  V30 56 H -1.239950 -0.135085 -5.351870 0
M  V30 57 H -0.281501 -0.600302 -3.965250 0
M  V30 58 H -2.559790 -2.817070 -4.867759 0
M  V30 59 H -2.433133 -1.423951 -5.935992 0
M  V30 60 H -4.001248 -1.709454 -5.140842 0
M  V30 61 H 1.323372 -1.104093 5.424859 0
M  V30 END ATOM
M  V30 BEGIN BOND
M  V30 1 1 1 2
M  V30 2 1 2 3
M  V30 3 2 3 4
M  V30 4 1 4 5
M  V30 5 2 5 6
M  V30 6 1 6 7
M  V30 7 1 7 8
M  V30 8 2 8 9
M  V30 9 1 8 10
M  V30 10 1 10 11
M  V30 11 1 11 12
M  V30 12 1 12 13
M  V30 13 1 13 14
M  V30 14 1 12 15
M  V30 15 1 15 16
M  V30 16 2 16 17
M  V30 17 1 17 18
M  V30 18 1 18 19
M  V30 19 1 19 20
M  V30 20 1 20 21
M  V30 21 1 20 22
M  V30 22 1 19 23
M  V30 23 1 23 24
M  V30 24 1 23 25
M  V30 25 1 16 26
M  V30 26 2 26 27
M  V30 27 1 26 28
M  V30 28 2 7 29
M  V30 29 1 29 3
M  V30 30 1 28 12
M  V30 31 1 1 30
M  V30 32 1 1 31
M  V30 33 1 1 32
M  V30 34 1 4 33
M  V30 35 1 5 34
M  V30 36 1 6 35
M  V30 37 1 11 36
M  V30 38 1 11 37
M  V30 39 1 13 38
M  V30 40 1 13 39
M  V30 41 1 14 40
M  V30 42 1 15 41
M  V30 43 1 15 42
M  V30 44 1 17 43
M  V30 45 1 18 44
M  V30 46 1 18 45
M  V30 47 1 19 46
M  V30 48 1 20 47
M  V30 49 1 21 48
M  V30 50 1 21 49
M  V30 51 1 21 50
M  V30 52 1 22 51
M  V30 53 1 22 52
M  V30 54 1 22 53
M  V30 55 1 23 54
M  V30 56 1 24 55
M  V30 57 1 24 56
M  V30 58 1 24 57
M  V30 59 1 25 58
M  V30 60 1 25 59
M  V30 61 1 25 60
M  V30 62 1 29 61
M  V30 END BOND
M  V30 END CTAB
M  END
>  <Dataset>  (201) 
ChEMBL_Kinases

>  <Ligand_Instance>  (201) 
nan

>  <PDB_ID>  (201) 
nan

>  <Standardized_SMILES>  (201) 
COc1cccc(C(=O)OCC2(CO)C/C(=C/CC(C(C)C)C(C)C)C(=O)O2)c1

>  <Name>  (201) 
nan

>  <Pocket>  (201) 
nan

>  <ATP_Site>  (201) 
nan

>  <Peripheral>  (201) 
nan

>  <Num_H_Atoms_ProtBoundConf>  (201) 
nan

>  <Num_Resolved_Atoms>  (201) 
nan

>  <Num_Not_Resolved_Atoms>  (201) 
nan

$$$$
CHEMBL208430
     RDKit          3D

  0  0  0  0  0  0  0  0  0  0999 V3000
M  V30 BEGIN CTAB
M  V30 COUNTS 43 46 0 0 0
M  V30 BEGIN ATOM
M  V30 1 C -3.621271 -4.522606 -0.726606 0
M  V30 2 N -2.734357 -5.279060 0.085966 0
M  V30 3 C -1.345281 -5.189428 -0.204480 0
M  V30 4 C -0.779358 -3.825780 -0.100622 0
M  V30 5 C -0.640590 -2.879555 -1.090642 0
M  V30 6 C -0.097897 -1.634436 -0.857156 0
M  V30 7 N 0.330230 -1.284458 0.382818 0
M  V30 8 C 0.887778 -0.149435 0.862539 0
M  V30 9 C 1.143384 1.005472 0.013118 0
M  V30 10 C 2.018431 0.733579 -1.034037 0
M  V30 11 C 2.405870 1.672587 -1.963778 0
M  V30 12 N 1.884296 2.926330 -1.819848 0
M  V30 13 C 1.035235 3.200902 -0.808426 0
M  V30 14 N 0.466542 4.498143 -0.619626 0
M  V30 15 N 0.661716 2.278111 0.095546 0
M  V30 16 C 1.113128 -0.389302 2.223074 0
M  V30 17 C 1.710185 0.616119 3.095066 0
M  V30 18 C 0.977750 1.777569 3.261117 0
M  V30 19 C 1.400317 2.826504 4.052209 0
M  V30 20 C 2.602467 2.732818 4.714933 0
M  V30 21 F 3.059046 3.736981 5.503082 0
M  V30 22 C 3.340618 1.587936 4.560845 0
M  V30 23 C 2.915511 0.526133 3.761532 0
M  V30 24 N 0.692894 -1.633439 2.510327 0
M  V30 25 C 0.211823 -2.182479 1.377886 0
M  V30 26 C -0.335111 -3.454737 1.172417 0
M  V30 27 H -3.171770 -3.812716 -1.423127 0
M  V30 28 H -4.278688 -3.914787 -0.040847 0
M  V30 29 H -4.357012 -5.184279 -1.269575 0
M  V30 30 H -2.994348 -5.417260 1.066823 0
M  V30 31 H -0.787418 -5.917407 0.420264 0
M  V30 32 H -1.225603 -5.490953 -1.285625 0
M  V30 33 H -0.982957 -3.180829 -2.070468 0
M  V30 34 H -0.029379 -0.952553 -1.703943 0
M  V30 35 H 2.475596 -0.254106 -1.209931 0
M  V30 36 H 3.083856 1.462756 -2.776205 0
M  V30 37 H 1.094314 4.950401 0.089252 0
M  V30 38 H -0.377655 4.969628 -1.047230 0
M  V30 39 H 0.009986 1.993366 2.800567 0
M  V30 40 H 0.854884 3.748082 4.204641 0
M  V30 41 H 4.299060 1.455402 5.059484 0
M  V30 42 H 3.462014 -0.394436 3.609625 0
M  V30 43 H -0.403269 -4.134159 2.017831 0
M  V30 END ATOM
M  V30 BEGIN BOND
M  V30 1 1 1 2
M  V30 2 1 2 3
M  V30 3 1 3 4
M  V30 4 1 4 5
M  V30 5 2 5 6
M  V30 6 1 6 7
M  V30 7 1 7 8
M  V30 8 1 8 9
M  V30 9 2 9 10
M  V30 10 1 10 11
M  V30 11 2 11 12
M  V30 12 1 12 13
M  V30 13 1 13 14
M  V30 14 2 13 15
M  V30 15 2 8 16
M  V30 16 1 16 17
M  V30 17 2 17 18
M  V30 18 1 18 19
M  V30 19 2 19 20
M  V30 20 1 20 21
M  V30 21 1 20 22
M  V30 22 2 22 23
M  V30 23 1 16 24
M  V30 24 2 24 25
M  V30 25 1 25 26
M  V30 26 2 26 4
M  V30 27 1 25 7
M  V30 28 1 15 9
M  V30 29 1 23 17
M  V30 30 1 1 27
M  V30 31 1 1 28
M  V30 32 1 1 29
M  V30 33 1 2 30
M  V30 34 1 3 31
M  V30 35 1 3 32
M  V30 36 1 5 33
M  V30 37 1 6 34
M  V30 38 1 10 35
M  V30 39 1 11 36
M  V30 40 1 14 37
M  V30 41 1 14 38
M  V30 42 1 18 39
M  V30 43 1 19 40
M  V30 44 1 22 41
M  V30 45 1 23 42
M  V30 46 1 26 43
M  V30 END BOND
M  V30 END CTAB
M  END
>  <Dataset>  (202) 
ChEMBL_Kinases

>  <Ligand_Instance>  (202) 
nan

>  <PDB_ID>  (202) 
nan

>  <Standardized_SMILES>  (202) 
CNCc1ccn2c(-c3ccnc(N)n3)c(-c3ccc(F)cc3)nc2c1

>  <Name>  (202) 
nan

>  <Pocket>  (202) 
nan

>  <ATP_Site>  (202) 
nan

>  <Peripheral>  (202) 
nan

>  <Num_H_Atoms_ProtBoundConf>  (202) 
nan

>  <Num_Resolved_Atoms>  (202) 
nan

>  <Num_Not_Resolved_Atoms>  (202) 
nan

$$$$
CHEMBL208434
     RDKit          3D

  0  0  0  0  0  0  0  0  0  0999 V3000
M  V30 BEGIN CTAB
M  V30 COUNTS 40 42 0 0 0
M  V30 BEGIN ATOM
M  V30 1 C 1.378811 -4.092804 -1.072188 0
M  V30 2 N 2.123545 -4.046827 0.143035 0
M  V30 3 C 1.509491 -4.691591 1.265615 0
M  V30 4 C 2.753067 -2.801710 0.447364 0
M  V30 5 C 1.823752 -1.653725 0.574419 0
M  V30 6 C 1.452955 -0.813258 -0.463972 0
M  V30 7 C 0.580179 0.140062 -0.002001 0
M  V30 8 C 0.001329 1.181406 -0.822373 0
M  V30 9 C -1.026967 1.108949 -1.743875 0
M  V30 10 C -1.425479 2.237687 -2.436065 0
M  V30 11 N -0.809202 3.421309 -2.214444 0
M  V30 12 C 0.203187 3.563304 -1.328184 0
M  V30 13 C 0.594221 2.431969 -0.642071 0
M  V30 14 C 0.428765 -0.139023 1.339534 0
M  V30 15 C -0.411036 0.602364 2.260846 0
M  V30 16 C -1.463723 -0.142587 2.756776 0
M  V30 17 C -2.403210 0.334569 3.647924 0
M  V30 18 C -2.240938 1.662031 4.048511 0
M  V30 19 F -3.142339 2.197357 4.936579 0
M  V30 20 C -1.203285 2.449057 3.580567 0
M  V30 21 C -0.292790 1.901306 2.683133 0
M  V30 22 N 1.177560 -1.211342 1.663549 0
M  V30 23 H 1.587594 -3.269744 -1.759299 0
M  V30 24 H 0.279280 -4.176535 -0.935140 0
M  V30 25 H 1.672659 -5.046788 -1.590477 0
M  V30 26 H 0.413293 -4.583225 1.309495 0
M  V30 27 H 1.732165 -5.784082 1.228095 0
M  V30 28 H 1.937770 -4.336323 2.226196 0
M  V30 29 H 3.465280 -2.595111 -0.392901 0
M  V30 30 H 3.401194 -2.924420 1.336822 0
M  V30 31 H 1.800447 -0.893651 -1.496877 0
M  V30 32 H -1.443724 0.104282 -1.834600 0
M  V30 33 H -2.236417 2.104373 -3.139923 0
M  V30 34 H 0.671711 4.529639 -1.181733 0
M  V30 35 H 1.413587 2.613284 0.053193 0
M  V30 36 H -1.659442 -1.193171 2.489582 0
M  V30 37 H -3.227934 -0.246494 4.036287 0
M  V30 38 H -1.052911 3.468909 3.868440 0
M  V30 39 H 0.546763 2.434870 2.266079 0
M  V30 40 H 1.294272 -1.692760 2.599909 0
M  V30 END ATOM
M  V30 BEGIN BOND
M  V30 1 1 1 2
M  V30 2 1 2 3
M  V30 3 1 2 4
M  V30 4 1 4 5
M  V30 5 2 5 6
M  V30 6 1 6 7
M  V30 7 1 7 8
M  V30 8 2 8 9
M  V30 9 1 9 10
M  V30 10 2 10 11
M  V30 11 1 11 12
M  V30 12 2 12 13
M  V30 13 2 7 14
M  V30 14 1 14 15
M  V30 15 2 15 16
M  V30 16 1 16 17
M  V30 17 2 17 18
M  V30 18 1 18 19
M  V30 19 1 18 20
M  V30 20 2 20 21
M  V30 21 1 14 22
M  V30 22 1 22 5
M  V30 23 1 13 8
M  V30 24 1 21 15
M  V30 25 1 1 23
M  V30 26 1 1 24
M  V30 27 1 1 25
M  V30 28 1 3 26
M  V30 29 1 3 27
M  V30 30 1 3 28
M  V30 31 1 4 29
M  V30 32 1 4 30
M  V30 33 1 6 31
M  V30 34 1 9 32
M  V30 35 1 10 33
M  V30 36 1 12 34
M  V30 37 1 13 35
M  V30 38 1 16 36
M  V30 39 1 17 37
M  V30 40 1 20 38
M  V30 41 1 21 39
M  V30 42 1 22 40
M  V30 END BOND
M  V30 END CTAB
M  END
>  <Dataset>  (203) 
ChEMBL_Kinases

>  <Ligand_Instance>  (203) 
nan

>  <PDB_ID>  (203) 
nan

>  <Standardized_SMILES>  (203) 
CN(C)Cc1cc(-c2ccncc2)c(-c2ccc(F)cc2)[nH]1

>  <Name>  (203) 
nan

>  <Pocket>  (203) 
nan

>  <ATP_Site>  (203) 
nan

>  <Peripheral>  (203) 
nan

>  <Num_H_Atoms_ProtBoundConf>  (203) 
nan

>  <Num_Resolved_Atoms>  (203) 
nan

>  <Num_Not_Resolved_Atoms>  (203) 
nan

$$$$
CHEMBL208437
     RDKit          3D

  0  0  0  0  0  0  0  0  0  0999 V3000
M  V30 BEGIN CTAB
M  V30 COUNTS 51 55 0 0 0
M  V30 BEGIN ATOM
M  V30 1 C 1.359351 -1.400185 4.599439 0
M  V30 2 C 2.095890 -2.288297 3.863389 0
M  V30 3 C 3.189915 -1.860257 3.124010 0
M  V30 4 C 3.508135 -0.499635 3.159345 0
M  V30 5 C 4.638422 0.112359 2.429599 0
M  V30 6 N 5.935200 -0.215340 2.635492 0
M  V30 7 N 6.723299 0.490891 1.843373 0
M  V30 8 C 5.981981 1.315679 1.079885 0
M  V30 9 C 4.666722 1.094088 1.432235 0
M  V30 10 C 3.354617 1.634366 1.012352 0
M  V30 11 C 3.046369 2.970837 1.154692 0
M  V30 12 C 1.802939 3.350198 0.730733 0
M  V30 13 N 0.910569 2.480592 0.199119 0
M  V30 14 C 1.178543 1.171756 0.046134 0
M  V30 15 C 0.164639 0.300937 -0.534636 0
M  V30 16 C -1.024978 0.896788 -0.894108 0
M  V30 17 C -2.039834 0.154645 -1.449609 0
M  V30 18 C -1.950215 -1.193686 -1.681369 0
M  V30 19 O -2.721698 -2.190128 -2.187166 0
M  V30 20 C -4.017466 -2.074800 -2.666165 0
M  V30 21 C -5.059484 -1.640386 -1.698202 0
M  V30 22 N -5.174353 -2.555178 -0.568327 0
M  V30 23 C -5.943854 -3.639791 -0.409415 0
M  V30 24 C -5.703336 -4.190118 0.846850 0
M  V30 25 N -4.771483 -3.403439 1.428010 0
M  V30 26 C -4.469842 -2.430153 0.560838 0
M  V30 27 C -0.730019 -1.784747 -1.308904 0
M  V30 28 C 0.321657 -1.050953 -0.740525 0
M  V30 29 C 2.423987 0.773142 0.467074 0
M  V30 30 N 2.779265 0.365485 3.884985 0
M  V30 31 C 1.714436 -0.055278 4.603794 0
M  V30 32 H 0.511232 -1.786467 5.161504 0
M  V30 33 H 1.879093 -3.349054 3.812051 0
M  V30 34 H 3.828809 -2.485746 2.514774 0
M  V30 35 H 7.765231 0.498664 1.734227 0
M  V30 36 H 6.181453 2.053077 0.313301 0
M  V30 37 H 3.771637 3.656449 1.582417 0
M  V30 38 H 1.521317 4.402155 0.827078 0
M  V30 39 H -1.273334 1.952563 -0.783726 0
M  V30 40 H -2.976899 0.542316 -1.760981 0
M  V30 41 H -4.332959 -2.999357 -3.221854 0
M  V30 42 H -3.989980 -1.267801 -3.465683 0
M  V30 43 H -4.937606 -0.609091 -1.405417 0
M  V30 44 H -6.040721 -1.719022 -2.228204 0
M  V30 45 H -6.623352 -3.999477 -1.147395 0
M  V30 46 H -6.197784 -5.066746 1.212426 0
M  V30 47 H -3.736022 -1.714260 0.876699 0
M  V30 48 H -0.399040 -2.835662 -1.385175 0
M  V30 49 H 1.275626 -1.435847 -0.434029 0
M  V30 50 H 2.699224 -0.249312 0.374092 0
M  V30 51 H 1.132405 0.646518 5.185634 0
M  V30 END ATOM
M  V30 BEGIN BOND
M  V30 1 2 1 2
M  V30 2 1 2 3
M  V30 3 2 3 4
M  V30 4 1 4 5
M  V30 5 2 5 6
M  V30 6 1 6 7
M  V30 7 1 7 8
M  V30 8 2 8 9
M  V30 9 1 9 10
M  V30 10 2 10 11
M  V30 11 1 11 12
M  V30 12 2 12 13
M  V30 13 1 13 14
M  V30 14 1 14 15
M  V30 15 2 15 16
M  V30 16 1 16 17
M  V30 17 2 17 18
M  V30 18 1 18 19
M  V30 19 1 19 20
M  V30 20 1 20 21
M  V30 21 1 21 22
M  V30 22 1 22 23
M  V30 23 2 23 24
M  V30 24 1 24 25
M  V30 25 2 25 26
M  V30 26 1 18 27
M  V30 27 2 27 28
M  V30 28 2 14 29
M  V30 29 1 4 30
M  V30 30 2 30 31
M  V30 31 1 31 1
M  V30 32 1 9 5
M  V30 33 1 29 10
M  V30 34 1 28 15
M  V30 35 1 26 22
M  V30 36 1 1 32
M  V30 37 1 2 33
M  V30 38 1 3 34
M  V30 39 1 7 35
M  V30 40 1 8 36
M  V30 41 1 11 37
M  V30 42 1 12 38
M  V30 43 1 16 39
M  V30 44 1 17 40
M  V30 45 1 20 41
M  V30 46 1 20 42
M  V30 47 1 21 43
M  V30 48 1 21 44
M  V30 49 1 23 45
M  V30 50 1 24 46
M  V30 51 1 26 47
M  V30 52 1 27 48
M  V30 53 1 28 49
M  V30 54 1 29 50
M  V30 55 1 31 51
M  V30 END BOND
M  V30 END CTAB
M  END
>  <Dataset>  (204) 
ChEMBL_Kinases

>  <Ligand_Instance>  (204) 
nan

>  <PDB_ID>  (204) 
nan

>  <Standardized_SMILES>  (204) 
c1ccc(-c2n[nH]cc2-c2ccnc(-c3ccc(OCCn4ccnc4)cc3)c2)nc1

>  <Name>  (204) 
GW711782X

>  <Pocket>  (204) 
nan

>  <ATP_Site>  (204) 
nan

>  <Peripheral>  (204) 
nan

>  <Num_H_Atoms_ProtBoundConf>  (204) 
nan

>  <Num_Resolved_Atoms>  (204) 
nan

>  <Num_Not_Resolved_Atoms>  (204) 
nan

$$$$
CHEMBL208448
     RDKit          3D

  0  0  0  0  0  0  0  0  0  0999 V3000
M  V30 BEGIN CTAB
M  V30 COUNTS 44 45 0 0 0
M  V30 BEGIN ATOM
M  V30 1 C 0.810441 -2.979439 2.989037 0
M  V30 2 C 1.828294 -3.954697 2.393646 0
M  V30 3 O 1.152551 -4.685404 1.353278 0
M  V30 4 C 0.645143 -3.969965 0.282543 0
M  V30 5 N 0.711696 -2.645588 0.074220 0
M  V30 6 C 0.203828 -1.996298 -0.982062 0
M  V30 7 N 0.371808 -0.580314 -1.089825 0
M  V30 8 C -0.463736 0.348711 -0.447671 0
M  V30 9 O -1.406135 -0.146376 0.268869 0
M  V30 10 C -0.425445 1.824428 -0.465253 0
M  V30 11 C 0.025899 2.460589 0.768533 0
M  V30 12 C 1.342336 2.932498 0.761583 0
M  V30 13 C 2.004124 3.562676 1.802268 0
M  V30 14 C 3.431651 4.015415 1.623451 0
M  V30 15 C 1.260435 3.735512 2.976143 0
M  V30 16 C -0.041094 3.288919 3.036533 0
M  V30 17 C -0.630972 2.670256 1.955257 0
M  V30 18 C -2.021104 2.215957 2.056162 0
M  V30 19 C -0.459442 -2.669061 -1.986767 0
M  V30 20 C -0.529883 -4.034389 -1.775396 0
M  V30 21 N -1.195864 -4.813599 -2.764323 0
M  V30 22 C -0.017090 -4.713467 -0.703529 0
M  V30 23 C -0.139630 -6.127559 -0.569493 0
M  V30 24 N -0.230409 -7.299883 -0.472305 0
M  V30 25 H 1.190597 -2.687689 3.983462 0
M  V30 26 H 0.708794 -2.081466 2.376790 0
M  V30 27 H -0.151850 -3.532778 3.121361 0
M  V30 28 H 2.294533 -4.595015 3.132604 0
M  V30 29 H 2.602227 -3.307125 1.936554 0
M  V30 30 H 1.113232 -0.042585 -1.633893 0
M  V30 31 H -1.452586 2.211496 -0.783249 0
M  V30 32 H 0.218122 2.148093 -1.308446 0
M  V30 33 H 1.960214 2.811776 -0.144987 0
M  V30 34 H 3.990971 4.045854 2.558633 0
M  V30 35 H 3.389287 5.067935 1.213647 0
M  V30 36 H 3.914435 3.404096 0.822674 0
M  V30 37 H 1.787720 4.227055 3.782990 0
M  V30 38 H -0.612544 3.423115 3.940305 0
M  V30 39 H -2.592105 2.903736 2.747833 0
M  V30 40 H -2.057865 1.203566 2.558443 0
M  V30 41 H -2.582080 2.156842 1.129811 0
M  V30 42 H -0.888377 -2.197253 -2.859271 0
M  V30 43 H -1.563410 -5.447665 -3.464927 0
M  V30 44 H -2.098828 -4.821731 -3.317645 0
M  V30 END ATOM
M  V30 BEGIN BOND
M  V30 1 1 1 2
M  V30 2 1 2 3
M  V30 3 1 3 4
M  V30 4 2 4 5
M  V30 5 1 5 6
M  V30 6 1 6 7
M  V30 7 1 7 8
M  V30 8 2 8 9
M  V30 9 1 8 10
M  V30 10 1 10 11
M  V30 11 2 11 12
M  V30 12 1 12 13
M  V30 13 1 13 14
M  V30 14 2 13 15
M  V30 15 1 15 16
M  V30 16 2 16 17
M  V30 17 1 17 18
M  V30 18 2 6 19
M  V30 19 1 19 20
M  V30 20 1 20 21
M  V30 21 2 20 22
M  V30 22 1 22 23
M  V30 23 3 23 24
M  V30 24 1 22 4
M  V30 25 1 17 11
M  V30 26 1 1 25
M  V30 27 1 1 26
M  V30 28 1 1 27
M  V30 29 1 2 28
M  V30 30 1 2 29
M  V30 31 1 7 30
M  V30 32 1 10 31
M  V30 33 1 10 32
M  V30 34 1 12 33
M  V30 35 1 14 34
M  V30 36 1 14 35
M  V30 37 1 14 36
M  V30 38 1 15 37
M  V30 39 1 16 38
M  V30 40 1 18 39
M  V30 41 1 18 40
M  V30 42 1 18 41
M  V30 43 1 19 42
M  V30 44 1 21 43
M  V30 45 1 21 44
M  V30 END BOND
M  V30 END CTAB
M  END
>  <Dataset>  (205) 
ChEMBL_Kinases

>  <Ligand_Instance>  (205) 
nan

>  <PDB_ID>  (205) 
nan

>  <Standardized_SMILES>  (205) 
CCOc1nc(NC(=O)Cc2cc(C)ccc2C)cc(N)c1C#N

>  <Name>  (205) 
nan

>  <Pocket>  (205) 
nan

>  <ATP_Site>  (205) 
nan

>  <Peripheral>  (205) 
nan

>  <Num_H_Atoms_ProtBoundConf>  (205) 
nan

>  <Num_Resolved_Atoms>  (205) 
nan

>  <Num_Not_Resolved_Atoms>  (205) 
nan

$$$$
CHEMBL208332
     RDKit          3D

  0  0  0  0  0  0  0  0  0  0999 V3000
M  V30 BEGIN CTAB
M  V30 COUNTS 44 46 0 0 0
M  V30 BEGIN ATOM
M  V30 1 C -2.985535 0.779856 0.163515 0
M  V30 2 O -2.337136 -0.016470 1.152595 0
M  V30 3 C -0.979742 0.174407 1.371448 0
M  V30 4 C -0.240717 1.096434 0.675227 0
M  V30 5 C 1.108592 1.285822 0.893127 0
M  V30 6 N 1.888876 2.237868 0.179395 0
M  V30 7 C 2.256323 3.594333 0.325330 0
M  V30 8 O 1.797196 4.166453 1.346337 0
M  V30 9 C 3.112329 4.165874 -0.708679 0
M  V30 10 C 3.631961 3.567571 -1.838038 0
M  V30 11 C 4.428028 4.304162 -2.690810 0
M  V30 12 N 4.725969 5.595098 -2.471151 0
M  V30 13 C 4.227709 6.180224 -1.382177 0
M  V30 14 C 3.415936 5.506113 -0.471708 0
M  V30 15 C 1.694857 0.493318 1.859675 0
M  V30 16 Cl 3.423105 0.678923 2.195553 0
M  V30 17 C 1.014823 -0.468032 2.612864 0
M  V30 18 C -0.329557 -0.582057 2.321338 0
M  V30 19 N -1.075722 -1.561621 3.072743 0
M  V30 20 C -1.088239 -2.838239 2.455059 0
M  V30 21 O -0.448945 -2.917703 1.351775 0
M  V30 22 N -1.722661 -4.002221 2.928329 0
M  V30 23 C -1.670405 -5.240866 2.221915 0
M  V30 24 C -2.304728 -6.360477 2.717197 0
M  V30 25 N -2.207366 -7.495361 1.987663 0
M  V30 26 C -1.528346 -7.554258 0.828640 0
M  V30 27 C -1.407411 -8.746342 0.031299 0
M  V30 28 N -1.312799 -9.707813 -0.600189 0
M  V30 29 C -0.898354 -6.430315 0.342731 0
M  V30 30 N -0.978796 -5.282841 1.050414 0
M  V30 31 H -2.930120 1.868239 0.429897 0
M  V30 32 H -2.475977 0.560206 -0.797555 0
M  V30 33 H -4.054791 0.532032 0.128218 0
M  V30 34 H -0.733689 1.707724 -0.082590 0
M  V30 35 H 2.156559 1.582657 -0.586618 0
M  V30 36 H 3.347398 2.535637 -1.941143 0
M  V30 37 H 4.805985 3.795114 -3.551455 0
M  V30 38 H 4.497952 7.225600 -1.249569 0
M  V30 39 H 3.077441 6.105764 0.375378 0
M  V30 40 H 1.525966 -1.060856 3.357757 0
M  V30 41 H -1.612595 -1.521611 3.985911 0
M  V30 42 H -2.232618 -3.924057 3.815789 0
M  V30 43 H -2.855769 -6.349289 3.639459 0
M  V30 44 H -0.327100 -6.349818 -0.567308 0
M  V30 END ATOM
M  V30 BEGIN BOND
M  V30 1 1 1 2
M  V30 2 1 2 3
M  V30 3 2 3 4
M  V30 4 1 4 5
M  V30 5 1 5 6
M  V30 6 1 6 7
M  V30 7 2 7 8
M  V30 8 1 7 9
M  V30 9 2 9 10
M  V30 10 1 10 11
M  V30 11 2 11 12
M  V30 12 1 12 13
M  V30 13 2 13 14
M  V30 14 2 5 15
M  V30 15 1 15 16
M  V30 16 1 15 17
M  V30 17 2 17 18
M  V30 18 1 18 19
M  V30 19 1 19 20
M  V30 20 2 20 21
M  V30 21 1 20 22
M  V30 22 1 22 23
M  V30 23 2 23 24
M  V30 24 1 24 25
M  V30 25 2 25 26
M  V30 26 1 26 27
M  V30 27 3 27 28
M  V30 28 1 26 29
M  V30 29 2 29 30
M  V30 30 1 18 3
M  V30 31 1 30 23
M  V30 32 1 14 9
M  V30 33 1 1 31
M  V30 34 1 1 32
M  V30 35 1 1 33
M  V30 36 1 4 34
M  V30 37 1 6 35
M  V30 38 1 10 36
M  V30 39 1 11 37
M  V30 40 1 13 38
M  V30 41 1 14 39
M  V30 42 1 17 40
M  V30 43 1 19 41
M  V30 44 1 22 42
M  V30 45 1 24 43
M  V30 46 1 29 44
M  V30 END BOND
M  V30 END CTAB
M  END
>  <Dataset>  (206) 
ChEMBL_Kinases

>  <Ligand_Instance>  (206) 
nan

>  <PDB_ID>  (206) 
nan

>  <Standardized_SMILES>  (206) 
COc1cc(NC(=O)c2ccncc2)c(Cl)cc1NC(=O)Nc1cnc(C#N)cn1

>  <Name>  (206) 
nan

>  <Pocket>  (206) 
nan

>  <ATP_Site>  (206) 
nan

>  <Peripheral>  (206) 
nan

>  <Num_H_Atoms_ProtBoundConf>  (206) 
nan

>  <Num_Resolved_Atoms>  (206) 
nan

>  <Num_Not_Resolved_Atoms>  (206) 
nan

$$$$
CHEMBL211865
     RDKit          3D

  0  0  0  0  0  0  0  0  0  0999 V3000
M  V30 BEGIN CTAB
M  V30 COUNTS 51 55 0 0 0
M  V30 BEGIN ATOM
M  V30 1 N -0.901675 -2.846658 3.751353 0
M  V30 2 C -0.883066 -3.120471 2.321069 0 CFG=2
M  V30 3 C -0.327883 -1.876972 1.669679 0
M  V30 4 O -0.228684 -1.973890 0.262894 0
M  V30 5 C 0.278909 -0.835104 -0.394119 0
M  V30 6 C 0.417285 -0.839021 -1.773761 0
M  V30 7 N 0.894057 0.209522 -2.477295 0
M  V30 8 C 1.272485 1.356089 -1.837719 0
M  V30 9 C 1.151657 1.404322 -0.464614 0
M  V30 10 C 1.551504 2.636109 0.231583 0
M  V30 11 C 1.340482 3.790399 -0.528480 0
M  V30 12 C 1.650305 5.070185 -0.052215 0
M  V30 13 C 2.182723 5.140554 1.224216 0
M  V30 14 C 2.498453 6.398787 1.722458 0
M  V30 15 N 3.015907 6.447261 2.970195 0
M  V30 16 C 3.226920 5.344010 3.719296 0
M  V30 17 C 2.929541 4.073463 3.268364 0
M  V30 18 C 2.400015 4.014717 1.993401 0
M  V30 19 C 2.083861 2.762301 1.495933 0
M  V30 20 C 0.660474 0.329644 0.283817 0
M  V30 21 C -2.324071 -3.344578 1.880852 0
M  V30 22 C -2.425348 -3.640607 0.418984 0
M  V30 23 C -2.854941 -2.596573 -0.439526 0
M  V30 24 S -2.841438 -3.341316 -2.096901 0
M  V30 25 C -2.272443 -4.964843 -1.528151 0
M  V30 26 C -2.027207 -6.093630 -2.281546 0
M  V30 27 C -1.598313 -7.237777 -1.646980 0
M  V30 28 C -1.460017 -7.113977 -0.283723 0
M  V30 29 C -1.700213 -5.998096 0.478266 0
M  V30 30 C -2.128874 -4.852168 -0.150031 0
M  V30 31 H -1.768149 -2.345409 4.033686 0
M  V30 32 H -0.079151 -2.290535 4.071061 0
M  V30 33 H -0.220642 -3.961258 2.049976 0
M  V30 34 H -0.999192 -1.033889 1.950333 0
M  V30 35 H 0.674608 -1.655897 2.109074 0
M  V30 36 H 0.148177 -1.693954 -2.380098 0
M  V30 37 H 1.646476 2.160664 -2.448905 0
M  V30 38 H 0.925723 3.833857 -1.542852 0
M  V30 39 H 1.495483 5.969815 -0.620232 0
M  V30 40 H 2.341669 7.304106 1.147647 0
M  V30 41 H 3.650633 5.464847 4.724586 0
M  V30 42 H 3.095642 3.189592 3.862924 0
M  V30 43 H 2.214267 1.812008 2.016961 0
M  V30 44 H 0.561077 0.354984 1.358041 0
M  V30 45 H -2.768013 -4.188634 2.478970 0
M  V30 46 H -2.892883 -2.455882 2.136429 0
M  V30 47 H -3.125319 -1.612985 -0.203651 0
M  V30 48 H -2.180296 -6.035952 -3.331911 0
M  V30 49 H -1.394275 -8.139791 -2.181936 0
M  V30 50 H -1.117202 -8.028393 0.231263 0
M  V30 51 H -1.541332 -6.075683 1.525993 0
M  V30 END ATOM
M  V30 BEGIN BOND
M  V30 1 1 1 2
M  V30 2 1 2 3
M  V30 3 1 3 4
M  V30 4 1 4 5
M  V30 5 2 5 6
M  V30 6 1 6 7
M  V30 7 2 7 8
M  V30 8 1 8 9
M  V30 9 1 9 10
M  V30 10 2 10 11
M  V30 11 1 11 12
M  V30 12 2 12 13
M  V30 13 1 13 14
M  V30 14 2 14 15
M  V30 15 1 15 16
M  V30 16 2 16 17
M  V30 17 1 17 18
M  V30 18 2 18 19
M  V30 19 2 9 20
M  V30 20 1 2 21
M  V30 21 1 21 22
M  V30 22 2 22 23
M  V30 23 1 23 24
M  V30 24 1 24 25
M  V30 25 2 25 26
M  V30 26 1 26 27
M  V30 27 2 27 28
M  V30 28 1 28 29
M  V30 29 2 29 30
M  V30 30 1 20 5
M  V30 31 1 30 22
M  V30 32 1 19 10
M  V30 33 1 30 25
M  V30 34 1 18 13
M  V30 35 1 1 31
M  V30 36 1 1 32
M  V30 37 1 2 33 CFG=1
M  V30 38 1 3 34
M  V30 39 1 3 35
M  V30 40 1 6 36
M  V30 41 1 8 37
M  V30 42 1 11 38
M  V30 43 1 12 39
M  V30 44 1 14 40
M  V30 45 1 16 41
M  V30 46 1 17 42
M  V30 47 1 19 43
M  V30 48 1 20 44
M  V30 49 1 21 45
M  V30 50 1 21 46
M  V30 51 1 23 47
M  V30 52 1 26 48
M  V30 53 1 27 49
M  V30 54 1 28 50
M  V30 55 1 29 51
M  V30 END BOND
M  V30 END CTAB
M  END
>  <Dataset>  (207) 
ChEMBL_Kinases

>  <Ligand_Instance>  (207) 
nan

>  <PDB_ID>  (207) 
nan

>  <Standardized_SMILES>  (207) 
N[C@H](COc1cncc(-c2ccc3cnccc3c2)c1)Cc1csc2ccccc12

>  <Name>  (207) 
nan

>  <Pocket>  (207) 
nan

>  <ATP_Site>  (207) 
nan

>  <Peripheral>  (207) 
nan

>  <Num_H_Atoms_ProtBoundConf>  (207) 
nan

>  <Num_Resolved_Atoms>  (207) 
nan

>  <Num_Not_Resolved_Atoms>  (207) 
nan

$$$$
CHEMBL211845
     RDKit          3D

  0  0  0  0  0  0  0  0  0  0999 V3000
M  V30 BEGIN CTAB
M  V30 COUNTS 78 82 0 0 0
M  V30 BEGIN ATOM
M  V30 1 C 2.318773 -6.752146 1.788845 0
M  V30 2 O 1.391332 -5.833423 1.267565 0
M  V30 3 C 1.683828 -4.472744 1.264997 0
M  V30 4 C 0.749734 -3.602981 0.745455 0
M  V30 5 C 1.088511 -2.269504 0.768184 0
M  V30 6 C 2.296138 -1.775146 1.276955 0
M  V30 7 N 2.425600 -0.352950 1.204875 0
M  V30 8 C 2.927940 0.634997 0.306914 0
M  V30 9 O 2.814521 1.840424 0.711583 0
M  V30 10 O 3.489391 0.265610 -0.906370 0
M  V30 11 C 3.983682 1.261208 -1.777085 0
M  V30 12 C 5.306556 1.586723 -1.659313 0
M  V30 13 C 6.155777 0.896499 -0.640517 0
M  V30 14 C 5.822339 2.554857 -2.493994 0
M  V30 15 C 5.044898 3.213615 -3.452291 0
M  V30 16 C 3.716990 2.837141 -3.518428 0
M  V30 17 C 3.163543 1.872652 -2.701158 0
M  V30 18 C 1.727711 1.511017 -2.815755 0
M  V30 19 C 1.813445 -0.032739 2.451166 0
M  V30 20 C 2.446487 0.160937 3.654480 0
M  V30 21 C 1.825995 0.452663 4.833855 0
M  V30 22 N 0.493491 0.543413 4.745144 0
M  V30 23 C -0.218254 0.371190 3.618654 0
M  V30 24 N -1.634300 0.481984 3.687416 0
M  V30 25 C -2.578720 0.322092 2.650953 0
M  V30 26 C -3.935283 0.366911 2.894874 0
M  V30 27 C -4.913970 0.218110 1.961179 0
M  V30 28 C -4.561444 0.001720 0.643769 0
M  V30 29 N -5.497614 -0.169987 -0.406122 0
M  V30 30 C -5.645176 0.676101 -1.592351 0
M  V30 31 C -7.030614 0.567044 -2.169225 0
M  V30 32 N -7.274847 -0.717206 -2.784260 0
M  V30 33 C -6.710337 -0.794350 -4.124609 0
M  V30 34 C -6.529333 -1.709922 -2.002571 0
M  V30 35 C -6.525098 -1.210212 -0.573770 0
M  V30 36 C -3.207116 -0.057547 0.314375 0
M  V30 37 F -2.846433 -0.272834 -0.977352 0
M  V30 38 C -2.279273 0.103567 1.321790 0
M  V30 39 N 0.475104 0.088337 2.507799 0
M  V30 40 C 3.221031 -2.662220 1.793344 0
M  V30 41 O 4.391546 -2.139903 2.279727 0
M  V30 42 C 5.464371 -2.810362 2.848174 0
M  V30 43 C 2.869532 -3.994192 1.764848 0
M  V30 44 H 2.728282 -6.388786 2.746678 0
M  V30 45 H 3.165952 -6.924434 1.072764 0
M  V30 46 H 1.889626 -7.757395 1.964553 0
M  V30 47 H -0.180740 -3.970399 0.353592 0
M  V30 48 H 0.337924 -1.609405 0.352023 0
M  V30 49 H 6.087126 1.396043 0.348442 0
M  V30 50 H 7.215902 1.049459 -0.972443 0
M  V30 51 H 5.989893 -0.182848 -0.627504 0
M  V30 52 H 6.876248 2.786311 -2.369534 0
M  V30 53 H 5.490131 3.956867 -4.072822 0
M  V30 54 H 3.088728 3.317762 -4.242040 0
M  V30 55 H 1.457583 0.681926 -2.138755 0
M  V30 56 H 1.046547 2.381027 -2.721658 0
M  V30 57 H 1.578097 1.145616 -3.867042 0
M  V30 58 H 3.540612 0.071440 3.647379 0
M  V30 59 H 2.354876 0.595324 5.748926 0
M  V30 60 H -2.049208 0.714650 4.623794 0
M  V30 61 H -4.286337 0.535103 3.913974 0
M  V30 62 H -5.958495 0.267232 2.220144 0
M  V30 63 H -4.907072 0.301693 -2.333502 0
M  V30 64 H -5.431025 1.727805 -1.415378 0
M  V30 65 H -7.113038 1.329500 -2.970863 0
M  V30 66 H -7.829396 0.784531 -1.445139 0
M  V30 67 H -7.010328 -1.789092 -4.517809 0
M  V30 68 H -5.589830 -0.823774 -4.030105 0
M  V30 69 H -7.075112 0.044118 -4.728625 0
M  V30 70 H -5.474886 -1.774933 -2.375608 0
M  V30 71 H -7.022992 -2.682387 -2.024814 0
M  V30 72 H -7.524146 -0.866476 -0.281825 0
M  V30 73 H -6.170816 -2.074928 0.030264 0
M  V30 74 H -1.270891 0.049004 0.997168 0
M  V30 75 H 6.406517 -2.526785 2.336399 0
M  V30 76 H 5.481024 -2.546322 3.925842 0
M  V30 77 H 5.365648 -3.899061 2.793007 0
M  V30 78 H 3.607995 -4.667297 2.170686 0
M  V30 END ATOM
M  V30 BEGIN BOND
M  V30 1 1 1 2
M  V30 2 1 2 3
M  V30 3 2 3 4
M  V30 4 1 4 5
M  V30 5 2 5 6
M  V30 6 1 6 7
M  V30 7 1 7 8
M  V30 8 2 8 9
M  V30 9 1 8 10
M  V30 10 1 10 11
M  V30 11 2 11 12
M  V30 12 1 12 13
M  V30 13 1 12 14
M  V30 14 2 14 15
M  V30 15 1 15 16
M  V30 16 2 16 17
M  V30 17 1 17 18
M  V30 18 1 7 19
M  V30 19 2 19 20
M  V30 20 1 20 21
M  V30 21 2 21 22
M  V30 22 1 22 23
M  V30 23 1 23 24
M  V30 24 1 24 25
M  V30 25 2 25 26
M  V30 26 1 26 27
M  V30 27 2 27 28
M  V30 28 1 28 29
M  V30 29 1 29 30
M  V30 30 1 30 31
M  V30 31 1 31 32
M  V30 32 1 32 33
M  V30 33 1 32 34
M  V30 34 1 34 35
M  V30 35 1 28 36
M  V30 36 1 36 37
M  V30 37 2 36 38
M  V30 38 2 23 39
M  V30 39 1 6 40
M  V30 40 1 40 41
M  V30 41 1 41 42
M  V30 42 2 40 43
M  V30 43 1 43 3
M  V30 44 1 17 11
M  V30 45 1 39 19
M  V30 46 1 38 25
M  V30 47 1 35 29
M  V30 48 1 1 44
M  V30 49 1 1 45
M  V30 50 1 1 46
M  V30 51 1 4 47
M  V30 52 1 5 48
M  V30 53 1 13 49
M  V30 54 1 13 50
M  V30 55 1 13 51
M  V30 56 1 14 52
M  V30 57 1 15 53
M  V30 58 1 16 54
M  V30 59 1 18 55
M  V30 60 1 18 56
M  V30 61 1 18 57
M  V30 62 1 20 58
M  V30 63 1 21 59
M  V30 64 1 24 60
M  V30 65 1 26 61
M  V30 66 1 27 62
M  V30 67 1 30 63
M  V30 68 1 30 64
M  V30 69 1 31 65
M  V30 70 1 31 66
M  V30 71 1 33 67
M  V30 72 1 33 68
M  V30 73 1 33 69
M  V30 74 1 34 70
M  V30 75 1 34 71
M  V30 76 1 35 72
M  V30 77 1 35 73
M  V30 78 1 38 74
M  V30 79 1 42 75
M  V30 80 1 42 76
M  V30 81 1 42 77
M  V30 82 1 43 78
M  V30 END BOND
M  V30 END CTAB
M  END
>  <Dataset>  (208) 
ChEMBL_Kinases

>  <Ligand_Instance>  (208) 
nan

>  <PDB_ID>  (208) 
nan

>  <Standardized_SMILES>  (208) 
COc1ccc(N(C(=O)Oc2c(C)cccc2C)c2ccnc(Nc3ccc(N4CCN(C)CC4)c(F)c3)n2)c(OC)c1

>  <Name>  (208) 
nan

>  <Pocket>  (208) 
nan

>  <ATP_Site>  (208) 
nan

>  <Peripheral>  (208) 
nan

>  <Num_H_Atoms_ProtBoundConf>  (208) 
nan

>  <Num_Resolved_Atoms>  (208) 
nan

>  <Num_Not_Resolved_Atoms>  (208) 
nan

$$$$
CHEMBL211827
     RDKit          3D

  0  0  0  0  0  0  0  0  0  0999 V3000
M  V30 BEGIN CTAB
M  V30 COUNTS 51 55 0 0 0
M  V30 BEGIN ATOM
M  V30 1 N -0.916683 -2.520075 3.838932 0
M  V30 2 C -0.855209 -2.905963 2.432186 0 CFG=2
M  V30 3 C -0.272931 -1.713657 1.711076 0
M  V30 4 O -0.133809 -1.914072 0.316320 0
M  V30 5 C 0.385577 -0.849394 -0.415781 0
M  V30 6 C 0.558880 -0.963667 -1.792817 0
M  V30 7 N 1.059373 0.058628 -2.515979 0
M  V30 8 C 1.417118 1.242293 -1.943583 0
M  V30 9 C 1.268297 1.417544 -0.575980 0
M  V30 10 C 1.618456 2.651724 0.117940 0
M  V30 11 C 1.437942 3.798578 -0.651661 0
M  V30 12 C 1.729706 5.021519 -0.108143 0
M  V30 13 C 2.194267 5.120807 1.178475 0
M  V30 14 C 2.505767 6.335904 1.778922 0
M  V30 15 N 2.968107 6.443164 3.055272 0
M  V30 16 C 3.137427 5.302900 3.788291 0
M  V30 17 C 2.825373 4.101529 3.183890 0
M  V30 18 C 2.358071 3.950557 1.905680 0
M  V30 19 C 2.082827 2.698009 1.415066 0
M  V30 20 C 0.754601 0.355962 0.137771 0
M  V30 21 C -2.290624 -3.151116 2.015949 0
M  V30 22 C -2.448017 -3.558827 0.616183 0
M  V30 23 N -2.861970 -2.785945 -0.429420 0
M  V30 24 N -2.869979 -3.504998 -1.530018 0
M  V30 25 C -2.473798 -4.771877 -1.304755 0
M  V30 26 C -2.339802 -5.842803 -2.162449 0
M  V30 27 C -1.898683 -7.028421 -1.567386 0
M  V30 28 C -1.627844 -7.081115 -0.214447 0
M  V30 29 C -1.772820 -5.989358 0.616263 0
M  V30 30 C -2.210697 -4.794927 0.049361 0
M  V30 31 H -1.267354 -3.314201 4.428551 0
M  V30 32 H 0.055036 -2.233338 4.135671 0
M  V30 33 H -0.190502 -3.754874 2.345725 0
M  V30 34 H -0.891483 -0.825896 1.951667 0
M  V30 35 H 0.725322 -1.494361 2.165072 0
M  V30 36 H 0.284933 -1.890081 -2.283400 0
M  V30 37 H 1.813034 2.052062 -2.514161 0
M  V30 38 H 1.075267 3.794670 -1.673590 0
M  V30 39 H 1.603293 5.954235 -0.678469 0
M  V30 40 H 2.381634 7.264793 1.217962 0
M  V30 41 H 3.505605 5.401878 4.801243 0
M  V30 42 H 2.978399 3.215060 3.816797 0
M  V30 43 H 2.204675 1.785217 1.966189 0
M  V30 44 H 0.621461 0.445892 1.199980 0
M  V30 45 H -2.809505 -3.812975 2.725790 0
M  V30 46 H -2.794876 -2.145447 2.136495 0
M  V30 47 H -3.170771 -3.022662 -2.406176 0
M  V30 48 H -2.571932 -5.717012 -3.201069 0
M  V30 49 H -1.780555 -7.895954 -2.212721 0
M  V30 50 H -1.293492 -8.012989 0.190608 0
M  V30 51 H -1.559406 -6.043627 1.667340 0
M  V30 END ATOM
M  V30 BEGIN BOND
M  V30 1 1 1 2
M  V30 2 1 2 3
M  V30 3 1 3 4
M  V30 4 1 4 5
M  V30 5 2 5 6
M  V30 6 1 6 7
M  V30 7 2 7 8
M  V30 8 1 8 9
M  V30 9 1 9 10
M  V30 10 2 10 11
M  V30 11 1 11 12
M  V30 12 2 12 13
M  V30 13 1 13 14
M  V30 14 2 14 15
M  V30 15 1 15 16
M  V30 16 2 16 17
M  V30 17 1 17 18
M  V30 18 2 18 19
M  V30 19 2 9 20
M  V30 20 1 2 21
M  V30 21 1 21 22
M  V30 22 2 22 23
M  V30 23 1 23 24
M  V30 24 1 24 25
M  V30 25 2 25 26
M  V30 26 1 26 27
M  V30 27 2 27 28
M  V30 28 1 28 29
M  V30 29 2 29 30
M  V30 30 1 20 5
M  V30 31 1 30 22
M  V30 32 1 19 10
M  V30 33 1 30 25
M  V30 34 1 18 13
M  V30 35 1 1 31
M  V30 36 1 1 32
M  V30 37 1 2 33 CFG=1
M  V30 38 1 3 34
M  V30 39 1 3 35
M  V30 40 1 6 36
M  V30 41 1 8 37
M  V30 42 1 11 38
M  V30 43 1 12 39
M  V30 44 1 14 40
M  V30 45 1 16 41
M  V30 46 1 17 42
M  V30 47 1 19 43
M  V30 48 1 20 44
M  V30 49 1 21 45
M  V30 50 1 21 46
M  V30 51 1 24 47
M  V30 52 1 26 48
M  V30 53 1 27 49
M  V30 54 1 28 50
M  V30 55 1 29 51
M  V30 END BOND
M  V30 END CTAB
M  END
>  <Dataset>  (209) 
ChEMBL_Kinases

>  <Ligand_Instance>  (209) 
nan

>  <PDB_ID>  (209) 
nan

>  <Standardized_SMILES>  (209) 
N[C@H](COc1cncc(-c2ccc3cnccc3c2)c1)Cc1n[nH]c2ccccc12

>  <Name>  (209) 
nan

>  <Pocket>  (209) 
nan

>  <ATP_Site>  (209) 
nan

>  <Peripheral>  (209) 
nan

>  <Num_H_Atoms_ProtBoundConf>  (209) 
nan

>  <Num_Resolved_Atoms>  (209) 
nan

>  <Num_Not_Resolved_Atoms>  (209) 
nan

$$$$
CHEMBL211795
     RDKit          3D

  0  0  0  0  0  0  0  0  0  0999 V3000
M  V30 BEGIN CTAB
M  V30 COUNTS 65 69 0 0 0
M  V30 BEGIN ATOM
M  V30 1 C 2.302082 0.026067 5.208630 0
M  V30 2 N 2.567654 -1.203614 4.473090 0
M  V30 3 C 2.698899 -2.323499 5.402105 0
M  V30 4 C 1.412012 -1.505853 3.609080 0
M  V30 5 C 1.379440 -0.435009 2.547093 0
M  V30 6 N 2.559067 -0.464999 1.777468 0
M  V30 7 C 2.762997 -1.578472 0.910472 0
M  V30 8 C 2.502025 -1.262215 -0.564536 0
M  V30 9 N 1.706933 -0.038121 -0.520380 0
M  V30 10 C 0.319606 0.080130 -0.804357 0
M  V30 11 N -0.352565 1.226031 -0.712798 0
M  V30 12 C -1.695376 1.299254 -0.965921 0
M  V30 13 C -2.272920 2.625037 -0.811336 0
M  V30 14 C -3.173190 2.592984 0.259888 0
M  V30 15 C -3.833043 3.765812 0.641504 0
M  V30 16 C -3.605402 4.966482 -0.029210 0
M  V30 17 C -2.717071 4.965375 -1.072987 0
M  V30 18 C -2.058527 3.822699 -1.465387 0
M  V30 19 Cl -0.901469 3.648302 -2.775948 0
M  V30 20 C -2.373297 0.166815 -1.327166 0
M  V30 21 C -1.639362 -1.021826 -1.415027 0
M  V30 22 N -0.300140 -1.062557 -1.154621 0
M  V30 23 N -2.260740 -2.248947 -1.763307 0
M  V30 24 C -1.485505 -3.428193 -1.838460 0
M  V30 25 C -0.874862 -3.855567 -3.022298 0
M  V30 26 Cl -1.122506 -2.863571 -4.416336 0
M  V30 27 C -0.113364 -5.026953 -3.031593 0
M  V30 28 C 0.029672 -5.754429 -1.859479 0
M  V30 29 C -0.558161 -5.361483 -0.676391 0
M  V30 30 C -1.312946 -4.195625 -0.682161 0
M  V30 31 Cl -2.060170 -3.687883 0.819396 0
M  V30 32 C -3.651408 -2.318589 -2.033856 0
M  V30 33 O -4.270617 -3.364698 -2.347621 0
M  V30 34 N -4.348402 -1.088113 -1.927969 0
M  V30 35 C -3.798824 0.238984 -1.647411 0
M  V30 36 C 2.556408 1.099678 -0.111197 0
M  V30 37 C 3.060770 0.784715 1.286006 0
M  V30 38 H 1.208697 0.196560 5.173288 0
M  V30 39 H 2.662048 -0.139933 6.251512 0
M  V30 40 H 2.787599 0.863573 4.700628 0
M  V30 41 H 3.386819 -2.007088 6.200751 0
M  V30 42 H 1.694203 -2.552295 5.819810 0
M  V30 43 H 3.096447 -3.182457 4.823132 0
M  V30 44 H 0.474310 -1.474864 4.205024 0
M  V30 45 H 1.554121 -2.491889 3.130390 0
M  V30 46 H 1.321337 0.580497 3.028225 0
M  V30 47 H 0.425473 -0.573054 1.995592 0
M  V30 48 H 3.788329 -1.949115 1.039547 0
M  V30 49 H 2.062290 -2.387135 1.185963 0
M  V30 50 H 1.849262 -2.042868 -1.004842 0
M  V30 51 H 3.466164 -1.122614 -1.104731 0
M  V30 52 H -3.512496 1.826366 0.941181 0
M  V30 53 H -4.557259 3.890787 1.455961 0
M  V30 54 H -4.091597 5.897875 0.231902 0
M  V30 55 H -2.467328 5.845532 -1.663690 0
M  V30 56 H 0.347267 -5.330205 -3.971632 0
M  V30 57 H 0.631745 -6.645659 -1.938231 0
M  V30 58 H -0.437686 -5.937302 0.235717 0
M  V30 59 H -5.394226 -1.079306 -2.058662 0
M  V30 60 H -4.393661 0.610576 -0.797584 0
M  V30 61 H -3.983180 0.851750 -2.563736 0
M  V30 62 H 2.052437 2.056672 -0.183988 0
M  V30 63 H 3.421795 1.084807 -0.797825 0
M  V30 64 H 4.160432 0.791280 1.367222 0
M  V30 65 H 2.687898 1.593549 1.946888 0
M  V30 END ATOM
M  V30 BEGIN BOND
M  V30 1 1 1 2
M  V30 2 1 2 3
M  V30 3 1 2 4
M  V30 4 1 4 5
M  V30 5 1 5 6
M  V30 6 1 6 7
M  V30 7 1 7 8
M  V30 8 1 8 9
M  V30 9 1 9 10
M  V30 10 2 10 11
M  V30 11 1 11 12
M  V30 12 1 12 13
M  V30 13 2 13 14
M  V30 14 1 14 15
M  V30 15 2 15 16
M  V30 16 1 16 17
M  V30 17 2 17 18
M  V30 18 1 18 19
M  V30 19 2 12 20
M  V30 20 1 20 21
M  V30 21 2 21 22
M  V30 22 1 21 23
M  V30 23 1 23 24
M  V30 24 2 24 25
M  V30 25 1 25 26
M  V30 26 1 25 27
M  V30 27 2 27 28
M  V30 28 1 28 29
M  V30 29 2 29 30
M  V30 30 1 30 31
M  V30 31 1 23 32
M  V30 32 2 32 33
M  V30 33 1 32 34
M  V30 34 1 34 35
M  V30 35 1 9 36
M  V30 36 1 36 37
M  V30 37 1 37 6
M  V30 38 1 22 10
M  V30 39 1 30 24
M  V30 40 1 18 13
M  V30 41 1 35 20
M  V30 42 1 1 38
M  V30 43 1 1 39
M  V30 44 1 1 40
M  V30 45 1 3 41
M  V30 46 1 3 42
M  V30 47 1 3 43
M  V30 48 1 4 44
M  V30 49 1 4 45
M  V30 50 1 5 46
M  V30 51 1 5 47
M  V30 52 1 7 48
M  V30 53 1 7 49
M  V30 54 1 8 50
M  V30 55 1 8 51
M  V30 56 1 14 52
M  V30 57 1 15 53
M  V30 58 1 16 54
M  V30 59 1 17 55
M  V30 60 1 27 56
M  V30 61 1 28 57
M  V30 62 1 29 58
M  V30 63 1 34 59
M  V30 64 1 35 60
M  V30 65 1 35 61
M  V30 66 1 36 62
M  V30 67 1 36 63
M  V30 68 1 37 64
M  V30 69 1 37 65
M  V30 END BOND
M  V30 END CTAB
M  END
>  <Dataset>  (210) 
ChEMBL_Kinases

>  <Ligand_Instance>  (210) 
nan

>  <PDB_ID>  (210) 
nan

>  <Standardized_SMILES>  (210) 
CN(C)CCN1CCN(c2nc(-c3ccccc3Cl)c3c(n2)N(c2c(Cl)cccc2Cl)C(=O)NC3)CC1

>  <Name>  (210) 
nan

>  <Pocket>  (210) 
nan

>  <ATP_Site>  (210) 
nan

>  <Peripheral>  (210) 
nan

>  <Num_H_Atoms_ProtBoundConf>  (210) 
nan

>  <Num_Resolved_Atoms>  (210) 
nan

>  <Num_Not_Resolved_Atoms>  (210) 
nan

$$$$
CHEMBL211774
     RDKit          3D

  0  0  0  0  0  0  0  0  0  0999 V3000
M  V30 BEGIN CTAB
M  V30 COUNTS 73 78 0 0 0
M  V30 BEGIN ATOM
M  V30 1 C 4.214618 -0.428935 3.235603 0
M  V30 2 C 3.689107 -0.879497 1.873342 0
M  V30 3 C 2.499892 -1.808610 2.031121 0
M  V30 4 C 4.759137 -1.633732 1.173557 0
M  V30 5 C 4.405182 -2.170718 -0.156572 0
M  V30 6 C 4.550542 -1.578104 -1.392170 0
M  V30 7 C 4.195901 -2.153399 -2.590190 0
M  V30 8 C 3.654048 -3.419672 -2.545243 0
M  V30 9 C 3.525823 -3.976765 -1.291399 0
M  V30 10 N 3.868633 -3.423871 -0.118342 0
M  V30 11 C 3.237649 0.316823 1.088979 0
M  V30 12 C 4.358583 1.294361 0.886253 0
M  V30 13 O 5.540248 1.307444 0.396612 0
M  V30 14 N 4.001341 2.595121 1.389445 0
M  V30 15 C 2.660246 2.481294 1.916519 0
M  V30 16 C 1.822668 3.428849 2.519697 0
M  V30 17 C 0.552818 3.125525 2.961184 0
M  V30 18 C 0.105966 1.812755 2.788776 0
M  V30 19 C -1.220677 1.527240 3.260084 0
M  V30 20 C -1.822804 2.131867 4.337663 0
M  V30 21 N -3.093324 1.798722 4.715960 0
M  V30 22 C -3.749881 0.839855 3.984059 0
M  V30 23 C -3.191891 0.179682 2.867315 0
M  V30 24 O -4.170978 -0.657345 2.477254 0
M  V30 25 C -4.373572 -1.572188 1.497450 0
M  V30 26 C -4.399180 -1.141382 0.068360 0 CFG=1
M  V30 27 N -3.242108 -0.507642 -0.449370 0
M  V30 28 C -4.805756 -2.330204 -0.753487 0
M  V30 29 C -4.875662 -2.148156 -2.188608 0
M  V30 30 C -6.045928 -1.860644 -2.856690 0
M  V30 31 N -5.803759 -1.721286 -4.180525 0
M  V30 32 C -4.498693 -1.919458 -4.339907 0
M  V30 33 C -3.788886 -1.891107 -5.503754 0
M  V30 34 C -2.438740 -2.133239 -5.481432 0
M  V30 35 C -1.789776 -2.406179 -4.288042 0
M  V30 36 C -2.493235 -2.437726 -3.103680 0
M  V30 37 C -3.870844 -2.189517 -3.131455 0
M  V30 38 C -1.912634 0.572646 2.555232 0
M  V30 39 C 0.954099 0.907957 2.192945 0
M  V30 40 C 2.234533 1.159721 1.733250 0
M  V30 41 H 3.986984 -1.252041 3.944891 0
M  V30 42 H 3.822282 0.554747 3.543112 0
M  V30 43 H 5.317483 -0.362207 3.143643 0
M  V30 44 H 1.993159 -1.670980 3.007113 0
M  V30 45 H 1.826935 -1.776563 1.159245 0
M  V30 46 H 2.854596 -2.887919 2.048899 0
M  V30 47 H 5.155754 -2.470599 1.782403 0
M  V30 48 H 5.674304 -0.981405 1.013439 0
M  V30 49 H 4.973488 -0.596847 -1.412818 0
M  V30 50 H 4.344618 -1.618501 -3.509084 0
M  V30 51 H 3.350635 -3.937808 -3.444537 0
M  V30 52 H 3.091553 -4.984557 -1.286392 0
M  V30 53 H 2.816357 -0.042045 0.136894 0
M  V30 54 H 4.491657 3.527348 1.439653 0
M  V30 55 H 2.155426 4.445449 2.658636 0
M  V30 56 H -0.047075 3.875564 3.412615 0
M  V30 57 H -1.194005 2.866066 4.821447 0
M  V30 58 H -4.726912 0.773743 4.499613 0
M  V30 59 H -3.576362 -2.381961 1.630301 0
M  V30 60 H -5.311877 -2.150258 1.757829 0
M  V30 61 H -5.251821 -0.395165 -0.071519 0
M  V30 62 H -3.161509 0.453732 0.006406 0
M  V30 63 H -3.313471 -0.318603 -1.487275 0
M  V30 64 H -5.759271 -2.707192 -0.299384 0
M  V30 65 H -4.076567 -3.166409 -0.538741 0
M  V30 66 H -7.056725 -1.746061 -2.448532 0
M  V30 67 H -6.525382 -1.499579 -4.914615 0
M  V30 68 H -4.145539 -1.695778 -6.499211 0
M  V30 69 H -1.745172 -2.145954 -6.315238 0
M  V30 70 H -0.738828 -2.616857 -4.111044 0
M  V30 71 H -2.135297 -2.633295 -2.102462 0
M  V30 72 H -1.594026 -0.000681 1.705642 0
M  V30 73 H 0.502635 -0.053496 2.112405 0
M  V30 END ATOM
M  V30 BEGIN BOND
M  V30 1 1 1 2
M  V30 2 1 2 3
M  V30 3 1 2 4
M  V30 4 1 4 5
M  V30 5 2 5 6
M  V30 6 1 6 7
M  V30 7 2 7 8
M  V30 8 1 8 9
M  V30 9 2 9 10
M  V30 10 1 2 11
M  V30 11 1 11 12
M  V30 12 2 12 13
M  V30 13 1 12 14
M  V30 14 1 14 15
M  V30 15 2 15 16
M  V30 16 1 16 17
M  V30 17 2 17 18
M  V30 18 1 18 19
M  V30 19 2 19 20
M  V30 20 1 20 21
M  V30 21 2 21 22
M  V30 22 1 22 23
M  V30 23 1 23 24
M  V30 24 1 24 25
M  V30 25 1 25 26
M  V30 26 1 26 27
M  V30 27 1 26 28
M  V30 28 1 28 29
M  V30 29 2 29 30
M  V30 30 1 30 31
M  V30 31 1 31 32
M  V30 32 2 32 33
M  V30 33 1 33 34
M  V30 34 2 34 35
M  V30 35 1 35 36
M  V30 36 2 36 37
M  V30 37 2 23 38
M  V30 38 1 18 39
M  V30 39 2 39 40
M  V30 40 1 10 5
M  V30 41 1 40 11
M  V30 42 1 40 15
M  V30 43 1 38 19
M  V30 44 1 37 29
M  V30 45 1 37 32
M  V30 46 1 1 41
M  V30 47 1 1 42
M  V30 48 1 1 43
M  V30 49 1 3 44
M  V30 50 1 3 45
M  V30 51 1 3 46
M  V30 52 1 4 47
M  V30 53 1 4 48
M  V30 54 1 6 49
M  V30 55 1 7 50
M  V30 56 1 8 51
M  V30 57 1 9 52
M  V30 58 1 11 53
M  V30 59 1 14 54
M  V30 60 1 16 55
M  V30 61 1 17 56
M  V30 62 1 20 57
M  V30 63 1 22 58
M  V30 64 1 25 59
M  V30 65 1 25 60
M  V30 66 1 26 61 CFG=1
M  V30 67 1 27 62
M  V30 68 1 27 63
M  V30 69 1 28 64
M  V30 70 1 28 65
M  V30 71 1 30 66
M  V30 72 1 31 67
M  V30 73 1 33 68
M  V30 74 1 34 69
M  V30 75 1 35 70
M  V30 76 1 36 71
M  V30 77 1 38 72
M  V30 78 1 39 73
M  V30 END BOND
M  V30 END CTAB
M  END
>  <Dataset>  (211) 
ChEMBL_Kinases

>  <Ligand_Instance>  (211) 
nan

>  <PDB_ID>  (211) 
nan

>  <Standardized_SMILES>  (211) 
CC(C)(Cc1ccccn1)C1C(=O)Nc2ccc(-c3cncc(OC[C@@H](N)Cc4c[nH]c5ccccc45)c3)cc21

>  <Name>  (211) 
nan

>  <Pocket>  (211) 
nan

>  <ATP_Site>  (211) 
nan

>  <Peripheral>  (211) 
nan

>  <Num_H_Atoms_ProtBoundConf>  (211) 
nan

>  <Num_Resolved_Atoms>  (211) 
nan

>  <Num_Not_Resolved_Atoms>  (211) 
nan

$$$$
CHEMBL211741
     RDKit          3D

  0  0  0  0  0  0  0  0  0  0999 V3000
M  V30 BEGIN CTAB
M  V30 COUNTS 57 59 0 0 0
M  V30 BEGIN ATOM
M  V30 1 C 0.734126 -3.455706 1.949555 0
M  V30 2 C 1.609751 -2.688003 2.873670 0
M  V30 3 C 2.388196 -3.374520 3.788926 0
M  V30 4 C 3.247793 -2.843347 4.705516 0
M  V30 5 C 3.348157 -1.446634 4.716182 0
M  V30 6 C 2.576681 -0.719369 3.806011 0
M  V30 7 C 1.717590 -1.315866 2.894109 0
M  V30 8 N 0.925592 -0.628113 1.951896 0
M  V30 9 C 0.875977 0.762656 1.695965 0
M  V30 10 O 1.581113 1.590159 2.315009 0
M  V30 11 N 0.106230 1.516770 0.777699 0
M  V30 12 C 0.492804 2.897039 0.948594 0
M  V30 13 C 1.547753 3.373222 0.169491 0
M  V30 14 C 2.029218 4.682075 0.218592 0
M  V30 15 C 1.381887 5.493182 1.106349 0
M  V30 16 F 1.844695 6.778257 1.165871 0
M  V30 17 C 0.334531 5.095485 1.906826 0
M  V30 18 C -0.122864 3.797532 1.839543 0
M  V30 19 C -0.912064 1.238204 -0.207433 0
M  V30 20 C -1.448539 2.266192 -0.965430 0
M  V30 21 C -2.417295 1.856443 -1.845772 0
M  V30 22 N -2.814728 0.580305 -1.968256 0
M  V30 23 C -2.276205 -0.397652 -1.219291 0
M  V30 24 N -2.600128 -1.781459 -1.227182 0
M  V30 25 C -1.916551 -2.577924 -2.226105 0 CFG=1
M  V30 26 C -0.401973 -2.510184 -2.041189 0
M  V30 27 C -2.388894 -4.014680 -2.170160 0
M  V30 28 C -2.167198 -4.634133 -0.821974 0
M  V30 29 C -1.751341 -4.862708 -3.231967 0
M  V30 30 O -3.761445 -3.979955 -2.416977 0
M  V30 31 N -1.298305 -0.063188 -0.313842 0
M  V30 32 H 0.583002 -4.470179 2.369748 0
M  V30 33 H 1.058295 -3.430236 0.900190 0
M  V30 34 H -0.281430 -2.979568 1.967424 0
M  V30 35 H 2.317341 -4.459439 3.787906 0
M  V30 36 H 3.830065 -3.412932 5.395039 0
M  V30 37 H 3.999340 -0.894065 5.402519 0
M  V30 38 H 2.674613 0.350553 3.839357 0
M  V30 39 H 0.258304 -1.106863 1.312582 0
M  V30 40 H 2.015674 2.682884 -0.510829 0
M  V30 41 H 2.848178 4.928714 -0.430328 0
M  V30 42 H -0.162479 5.758792 2.600903 0
M  V30 43 H -0.930990 3.360517 2.408114 0
M  V30 44 H -1.078934 3.259669 -0.809309 0
M  V30 45 H -2.872226 2.617531 -2.466055 0
M  V30 46 H -3.295719 -1.864141 -0.453607 0
M  V30 47 H -2.147238 -2.134270 -3.211171 0
M  V30 48 H -0.055499 -3.197941 -1.245492 0
M  V30 49 H -0.060314 -1.482636 -1.906815 0
M  V30 50 H 0.036728 -2.866906 -3.000650 0
M  V30 51 H -1.082184 -4.869660 -0.704660 0
M  V30 52 H -2.698374 -5.615105 -0.814552 0
M  V30 53 H -2.477068 -3.975637 0.011802 0
M  V30 54 H -2.498247 -5.609904 -3.567384 0
M  V30 55 H -0.901477 -5.451576 -2.834175 0
M  V30 56 H -1.489415 -4.274407 -4.147113 0
M  V30 57 H -3.992491 -4.011030 -3.376575 0
M  V30 END ATOM
M  V30 BEGIN BOND
M  V30 1 1 1 2
M  V30 2 2 2 3
M  V30 3 1 3 4
M  V30 4 2 4 5
M  V30 5 1 5 6
M  V30 6 2 6 7
M  V30 7 1 7 8
M  V30 8 1 8 9
M  V30 9 2 9 10
M  V30 10 1 9 11
M  V30 11 1 11 12
M  V30 12 2 12 13
M  V30 13 1 13 14
M  V30 14 2 14 15
M  V30 15 1 15 16
M  V30 16 1 15 17
M  V30 17 2 17 18
M  V30 18 1 11 19
M  V30 19 2 19 20
M  V30 20 1 20 21
M  V30 21 2 21 22
M  V30 22 1 22 23
M  V30 23 1 23 24
M  V30 24 1 24 25
M  V30 25 1 25 26
M  V30 26 1 25 27
M  V30 27 1 27 28
M  V30 28 1 27 29
M  V30 29 1 27 30
M  V30 30 2 23 31
M  V30 31 1 7 2
M  V30 32 1 18 12
M  V30 33 1 31 19
M  V30 34 1 1 32
M  V30 35 1 1 33
M  V30 36 1 1 34
M  V30 37 1 3 35
M  V30 38 1 4 36
M  V30 39 1 5 37
M  V30 40 1 6 38
M  V30 41 1 8 39
M  V30 42 1 13 40
M  V30 43 1 14 41
M  V30 44 1 17 42
M  V30 45 1 18 43
M  V30 46 1 20 44
M  V30 47 1 21 45
M  V30 48 1 24 46
M  V30 49 1 25 47 CFG=3
M  V30 50 1 26 48
M  V30 51 1 26 49
M  V30 52 1 26 50
M  V30 53 1 28 51
M  V30 54 1 28 52
M  V30 55 1 28 53
M  V30 56 1 29 54
M  V30 57 1 29 55
M  V30 58 1 29 56
M  V30 59 1 30 57
M  V30 END BOND
M  V30 END CTAB
M  END
>  <Dataset>  (212) 
ChEMBL_Kinases

>  <Ligand_Instance>  (212) 
nan

>  <PDB_ID>  (212) 
nan

>  <Standardized_SMILES>  (212) 
Cc1ccccc1NC(=O)N(c1ccc(F)cc1)c1ccnc(N[C@@H](C)C(C)(C)O)n1

>  <Name>  (212) 
nan

>  <Pocket>  (212) 
nan

>  <ATP_Site>  (212) 
nan

>  <Peripheral>  (212) 
nan

>  <Num_H_Atoms_ProtBoundConf>  (212) 
nan

>  <Num_Resolved_Atoms>  (212) 
nan

>  <Num_Not_Resolved_Atoms>  (212) 
nan

$$$$
CHEMBL211735
     RDKit          3D

  0  0  0  0  0  0  0  0  0  0999 V3000
M  V30 BEGIN CTAB
M  V30 COUNTS 38 41 0 0 0
M  V30 BEGIN ATOM
M  V30 1 C -0.589722 -3.269765 1.544395 0
M  V30 2 C 0.202289 -3.752324 2.734985 0
M  V30 3 N 0.944011 -2.662433 3.332878 0
M  V30 4 C 1.939677 -1.841114 2.739969 0
M  V30 5 N 3.229803 -2.220276 2.795844 0
M  V30 6 N 3.994023 -1.332655 2.195296 0
M  V30 7 C 3.207005 -0.365018 1.741663 0
M  V30 8 C 3.426879 0.811406 1.044907 0
M  V30 9 C 2.355541 1.636913 0.708321 0
M  V30 10 C 1.074423 1.251291 1.086986 0
M  V30 11 C -0.007929 2.156473 0.706968 0
M  V30 12 O -0.081860 3.406968 1.138454 0
M  V30 13 C -1.152928 3.983663 0.639460 0
M  V30 14 N -1.802743 3.086277 -0.143110 0
M  V30 15 C -1.097400 1.925334 -0.115200 0
M  V30 16 C -1.334600 0.631010 -0.773391 0
M  V30 17 C -2.413429 -0.218397 -0.617757 0
M  V30 18 C -2.436404 -1.398060 -1.341194 0
M  V30 19 C -1.393724 -1.704854 -2.196984 0
M  V30 20 C -0.302607 -0.865067 -2.366348 0
M  V30 21 C -0.287082 0.319777 -1.635102 0
M  V30 22 C 0.866880 0.074395 1.782478 0
M  V30 23 N 1.946202 -0.674416 2.074442 0
M  V30 24 H -1.153343 -2.351037 1.784880 0
M  V30 25 H -1.348418 -4.060068 1.285364 0
M  V30 26 H 0.038538 -3.130260 0.656819 0
M  V30 27 H -0.463807 -4.156768 3.513276 0
M  V30 28 H 0.933052 -4.518057 2.423575 0
M  V30 29 H 0.842606 -2.321763 4.316508 0
M  V30 30 H 4.408888 1.122840 0.745753 0
M  V30 31 H 2.514036 2.572432 0.156365 0
M  V30 32 H -1.583712 4.975497 0.731270 0
M  V30 33 H -3.128853 0.175835 0.084159 0
M  V30 34 H -3.298094 -2.002924 -1.170435 0
M  V30 35 H -1.512154 -2.644640 -2.709996 0
M  V30 36 H 0.474441 -1.172120 -3.053043 0
M  V30 37 H 0.592911 0.913453 -1.824276 0
M  V30 38 H -0.127676 -0.202681 2.064003 0
M  V30 END ATOM
M  V30 BEGIN BOND
M  V30 1 1 1 2
M  V30 2 1 2 3
M  V30 3 1 3 4
M  V30 4 2 4 5
M  V30 5 1 5 6
M  V30 6 2 6 7
M  V30 7 1 7 8
M  V30 8 2 8 9
M  V30 9 1 9 10
M  V30 10 1 10 11
M  V30 11 1 11 12
M  V30 12 1 12 13
M  V30 13 2 13 14
M  V30 14 1 14 15
M  V30 15 1 15 16
M  V30 16 2 16 17
M  V30 17 1 17 18
M  V30 18 2 18 19
M  V30 19 1 19 20
M  V30 20 2 20 21
M  V30 21 2 10 22
M  V30 22 1 22 23
M  V30 23 1 23 4
M  V30 24 1 23 7
M  V30 25 2 15 11
M  V30 26 1 21 16
M  V30 27 1 1 24
M  V30 28 1 1 25
M  V30 29 1 1 26
M  V30 30 1 2 27
M  V30 31 1 2 28
M  V30 32 1 3 29
M  V30 33 1 8 30
M  V30 34 1 9 31
M  V30 35 1 13 32
M  V30 36 1 17 33
M  V30 37 1 18 34
M  V30 38 1 19 35
M  V30 39 1 20 36
M  V30 40 1 21 37
M  V30 41 1 22 38
M  V30 END BOND
M  V30 END CTAB
M  END
>  <Dataset>  (213) 
ChEMBL_Kinases

>  <Ligand_Instance>  (213) 
nan

>  <PDB_ID>  (213) 
nan

>  <Standardized_SMILES>  (213) 
CCNc1nnc2ccc(-c3ocnc3-c3ccccc3)cn12

>  <Name>  (213) 
nan

>  <Pocket>  (213) 
nan

>  <ATP_Site>  (213) 
nan

>  <Peripheral>  (213) 
nan

>  <Num_H_Atoms_ProtBoundConf>  (213) 
nan

>  <Num_Resolved_Atoms>  (213) 
nan

>  <Num_Not_Resolved_Atoms>  (213) 
nan

$$$$
CHEMBL211690
     RDKit          3D

  0  0  0  0  0  0  0  0  0  0999 V3000
M  V30 BEGIN CTAB
M  V30 COUNTS 73 78 0 0 0
M  V30 BEGIN ATOM
M  V30 1 C 0.860053 -2.107564 -1.228417 0
M  V30 2 C 2.174453 -1.830955 -1.938113 0
M  V30 3 C 1.999482 -2.591893 -3.286252 0
M  V30 4 C 3.284320 -2.531885 -1.261974 0
M  V30 5 C 3.568705 -2.225428 0.127109 0
M  V30 6 C 2.867117 -2.954298 1.090875 0
M  V30 7 C 3.039071 -2.779907 2.448244 0
M  V30 8 C 3.951894 -1.836027 2.870053 0
M  V30 9 N 4.652448 -1.108293 1.968634 0
M  V30 10 C 4.457970 -1.306460 0.653093 0
M  V30 11 C 2.382627 -0.416379 -2.331686 0
M  V30 12 C 3.681436 -0.162217 -2.997528 0
M  V30 13 O 4.350512 -0.605033 -3.958289 0
M  V30 14 N 4.341738 0.922530 -2.307264 0
M  V30 15 C 3.450183 1.353906 -1.254946 0
M  V30 16 C 3.594349 2.380536 -0.310880 0
M  V30 17 C 2.617067 2.670210 0.619240 0
M  V30 18 C 1.459023 1.908999 0.604126 0
M  V30 19 C 0.476874 2.276382 1.612099 0
M  V30 20 C 0.290825 3.552660 2.086701 0
M  V30 21 N -0.656587 3.768760 3.033137 0
M  V30 22 C -1.406510 2.714388 3.495532 0
M  V30 23 C -1.268417 1.383355 3.052813 0
M  V30 24 O -2.181276 0.743678 3.770037 0
M  V30 25 C -2.683163 -0.487875 3.921450 0
M  V30 26 C -3.460285 -1.153378 2.818050 0 CFG=1
M  V30 27 N -4.651424 -0.346649 2.540231 0
M  V30 28 C -2.670791 -1.301960 1.582744 0
M  V30 29 C -3.389145 -1.997238 0.454744 0
M  V30 30 C -3.172525 -3.370246 0.273028 0
M  V30 31 N -3.921382 -3.825123 -0.764825 0
M  V30 32 C -4.612157 -2.791296 -1.257555 0
M  V30 33 C -5.519157 -2.567668 -2.279735 0
M  V30 34 C -6.072279 -1.342622 -2.560623 0
M  V30 35 C -5.709161 -0.244060 -1.777737 0
M  V30 36 C -4.810232 -0.423859 -0.750711 0
M  V30 37 C -4.294987 -1.679407 -0.524055 0
M  V30 38 C -0.277340 1.229333 2.080138 0
M  V30 39 C 1.319999 0.901035 -0.323609 0
M  V30 40 C 2.275364 0.591525 -1.258000 0
M  V30 41 H 0.006472 -1.540246 -1.642105 0
M  V30 42 H 0.907672 -1.928179 -0.139509 0
M  V30 43 H 0.603938 -3.185556 -1.448831 0
M  V30 44 H 1.913844 -3.677887 -3.092836 0
M  V30 45 H 1.015832 -2.243281 -3.663856 0
M  V30 46 H 2.808182 -2.308095 -3.953100 0
M  V30 47 H 4.202513 -2.376380 -1.892120 0
M  V30 48 H 3.091875 -3.634539 -1.373827 0
M  V30 49 H 2.121462 -3.727169 0.869107 0
M  V30 50 H 2.516771 -3.322089 3.212077 0
M  V30 51 H 4.202384 -1.580377 3.905673 0
M  V30 52 H 5.013117 -0.739853 -0.080849 0
M  V30 53 H 1.612126 -0.083071 -3.100024 0
M  V30 54 H 5.279152 1.402159 -2.437476 0
M  V30 55 H 4.504651 3.002591 -0.275872 0
M  V30 56 H 2.797353 3.487562 1.329690 0
M  V30 57 H 0.943664 4.261217 1.633427 0
M  V30 58 H -2.057046 3.214155 4.228035 0
M  V30 59 H -1.822311 -1.179808 4.242682 0
M  V30 60 H -3.339835 -0.534157 4.850031 0
M  V30 61 H -3.767363 -2.177526 3.153730 0
M  V30 62 H -4.445110 0.588060 2.174370 0
M  V30 63 H -5.304775 -0.911773 2.007597 0
M  V30 64 H -2.493614 -0.228410 1.213499 0
M  V30 65 H -1.691557 -1.766986 1.781587 0
M  V30 66 H -2.567740 -4.120723 0.753654 0
M  V30 67 H -4.054319 -4.746957 -1.216792 0
M  V30 68 H -5.811546 -3.427162 -2.902676 0
M  V30 69 H -6.775389 -1.182884 -3.357182 0
M  V30 70 H -6.114502 0.747578 -1.954217 0
M  V30 71 H -4.539228 0.439713 -0.162430 0
M  V30 72 H -0.256702 0.186118 1.833620 0
M  V30 73 H 0.402070 0.378755 -0.261829 0
M  V30 END ATOM
M  V30 BEGIN BOND
M  V30 1 1 1 2
M  V30 2 1 2 3
M  V30 3 1 2 4
M  V30 4 1 4 5
M  V30 5 2 5 6
M  V30 6 1 6 7
M  V30 7 2 7 8
M  V30 8 1 8 9
M  V30 9 2 9 10
M  V30 10 1 2 11
M  V30 11 1 11 12
M  V30 12 2 12 13
M  V30 13 1 12 14
M  V30 14 1 14 15
M  V30 15 2 15 16
M  V30 16 1 16 17
M  V30 17 2 17 18
M  V30 18 1 18 19
M  V30 19 2 19 20
M  V30 20 1 20 21
M  V30 21 2 21 22
M  V30 22 1 22 23
M  V30 23 1 23 24
M  V30 24 1 24 25
M  V30 25 1 25 26
M  V30 26 1 26 27
M  V30 27 1 26 28
M  V30 28 1 28 29
M  V30 29 2 29 30
M  V30 30 1 30 31
M  V30 31 1 31 32
M  V30 32 2 32 33
M  V30 33 1 33 34
M  V30 34 2 34 35
M  V30 35 1 35 36
M  V30 36 2 36 37
M  V30 37 2 23 38
M  V30 38 1 18 39
M  V30 39 2 39 40
M  V30 40 1 10 5
M  V30 41 1 40 11
M  V30 42 1 40 15
M  V30 43 1 38 19
M  V30 44 1 37 29
M  V30 45 1 37 32
M  V30 46 1 1 41
M  V30 47 1 1 42
M  V30 48 1 1 43
M  V30 49 1 3 44
M  V30 50 1 3 45
M  V30 51 1 3 46
M  V30 52 1 4 47
M  V30 53 1 4 48
M  V30 54 1 6 49
M  V30 55 1 7 50
M  V30 56 1 8 51
M  V30 57 1 10 52
M  V30 58 1 11 53
M  V30 59 1 14 54
M  V30 60 1 16 55
M  V30 61 1 17 56
M  V30 62 1 20 57
M  V30 63 1 22 58
M  V30 64 1 25 59
M  V30 65 1 25 60
M  V30 66 1 26 61 CFG=1
M  V30 67 1 27 62
M  V30 68 1 27 63
M  V30 69 1 28 64
M  V30 70 1 28 65
M  V30 71 1 30 66
M  V30 72 1 31 67
M  V30 73 1 33 68
M  V30 74 1 34 69
M  V30 75 1 35 70
M  V30 76 1 36 71
M  V30 77 1 38 72
M  V30 78 1 39 73
M  V30 END BOND
M  V30 END CTAB
M  END
>  <Dataset>  (214) 
ChEMBL_Kinases

>  <Ligand_Instance>  (214) 
nan

>  <PDB_ID>  (214) 
nan

>  <Standardized_SMILES>  (214) 
CC(C)(Cc1cccnc1)C1C(=O)Nc2ccc(-c3cncc(OC[C@@H](N)Cc4c[nH]c5ccccc45)c3)cc21

>  <Name>  (214) 
nan

>  <Pocket>  (214) 
nan

>  <ATP_Site>  (214) 
nan

>  <Peripheral>  (214) 
nan

>  <Num_H_Atoms_ProtBoundConf>  (214) 
nan

>  <Num_Resolved_Atoms>  (214) 
nan

>  <Num_Not_Resolved_Atoms>  (214) 
nan

$$$$
CHEMBL211679
     RDKit          3D

  0  0  0  0  0  0  0  0  0  0999 V3000
M  V30 BEGIN CTAB
M  V30 COUNTS 37 41 0 0 0
M  V30 BEGIN ATOM
M  V30 1 F 0.124887 -5.599045 3.245516 0
M  V30 2 C 0.819110 -4.660729 2.559851 0
M  V30 3 C 0.250885 -4.134549 1.418557 0
M  V30 4 C 0.873853 -3.175564 0.647942 0
M  V30 5 C 2.120452 -2.696398 1.001861 0
M  V30 6 C 2.995575 -1.727931 0.409298 0
M  V30 7 N 4.234619 -1.893934 -0.082816 0
M  V30 8 C 4.616035 -0.670485 -0.514573 0
M  V30 9 O 3.648597 0.195898 -0.292551 0
M  V30 10 C 2.611173 -0.411584 0.283339 0
M  V30 11 C 1.444298 0.401407 0.601169 0
M  V30 12 C 1.712195 1.367253 1.580112 0
M  V30 13 C 0.743844 2.246913 2.018901 0
M  V30 14 C -0.541203 2.167752 1.466748 0
M  V30 15 N -1.677929 2.864992 1.672082 0
M  V30 16 N -2.613362 2.355050 0.855801 0
M  V30 17 C -2.052885 1.346727 0.150606 0
M  V30 18 C -2.794923 0.546812 -0.859911 0
M  V30 19 C -4.240393 0.611363 -1.003338 0
M  V30 20 C -3.415110 1.462933 -1.954298 0
M  V30 21 N -0.764526 1.219003 0.520288 0
M  V30 22 C 0.166886 0.356353 0.083489 0
M  V30 23 C 2.690414 -3.236495 2.162739 0
M  V30 24 C 2.068413 -4.195678 2.934352 0
M  V30 25 H -0.714190 -4.418670 1.031579 0
M  V30 26 H 0.518493 -2.705435 -0.254419 0
M  V30 27 H 5.546803 -0.345038 -0.983103 0
M  V30 28 H 2.678765 1.510691 2.071330 0
M  V30 29 H 0.931442 2.998829 2.773569 0
M  V30 30 H -2.205139 -0.280419 -1.293191 0
M  V30 31 H -4.716375 -0.256637 -1.534262 0
M  V30 32 H -4.892213 1.115740 -0.267193 0
M  V30 33 H -3.285435 1.151734 -2.996470 0
M  V30 34 H -3.456518 2.538165 -1.775317 0
M  V30 35 H 0.034280 -0.396913 -0.650838 0
M  V30 36 H 3.670582 -2.973501 2.590289 0
M  V30 37 H 2.466249 -4.635030 3.825829 0
M  V30 END ATOM
M  V30 BEGIN BOND
M  V30 1 1 1 2
M  V30 2 2 2 3
M  V30 3 1 3 4
M  V30 4 2 4 5
M  V30 5 1 5 6
M  V30 6 1 6 7
M  V30 7 2 7 8
M  V30 8 1 8 9
M  V30 9 1 9 10
M  V30 10 1 10 11
M  V30 11 1 11 12
M  V30 12 2 12 13
M  V30 13 1 13 14
M  V30 14 2 14 15
M  V30 15 1 15 16
M  V30 16 2 16 17
M  V30 17 1 17 18
M  V30 18 1 18 19
M  V30 19 1 19 20
M  V30 20 1 17 21
M  V30 21 1 21 22
M  V30 22 1 5 23
M  V30 23 2 23 24
M  V30 24 1 24 2
M  V30 25 2 10 6
M  V30 26 2 22 11
M  V30 27 1 21 14
M  V30 28 1 20 18
M  V30 29 1 3 25
M  V30 30 1 4 26
M  V30 31 1 8 27
M  V30 32 1 12 28
M  V30 33 1 13 29
M  V30 34 1 18 30
M  V30 35 1 19 31
M  V30 36 1 19 32
M  V30 37 1 20 33
M  V30 38 1 20 34
M  V30 39 1 22 35
M  V30 40 1 23 36
M  V30 41 1 24 37
M  V30 END BOND
M  V30 END CTAB
M  END
>  <Dataset>  (215) 
ChEMBL_Kinases

>  <Ligand_Instance>  (215) 
nan

>  <PDB_ID>  (215) 
nan

>  <Standardized_SMILES>  (215) 
Fc1ccc(-c2ncoc2-c2ccc3nnc(C4CC4)n3c2)cc1

>  <Name>  (215) 
nan

>  <Pocket>  (215) 
nan

>  <ATP_Site>  (215) 
nan

>  <Peripheral>  (215) 
nan

>  <Num_H_Atoms_ProtBoundConf>  (215) 
nan

>  <Num_Resolved_Atoms>  (215) 
nan

>  <Num_Not_Resolved_Atoms>  (215) 
nan

$$$$
CHEMBL211678
     RDKit          3D

  0  0  0  0  0  0  0  0  0  0999 V3000
M  V30 BEGIN CTAB
M  V30 COUNTS 40 44 0 0 0
M  V30 BEGIN ATOM
M  V30 1 F -0.371514 -1.649599 6.839729 0
M  V30 2 C 0.392081 -1.732837 5.724368 0
M  V30 3 C 0.363285 -2.805570 4.857818 0
M  V30 4 C 1.180004 -2.810283 3.734889 0
M  V30 5 C 2.041693 -1.744024 3.455128 0
M  V30 6 C 2.780413 -1.992809 2.239155 0
M  V30 7 N 3.734296 -2.863183 1.822151 0
M  V30 8 C 4.034470 -2.589923 0.542773 0
M  V30 9 O 3.296806 -1.577770 0.153307 0
M  V30 10 C 2.514816 -1.179918 1.157660 0
M  V30 11 C 1.668047 -0.055142 0.788102 0
M  V30 12 C 1.743998 1.216196 1.315519 0
M  V30 13 C 0.947671 2.287142 0.976492 0
M  V30 14 C -0.019845 2.024057 0.000647 0
M  V30 15 N -0.924159 2.871772 -0.516939 0
M  V30 16 N -1.626609 2.161189 -1.412626 0
M  V30 17 C -1.146296 0.891720 -1.432965 0
M  V30 18 C -1.607954 -0.268914 -2.271863 0
M  V30 19 C -3.117378 -0.363363 -2.160352 0
M  V30 20 C -3.191610 0.535129 -3.375508 0
M  V30 21 C -1.802685 0.048038 -3.737445 0
M  V30 22 N -0.121026 0.794987 -0.534687 0
M  V30 23 C 0.671533 -0.217064 -0.177946 0
M  V30 24 C 2.057331 -0.680709 4.332043 0
M  V30 25 C 1.247920 -0.671903 5.448140 0
M  V30 26 H -0.318077 -3.602999 5.117283 0
M  V30 27 H 1.043775 -3.728878 3.145922 0
M  V30 28 H 4.787403 -3.246901 0.150512 0
M  V30 29 H 2.497929 1.403581 2.065993 0
M  V30 30 H 1.067692 3.256768 1.435002 0
M  V30 31 H -1.046886 -1.207534 -2.073700 0
M  V30 32 H -3.539067 0.095741 -1.230424 0
M  V30 33 H -3.556479 -1.346102 -2.400215 0
M  V30 34 H -3.144040 1.629708 -3.160124 0
M  V30 35 H -3.980310 0.246794 -4.098689 0
M  V30 36 H -1.834966 -0.924490 -4.291344 0
M  V30 37 H -1.145324 0.820637 -4.164680 0
M  V30 38 H 0.528469 -1.173224 -0.653391 0
M  V30 39 H 2.752871 0.078005 4.025967 0
M  V30 40 H 1.345202 0.223229 6.070125 0
M  V30 END ATOM
M  V30 BEGIN BOND
M  V30 1 1 1 2
M  V30 2 2 2 3
M  V30 3 1 3 4
M  V30 4 2 4 5
M  V30 5 1 5 6
M  V30 6 1 6 7
M  V30 7 2 7 8
M  V30 8 1 8 9
M  V30 9 1 9 10
M  V30 10 1 10 11
M  V30 11 1 11 12
M  V30 12 2 12 13
M  V30 13 1 13 14
M  V30 14 2 14 15
M  V30 15 1 15 16
M  V30 16 2 16 17
M  V30 17 1 17 18
M  V30 18 1 18 19
M  V30 19 1 19 20
M  V30 20 1 20 21
M  V30 21 1 17 22
M  V30 22 1 22 23
M  V30 23 1 5 24
M  V30 24 2 24 25
M  V30 25 1 25 2
M  V30 26 2 10 6
M  V30 27 2 23 11
M  V30 28 1 22 14
M  V30 29 1 21 18
M  V30 30 1 3 26
M  V30 31 1 4 27
M  V30 32 1 8 28
M  V30 33 1 12 29
M  V30 34 1 13 30
M  V30 35 1 18 31
M  V30 36 1 19 32
M  V30 37 1 19 33
M  V30 38 1 20 34
M  V30 39 1 20 35
M  V30 40 1 21 36
M  V30 41 1 21 37
M  V30 42 1 23 38
M  V30 43 1 24 39
M  V30 44 1 25 40
M  V30 END BOND
M  V30 END CTAB
M  END
>  <Dataset>  (216) 
ChEMBL_Kinases

>  <Ligand_Instance>  (216) 
nan

>  <PDB_ID>  (216) 
nan

>  <Standardized_SMILES>  (216) 
Fc1ccc(-c2ncoc2-c2ccc3nnc(C4CCC4)n3c2)cc1

>  <Name>  (216) 
nan

>  <Pocket>  (216) 
nan

>  <ATP_Site>  (216) 
nan

>  <Peripheral>  (216) 
nan

>  <Num_H_Atoms_ProtBoundConf>  (216) 
nan

>  <Num_Resolved_Atoms>  (216) 
nan

>  <Num_Not_Resolved_Atoms>  (216) 
nan

$$$$
CHEMBL211628
     RDKit          3D

  0  0  0  0  0  0  0  0  0  0999 V3000
M  V30 BEGIN CTAB
M  V30 COUNTS 40 44 0 0 0
M  V30 BEGIN ATOM
M  V30 1 C 0.941903 -4.447655 2.775310 0
M  V30 2 C 0.696616 -3.294190 1.779647 0
M  V30 3 C 1.820436 -2.358011 1.764505 0
M  V30 4 N 2.959050 -2.464777 2.516002 0
M  V30 5 N 3.781017 -1.472923 2.282492 0
M  V30 6 C 3.241801 -0.663686 1.375708 0
M  V30 7 C 3.669719 0.497201 0.786635 0
M  V30 8 C 2.909369 1.159579 -0.143851 0
M  V30 9 C 1.682454 0.580310 -0.449512 0
M  V30 10 C 0.836162 1.253701 -1.439079 0
M  V30 11 O 1.176913 1.467969 -2.696294 0
M  V30 12 C 0.234009 2.085445 -3.345931 0
M  V30 13 N -0.803681 2.303859 -2.487855 0
M  V30 14 C -0.445072 1.791411 -1.293931 0
M  V30 15 C -1.176622 1.752066 -0.030578 0
M  V30 16 C -2.366568 1.035131 -0.153633 0
M  V30 17 C -3.221803 0.866383 0.914333 0
M  V30 18 C -2.864771 1.433140 2.124416 0
M  V30 19 F -3.670140 1.299453 3.214734 0
M  V30 20 C -1.689598 2.143710 2.254379 0
M  V30 21 C -0.835097 2.311544 1.185053 0
M  V30 22 F 0.340144 2.978934 1.170427 0
M  V30 23 C 1.299060 -0.585872 0.169738 0
M  V30 24 N 2.055744 -1.223953 1.080381 0
M  V30 25 C -0.710685 -2.931745 1.678880 0
M  V30 26 C -0.079729 -3.719244 0.613304 0
M  V30 27 H 0.062307 -5.097089 2.824836 0
M  V30 28 H 1.881508 -4.980409 2.562743 0
M  V30 29 H 1.057648 -3.951677 3.761402 0
M  V30 30 H 4.619708 0.933120 1.032555 0
M  V30 31 H 3.263313 2.075227 -0.598606 0
M  V30 32 H 0.171413 2.416128 -4.377094 0
M  V30 33 H -2.731267 0.552667 -1.067650 0
M  V30 34 H -4.145591 0.323246 0.863557 0
M  V30 35 H -1.362752 2.609756 3.186629 0
M  V30 36 H 0.338248 -0.993499 -0.102445 0
M  V30 37 H -1.497119 -3.486819 2.280225 0
M  V30 38 H -1.100932 -1.896309 1.554093 0
M  V30 39 H -0.396879 -4.801350 0.496331 0
M  V30 40 H 0.263244 -3.349218 -0.356027 0
M  V30 END ATOM
M  V30 BEGIN BOND
M  V30 1 1 1 2
M  V30 2 1 2 3
M  V30 3 2 3 4
M  V30 4 1 4 5
M  V30 5 2 5 6
M  V30 6 1 6 7
M  V30 7 2 7 8
M  V30 8 1 8 9
M  V30 9 1 9 10
M  V30 10 1 10 11
M  V30 11 1 11 12
M  V30 12 2 12 13
M  V30 13 1 13 14
M  V30 14 1 14 15
M  V30 15 2 15 16
M  V30 16 1 16 17
M  V30 17 2 17 18
M  V30 18 1 18 19
M  V30 19 1 18 20
M  V30 20 2 20 21
M  V30 21 1 21 22
M  V30 22 2 9 23
M  V30 23 1 23 24
M  V30 24 1 2 25
M  V30 25 1 25 26
M  V30 26 1 26 2
M  V30 27 1 24 3
M  V30 28 1 24 6
M  V30 29 2 14 10
M  V30 30 1 21 15
M  V30 31 1 1 27
M  V30 32 1 1 28
M  V30 33 1 1 29
M  V30 34 1 7 30
M  V30 35 1 8 31
M  V30 36 1 12 32
M  V30 37 1 16 33
M  V30 38 1 17 34
M  V30 39 1 20 35
M  V30 40 1 23 36
M  V30 41 1 25 37
M  V30 42 1 25 38
M  V30 43 1 26 39
M  V30 44 1 26 40
M  V30 END BOND
M  V30 END CTAB
M  END
>  <Dataset>  (217) 
ChEMBL_Kinases

>  <Ligand_Instance>  (217) 
nan

>  <PDB_ID>  (217) 
nan

>  <Standardized_SMILES>  (217) 
CC1(c2nnc3ccc(-c4ocnc4-c4ccc(F)cc4F)cn23)CC1

>  <Name>  (217) 
nan

>  <Pocket>  (217) 
nan

>  <ATP_Site>  (217) 
nan

>  <Peripheral>  (217) 
nan

>  <Num_H_Atoms_ProtBoundConf>  (217) 
nan

>  <Num_Resolved_Atoms>  (217) 
nan

>  <Num_Not_Resolved_Atoms>  (217) 
nan

$$$$
CHEMBL211578
     RDKit          3D

  0  0  0  0  0  0  0  0  0  0999 V3000
M  V30 BEGIN CTAB
M  V30 COUNTS 46 48 0 0 0
M  V30 BEGIN ATOM
M  V30 1 C 3.943762 -6.873157 3.057927 0
M  V30 2 N 3.211185 -5.609993 2.878458 0
M  V30 3 C 3.658345 -4.817062 1.788294 0
M  V30 4 N 4.670715 -5.192716 0.984590 0
M  V30 5 C 5.091056 -4.444178 -0.043070 0
M  V30 6 C 4.518878 -3.237124 -0.351846 0
M  V30 7 C 3.487979 -2.865600 0.474853 0
M  V30 8 C 2.764286 -1.578701 0.264936 0
M  V30 9 C 2.942643 -0.586921 -0.687038 0
M  V30 10 C 2.100524 0.470669 -0.597360 0
M  V30 11 C 1.160827 0.529161 0.363484 0
M  V30 12 C 0.190540 1.622958 0.558772 0
M  V30 13 O 0.180148 2.622869 -0.197673 0
M  V30 14 N -0.708243 1.465884 1.637586 0
M  V30 15 C -1.654839 2.523131 1.832818 0 CFG=2
M  V30 16 C -1.696535 3.063026 3.247146 0
M  V30 17 O -2.626050 4.083178 3.376269 0
M  V30 18 C -3.048046 2.026921 1.514926 0
M  V30 19 C -3.271000 1.566928 0.153768 0
M  V30 20 C -3.881965 2.542151 -0.656315 0
M  V30 21 C -4.181457 2.366505 -1.979877 0
M  V30 22 C -3.897203 1.192697 -2.624049 0
M  V30 23 Cl -4.207267 0.798337 -4.294723 0
M  V30 24 C -3.299021 0.207006 -1.873520 0
M  V30 25 C -3.013155 0.418798 -0.546239 0
M  V30 26 Cl -2.281257 -0.850628 0.404409 0
M  V30 27 S 1.344446 -0.927596 1.285063 0
M  V30 28 N 3.095777 -3.626955 1.481927 0
M  V30 29 H 4.896553 -6.695169 3.599508 0
M  V30 30 H 4.094281 -7.337780 2.076678 0
M  V30 31 H 3.252632 -7.519554 3.658833 0
M  V30 32 H 2.420482 -5.250330 3.455000 0
M  V30 33 H 5.909431 -4.727698 -0.708016 0
M  V30 34 H 4.738946 -2.533167 -1.129068 0
M  V30 35 H 3.738073 -0.775945 -1.393420 0
M  V30 36 H 2.214927 1.280686 -1.340916 0
M  V30 37 H -0.787323 0.708234 2.332413 0
M  V30 38 H -1.400225 3.403683 1.181996 0
M  V30 39 H -0.712482 3.401751 3.600182 0
M  V30 40 H -2.024244 2.238853 3.943855 0
M  V30 41 H -3.130029 4.007248 4.244030 0
M  V30 42 H -3.232485 1.175484 2.246135 0
M  V30 43 H -3.822614 2.776312 1.839554 0
M  V30 44 H -4.175588 3.540975 -0.293978 0
M  V30 45 H -4.655635 3.127708 -2.599309 0
M  V30 46 H -3.031476 -0.757349 -2.279092 0
M  V30 END ATOM
M  V30 BEGIN BOND
M  V30 1 1 1 2
M  V30 2 1 2 3
M  V30 3 2 3 4
M  V30 4 1 4 5
M  V30 5 2 5 6
M  V30 6 1 6 7
M  V30 7 1 7 8
M  V30 8 2 8 9
M  V30 9 1 9 10
M  V30 10 2 10 11
M  V30 11 1 11 12
M  V30 12 2 12 13
M  V30 13 1 12 14
M  V30 14 1 14 15
M  V30 15 1 15 16
M  V30 16 1 16 17
M  V30 17 1 15 18
M  V30 18 1 18 19
M  V30 19 2 19 20
M  V30 20 1 20 21
M  V30 21 2 21 22
M  V30 22 1 22 23
M  V30 23 1 22 24
M  V30 24 2 24 25
M  V30 25 1 25 26
M  V30 26 1 11 27
M  V30 27 2 7 28
M  V30 28 1 28 3
M  V30 29 1 27 8
M  V30 30 1 25 19
M  V30 31 1 1 29
M  V30 32 1 1 30
M  V30 33 1 1 31
M  V30 34 1 2 32
M  V30 35 1 5 33
M  V30 36 1 6 34
M  V30 37 1 9 35
M  V30 38 1 10 36
M  V30 39 1 14 37
M  V30 40 1 15 38 CFG=3
M  V30 41 1 16 39
M  V30 42 1 16 40
M  V30 43 1 17 41
M  V30 44 1 18 42
M  V30 45 1 18 43
M  V30 46 1 20 44
M  V30 47 1 21 45
M  V30 48 1 24 46
M  V30 END BOND
M  V30 END CTAB
M  END
>  <Dataset>  (218) 
ChEMBL_Kinases

>  <Ligand_Instance>  (218) 
nan

>  <PDB_ID>  (218) 
nan

>  <Standardized_SMILES>  (218) 
CNc1nccc(-c2ccc(C(=O)N[C@H](CO)Cc3ccc(Cl)cc3Cl)s2)n1

>  <Name>  (218) 
nan

>  <Pocket>  (218) 
nan

>  <ATP_Site>  (218) 
nan

>  <Peripheral>  (218) 
nan

>  <Num_H_Atoms_ProtBoundConf>  (218) 
nan

>  <Num_Resolved_Atoms>  (218) 
nan

>  <Num_Not_Resolved_Atoms>  (218) 
nan

$$$$
CHEMBL211574
     RDKit          3D

  0  0  0  0  0  0  0  0  0  0999 V3000
M  V30 BEGIN CTAB
M  V30 COUNTS 45 47 0 0 0
M  V30 BEGIN ATOM
M  V30 1 C 1.758449 -5.427625 -1.714426 0
M  V30 2 C 2.879463 -5.287885 -2.725467 0
M  V30 3 N 4.124919 -5.044691 -2.006768 0
M  V30 4 C 4.273045 -3.904658 -1.172300 0
M  V30 5 N 5.439594 -3.696478 -0.506875 0
M  V30 6 C 5.539189 -2.597164 0.277754 0
M  V30 7 C 4.520184 -1.655574 0.452656 0
M  V30 8 C 3.365989 -1.927686 -0.249914 0
M  V30 9 C 2.237060 -0.970270 -0.111025 0
M  V30 10 C 1.037573 -0.940073 -0.633427 0
M  V30 11 C 0.155515 0.057815 -0.355162 0
M  V30 12 C 0.591806 1.018582 0.494440 0
M  V30 13 C 0.044256 2.275597 1.101167 0
M  V30 14 O 0.765267 2.929805 1.873035 0
M  V30 15 N -1.263015 2.526177 0.678234 0
M  V30 16 C -1.908759 3.701517 1.184825 0
M  V30 17 C -2.029962 3.696806 2.702087 0
M  V30 18 C -2.817456 2.538212 3.179948 0
M  V30 19 C -2.301306 1.403475 3.767231 0
M  V30 20 C -3.196764 0.434421 4.146047 0
M  V30 21 C -4.554265 0.490967 3.994135 0
M  V30 22 Cl -5.644356 -0.776866 4.496966 0
M  V30 23 C -5.027424 1.660054 3.394299 0
M  V30 24 C -4.178302 2.686695 2.984062 0
M  V30 25 Cl -4.934879 4.085221 2.249575 0
M  V30 26 S 2.338484 0.448615 0.897759 0
M  V30 27 N 3.246724 -3.011177 -1.032968 0
M  V30 28 H 2.141958 -5.939945 -0.785754 0
M  V30 29 H 0.952904 -6.095793 -2.129794 0
M  V30 30 H 1.386896 -4.421365 -1.473921 0
M  V30 31 H 2.654259 -4.385514 -3.335526 0
M  V30 32 H 2.951951 -6.196544 -3.350183 0
M  V30 33 H 4.905304 -5.709030 -2.105956 0
M  V30 34 H 6.469604 -2.405407 0.825153 0
M  V30 35 H 4.670493 -0.805083 1.093224 0
M  V30 36 H 0.750539 -1.747126 -1.311866 0
M  V30 37 H -0.852280 0.187414 -0.723015 0
M  V30 38 H -1.810949 1.927852 0.021945 0
M  V30 39 H -2.900282 3.876488 0.724554 0
M  V30 40 H -1.316456 4.635834 0.960733 0
M  V30 41 H -2.478128 4.666031 3.027932 0
M  V30 42 H -1.024514 3.683199 3.165888 0
M  V30 43 H -1.234072 1.352292 3.889429 0
M  V30 44 H -2.799960 -0.457630 4.608043 0
M  V30 45 H -6.099461 1.747510 3.253375 0
M  V30 END ATOM
M  V30 BEGIN BOND
M  V30 1 1 1 2
M  V30 2 1 2 3
M  V30 3 1 3 4
M  V30 4 2 4 5
M  V30 5 1 5 6
M  V30 6 2 6 7
M  V30 7 1 7 8
M  V30 8 1 8 9
M  V30 9 2 9 10
M  V30 10 1 10 11
M  V30 11 2 11 12
M  V30 12 1 12 13
M  V30 13 2 13 14
M  V30 14 1 13 15
M  V30 15 1 15 16
M  V30 16 1 16 17
M  V30 17 1 17 18
M  V30 18 2 18 19
M  V30 19 1 19 20
M  V30 20 2 20 21
M  V30 21 1 21 22
M  V30 22 1 21 23
M  V30 23 2 23 24
M  V30 24 1 24 25
M  V30 25 1 12 26
M  V30 26 2 8 27
M  V30 27 1 27 4
M  V30 28 1 26 9
M  V30 29 1 24 18
M  V30 30 1 1 28
M  V30 31 1 1 29
M  V30 32 1 1 30
M  V30 33 1 2 31
M  V30 34 1 2 32
M  V30 35 1 3 33
M  V30 36 1 6 34
M  V30 37 1 7 35
M  V30 38 1 10 36
M  V30 39 1 11 37
M  V30 40 1 15 38
M  V30 41 1 16 39
M  V30 42 1 16 40
M  V30 43 1 17 41
M  V30 44 1 17 42
M  V30 45 1 19 43
M  V30 46 1 20 44
M  V30 47 1 23 45
M  V30 END BOND
M  V30 END CTAB
M  END
>  <Dataset>  (219) 
ChEMBL_Kinases

>  <Ligand_Instance>  (219) 
nan

>  <PDB_ID>  (219) 
nan

>  <Standardized_SMILES>  (219) 
CCNc1nccc(-c2ccc(C(=O)NCCc3ccc(Cl)cc3Cl)s2)n1

>  <Name>  (219) 
nan

>  <Pocket>  (219) 
nan

>  <ATP_Site>  (219) 
nan

>  <Peripheral>  (219) 
nan

>  <Num_H_Atoms_ProtBoundConf>  (219) 
nan

>  <Num_Resolved_Atoms>  (219) 
nan

>  <Num_Not_Resolved_Atoms>  (219) 
nan

$$$$
CHEMBL211570
     RDKit          3D

  0  0  0  0  0  0  0  0  0  0999 V3000
M  V30 BEGIN CTAB
M  V30 COUNTS 48 50 0 0 0
M  V30 BEGIN ATOM
M  V30 1 C -1.659388 -4.420836 -0.656443 0
M  V30 2 C -0.235993 -3.912820 -0.523145 0
M  V30 3 C 0.072555 -3.880044 0.963079 0
M  V30 4 C 1.428161 -3.408095 1.314204 0
M  V30 5 N 1.656173 -2.040168 0.842956 0
M  V30 6 C 0.918399 -0.903104 1.232771 0
M  V30 7 O -0.037104 -0.950275 2.050740 0
M  V30 8 C 1.241606 0.419978 0.686774 0
M  V30 9 C 2.133852 0.876335 -0.162009 0
M  V30 10 C 2.216866 2.184918 -0.501849 0
M  V30 11 C 1.311574 3.003991 0.095183 0
M  V30 12 C 1.112175 4.505295 -0.045457 0
M  V30 13 C 1.901221 5.271871 -0.870860 0
M  V30 14 C 1.600014 6.616486 -0.893073 0
M  V30 15 N 0.600070 7.124872 -0.151932 0
M  V30 16 C -0.163262 6.362686 0.650809 0
M  V30 17 N -1.216203 6.921119 1.426465 0
M  V30 18 C -2.449485 6.895337 0.648664 0
M  V30 19 N 0.126256 5.029162 0.680626 0
M  V30 20 S 0.344611 1.882126 1.144289 0
M  V30 21 C -0.396498 -5.119488 1.588985 0
M  V30 22 C -1.655064 -5.182970 2.209027 0
M  V30 23 C -2.222643 -6.270058 2.838836 0
M  V30 24 C -1.463919 -7.421384 2.858623 0
M  V30 25 Cl -2.163280 -8.815253 3.652867 0
M  V30 26 C -0.215524 -7.458370 2.276516 0
M  V30 27 C 0.272799 -6.321513 1.667815 0
M  V30 28 Cl 1.839312 -6.441161 0.950110 0
M  V30 29 H -2.392636 -3.741318 -0.152458 0
M  V30 30 H -1.812326 -5.425536 -0.238552 0
M  V30 31 H -1.959298 -4.499579 -1.729803 0
M  V30 32 H -0.235942 -2.913283 -0.978993 0
M  V30 33 H 0.406246 -4.622673 -1.067391 0
M  V30 34 H -0.624367 -3.054066 1.326322 0
M  V30 35 H 1.519165 -3.393739 2.434488 0
M  V30 36 H 2.282566 -3.982529 0.976588 0
M  V30 37 H 2.432932 -1.831514 0.144873 0
M  V30 38 H 2.820300 0.122668 -0.587410 0
M  V30 39 H 2.921555 2.632710 -1.190216 0
M  V30 40 H 2.660588 4.712898 -1.398066 0
M  V30 41 H 2.246119 7.195657 -1.558936 0
M  V30 42 H -1.055420 7.279682 2.408929 0
M  V30 43 H -3.283421 7.176930 1.297078 0
M  V30 44 H -2.324916 7.559189 -0.239847 0
M  V30 45 H -2.642563 5.865033 0.302348 0
M  V30 46 H -2.250966 -4.257805 2.186608 0
M  V30 47 H -3.206411 -6.167412 3.273134 0
M  V30 48 H 0.345540 -8.371165 2.311460 0
M  V30 END ATOM
M  V30 BEGIN BOND
M  V30 1 1 1 2
M  V30 2 1 2 3
M  V30 3 1 3 4
M  V30 4 1 4 5
M  V30 5 1 5 6
M  V30 6 2 6 7
M  V30 7 1 6 8
M  V30 8 2 8 9
M  V30 9 1 9 10
M  V30 10 2 10 11
M  V30 11 1 11 12
M  V30 12 2 12 13
M  V30 13 1 13 14
M  V30 14 2 14 15
M  V30 15 1 15 16
M  V30 16 1 16 17
M  V30 17 1 17 18
M  V30 18 2 16 19
M  V30 19 1 11 20
M  V30 20 1 3 21
M  V30 21 2 21 22
M  V30 22 1 22 23
M  V30 23 2 23 24
M  V30 24 1 24 25
M  V30 25 1 24 26
M  V30 26 2 26 27
M  V30 27 1 27 28
M  V30 28 1 20 8
M  V30 29 1 27 21
M  V30 30 1 19 12
M  V30 31 1 1 29
M  V30 32 1 1 30
M  V30 33 1 1 31
M  V30 34 1 2 32
M  V30 35 1 2 33
M  V30 36 1 3 34
M  V30 37 1 4 35
M  V30 38 1 4 36
M  V30 39 1 5 37
M  V30 40 1 9 38
M  V30 41 1 10 39
M  V30 42 1 13 40
M  V30 43 1 14 41
M  V30 44 1 17 42
M  V30 45 1 18 43
M  V30 46 1 18 44
M  V30 47 1 18 45
M  V30 48 1 22 46
M  V30 49 1 23 47
M  V30 50 1 26 48
M  V30 END BOND
M  V30 END CTAB
M  END
>  <Dataset>  (220) 
ChEMBL_Kinases

>  <Ligand_Instance>  (220) 
nan

>  <PDB_ID>  (220) 
nan

>  <Standardized_SMILES>  (220) 
CCC(CNC(=O)c1ccc(-c2ccnc(NC)n2)s1)c1ccc(Cl)cc1Cl

>  <Name>  (220) 
nan

>  <Pocket>  (220) 
nan

>  <ATP_Site>  (220) 
nan

>  <Peripheral>  (220) 
nan

>  <Num_H_Atoms_ProtBoundConf>  (220) 
nan

>  <Num_Resolved_Atoms>  (220) 
nan

>  <Num_Not_Resolved_Atoms>  (220) 
nan

$$$$
CHEMBL211501
     RDKit          3D

  0  0  0  0  0  0  0  0  0  0999 V3000
M  V30 BEGIN CTAB
M  V30 COUNTS 79 80 0 0 0
M  V30 BEGIN ATOM
M  V30 1 C 1.816706 -9.339621 1.249820 0
M  V30 2 C 1.096208 -8.043965 0.927142 0
M  V30 3 C 0.582655 -8.068339 -0.512019 0
M  V30 4 C -0.146799 -6.814909 -0.862173 0
M  V30 5 C 0.697371 -5.557827 -0.750774 0
M  V30 6 C -0.221531 -4.434429 -1.129913 0
M  V30 7 C 0.336449 -3.063403 -1.108872 0 CFG=1
M  V30 8 C -0.825159 -2.205913 -1.526589 0
M  V30 9 O -1.895546 -1.770260 -2.014959 0
M  V30 10 O -1.298595 -1.056872 -1.437061 0
M  V30 11 C -1.806638 0.162558 -1.345419 0 CFG=2
M  V30 12 C -0.870446 1.295144 -1.691879 0
M  V30 13 C -2.273758 0.364356 0.122346 0 CFG=2
M  V30 14 N -2.746289 1.640107 0.377683 0
M  V30 15 C -3.418106 2.850358 0.655420 0
M  V30 16 O -4.638902 2.445641 0.796334 0
M  V30 17 C -2.976867 4.223970 0.773966 0
M  V30 18 C -1.654105 4.509166 0.610076 0
M  V30 19 C -1.346051 5.844182 0.741579 0
M  V30 20 C -2.306649 6.798977 1.014281 0
M  V30 21 C -3.637300 6.432768 1.169925 0
M  V30 22 N -4.700856 7.329556 1.442798 0
M  V30 23 C -4.677632 8.731230 1.601027 0
M  V30 24 O -3.579139 9.338672 1.502237 0
M  V30 25 C -4.012732 5.085617 1.047750 0
M  V30 26 O -5.323598 4.686638 1.196890 0
M  V30 27 C -1.211139 -0.149174 0.988491 0
M  V30 28 O -0.727192 0.646631 1.824752 0
M  V30 29 O -0.972487 -1.455176 0.669180 0
M  V30 30 C -0.021855 -2.297320 1.259170 0 CFG=1
M  V30 31 C -0.506412 -3.471819 1.993883 0
M  V30 32 C 0.961141 -2.548164 0.143826 0 CFG=2
M  V30 33 O 1.516533 -1.275119 -0.215095 0
M  V30 34 C 2.870159 -1.028061 -0.253760 0
M  V30 35 O 3.568289 -2.015442 0.040938 0
M  V30 36 C 3.088885 0.398064 -0.653792 0
M  V30 37 C 4.548902 0.681655 -0.818437 0
M  V30 38 C 4.834713 2.124124 -1.230506 0
M  V30 39 C 5.387982 0.380295 0.387929 0
M  V30 40 H 1.102562 -10.062933 1.719740 0
M  V30 41 H 2.192888 -9.835969 0.334971 0
M  V30 42 H 2.653827 -9.173907 1.963551 0
M  V30 43 H 0.258858 -7.917242 1.629375 0
M  V30 44 H 1.876199 -7.228862 1.050795 0
M  V30 45 H -0.122669 -8.927602 -0.604807 0
M  V30 46 H 1.409042 -8.263945 -1.234125 0
M  V30 47 H -0.594486 -6.931479 -1.888503 0
M  V30 48 H -1.048230 -6.749595 -0.177581 0
M  V30 49 H 1.463566 -5.657866 -1.557379 0
M  V30 50 H 1.107587 -5.526915 0.251493 0
M  V30 51 H -1.240375 -4.545899 -0.669241 0
M  V30 52 H -0.450757 -4.636761 -2.225944 0
M  V30 53 H 1.084215 -2.963162 -1.917239 0
M  V30 54 H -2.733632 0.249275 -1.989350 0
M  V30 55 H -0.315082 1.063098 -2.615139 0
M  V30 56 H -0.186953 1.429964 -0.835235 0
M  V30 57 H -1.510370 2.197253 -1.847598 0
M  V30 58 H -3.138082 -0.415150 0.147553 0
M  V30 59 H -1.745243 2.026855 0.242917 0
M  V30 60 H -0.862847 3.818813 0.396399 0
M  V30 61 H -0.313740 6.176587 0.625645 0
M  V30 62 H -1.999298 7.818244 1.107119 0
M  V30 63 H -5.682661 6.997371 1.556602 0
M  V30 64 H -5.496197 9.376540 1.799163 0
M  V30 65 H -5.950488 4.749186 0.413454 0
M  V30 66 H 0.500443 -1.658148 2.003293 0
M  V30 67 H -1.378717 -4.005397 1.655355 0
M  V30 68 H 0.338790 -4.211678 2.073998 0
M  V30 69 H -0.708715 -3.209121 3.075877 0
M  V30 70 H 1.783425 -3.195140 0.408122 0
M  V30 71 H 2.480443 0.687701 -1.503934 0
M  V30 72 H 2.741713 1.035159 0.217015 0
M  V30 73 H 4.892685 0.068479 -1.704285 0
M  V30 74 H 4.401641 2.865445 -0.568840 0
M  V30 75 H 5.942127 2.236419 -1.172644 0
M  V30 76 H 4.532756 2.206805 -2.299523 0
M  V30 77 H 5.994526 -0.548340 0.154245 0
M  V30 78 H 6.109271 1.189573 0.607088 0
M  V30 79 H 4.822223 0.122166 1.295206 0
M  V30 END ATOM
M  V30 BEGIN BOND
M  V30 1 1 1 2
M  V30 2 1 2 3
M  V30 3 1 3 4
M  V30 4 1 4 5
M  V30 5 1 5 6
M  V30 6 1 6 7
M  V30 7 1 7 8
M  V30 8 2 8 9
M  V30 9 1 8 10
M  V30 10 1 10 11
M  V30 11 1 11 12
M  V30 12 1 11 13
M  V30 13 1 13 14
M  V30 14 1 14 15
M  V30 15 2 15 16
M  V30 16 1 15 17
M  V30 17 2 17 18
M  V30 18 1 18 19
M  V30 19 2 19 20
M  V30 20 1 20 21
M  V30 21 1 21 22
M  V30 22 1 22 23
M  V30 23 2 23 24
M  V30 24 2 21 25
M  V30 25 1 25 26
M  V30 26 1 13 27
M  V30 27 2 27 28
M  V30 28 1 27 29
M  V30 29 1 29 30
M  V30 30 1 30 31
M  V30 31 1 30 32
M  V30 32 1 32 33
M  V30 33 1 33 34
M  V30 34 2 34 35
M  V30 35 1 34 36
M  V30 36 1 36 37
M  V30 37 1 37 38
M  V30 38 1 37 39
M  V30 39 1 32 7
M  V30 40 1 25 17
M  V30 41 1 1 40
M  V30 42 1 1 41
M  V30 43 1 1 42
M  V30 44 1 2 43
M  V30 45 1 2 44
M  V30 46 1 3 45
M  V30 47 1 3 46
M  V30 48 1 4 47
M  V30 49 1 4 48
M  V30 50 1 5 49
M  V30 51 1 5 50
M  V30 52 1 6 51
M  V30 53 1 6 52
M  V30 54 1 7 53 CFG=3
M  V30 55 1 11 54 CFG=3
M  V30 56 1 12 55
M  V30 57 1 12 56
M  V30 58 1 12 57
M  V30 59 1 13 58 CFG=3
M  V30 60 1 14 59
M  V30 61 1 18 60
M  V30 62 1 19 61
M  V30 63 1 20 62
M  V30 64 1 22 63
M  V30 65 1 23 64
M  V30 66 1 26 65
M  V30 67 1 30 66 CFG=1
M  V30 68 1 31 67
M  V30 69 1 31 68
M  V30 70 1 31 69
M  V30 71 1 32 70 CFG=1
M  V30 72 1 36 71
M  V30 73 1 36 72
M  V30 74 1 37 73
M  V30 75 1 38 74
M  V30 76 1 38 75
M  V30 77 1 38 76
M  V30 78 1 39 77
M  V30 79 1 39 78
M  V30 80 1 39 79
M  V30 END BOND
M  V30 END CTAB
M  END
>  <Dataset>  (221) 
ChEMBL_Kinases

>  <Ligand_Instance>  (221) 
nan

>  <PDB_ID>  (221) 
nan

>  <Standardized_SMILES>  (221) 
CCCCCC[C@H]1C(=O)O[C@H](C)[C@H](NC(=O)c2cccc(NC=O)c2O)C(=O)O[C@@H](C)[C@@H]1OC(=O)CC(C)C

>  <Name>  (221) 
ANTIMYCIN A

>  <Pocket>  (221) 
nan

>  <ATP_Site>  (221) 
nan

>  <Peripheral>  (221) 
nan

>  <Num_H_Atoms_ProtBoundConf>  (221) 
nan

>  <Num_Resolved_Atoms>  (221) 
nan

>  <Num_Not_Resolved_Atoms>  (221) 
nan

$$$$
CHEMBL209638
     RDKit          3D

  0  0  0  0  0  0  0  0  0  0999 V3000
M  V30 BEGIN CTAB
M  V30 COUNTS 54 57 0 0 0
M  V30 BEGIN ATOM
M  V30 1 N -0.888860 -0.936237 2.032939 0
M  V30 2 C -1.445072 -2.151994 1.452326 0 CFG=2
M  V30 3 C -0.324569 -2.836749 0.740122 0
M  V30 4 O 0.317024 -2.228262 -0.267870 0
M  V30 5 C 1.066936 -1.165529 -0.528969 0
M  V30 6 C 1.317681 -1.271571 -1.915078 0
M  V30 7 N 2.068834 -0.364796 -2.616824 0
M  V30 8 C 2.608932 0.700948 -1.955413 0
M  V30 9 C 2.409800 0.866119 -0.625088 0
M  V30 10 C 2.914797 1.942316 0.220023 0
M  V30 11 C 4.146799 2.528903 -0.080337 0
M  V30 12 C 4.671156 3.561868 0.697864 0
M  V30 13 C 3.934212 4.000903 1.791272 0
M  V30 14 C 4.391149 5.018144 2.604382 0
M  V30 15 N 3.689745 5.453452 3.664796 0
M  V30 16 C 2.503762 4.899581 3.966550 0
M  V30 17 C 1.961142 3.862917 3.199059 0
M  V30 18 C 2.715753 3.440302 2.110984 0
M  V30 19 C 2.212735 2.407024 1.315433 0
M  V30 20 C 1.649943 -0.068502 0.037528 0
M  V30 21 C -2.606441 -1.728709 0.655902 0
M  V30 22 C -3.444305 -2.681254 -0.081923 0
M  V30 23 C -4.113015 -3.757407 0.718835 0
M  V30 24 C -3.529075 -5.128898 0.523761 0
M  V30 25 C -3.133844 -5.476590 -0.865068 0
M  V30 26 C -3.628706 -4.439053 -1.818165 0
M  V30 27 C -2.908604 -3.139286 -1.411953 0
M  V30 28 H -0.221690 -1.111495 2.803435 0
M  V30 29 H -1.646338 -0.283406 2.362024 0
M  V30 30 H -1.730766 -2.737105 2.380613 0
M  V30 31 H -0.586147 -3.888547 0.448228 0
M  V30 32 H 0.453928 -3.036387 1.565734 0
M  V30 33 H 1.024070 -2.000086 -2.694800 0
M  V30 34 H 3.214204 1.469741 -2.414764 0
M  V30 35 H 4.681733 2.152657 -0.940275 0
M  V30 36 H 5.618820 4.011963 0.465301 0
M  V30 37 H 5.346638 5.507261 2.411148 0
M  V30 38 H 1.935616 5.255214 4.829063 0
M  V30 39 H 1.005136 3.405023 3.429058 0
M  V30 40 H 1.265867 1.969570 1.561466 0
M  V30 41 H 1.446845 -0.034035 1.081661 0
M  V30 42 H -3.205339 -1.030029 1.318001 0
M  V30 43 H -2.198331 -1.001690 -0.113722 0
M  V30 44 H -4.337419 -2.029045 -0.410556 0
M  V30 45 H -5.183979 -3.864152 0.446606 0
M  V30 46 H -4.093234 -3.532250 1.793272 0
M  V30 47 H -2.645296 -5.333595 1.190827 0
M  V30 48 H -4.272824 -5.884328 0.859652 0
M  V30 49 H -3.544059 -6.473939 -1.198963 0
M  V30 50 H -2.020762 -5.603700 -1.002904 0
M  V30 51 H -4.714832 -4.325930 -1.754213 0
M  V30 52 H -3.272568 -4.668520 -2.845329 0
M  V30 53 H -3.143502 -2.444770 -2.255470 0
M  V30 54 H -1.842721 -3.319514 -1.471480 0
M  V30 END ATOM
M  V30 BEGIN BOND
M  V30 1 1 1 2
M  V30 2 1 2 3
M  V30 3 1 3 4
M  V30 4 1 4 5
M  V30 5 2 5 6
M  V30 6 1 6 7
M  V30 7 2 7 8
M  V30 8 1 8 9
M  V30 9 1 9 10
M  V30 10 2 10 11
M  V30 11 1 11 12
M  V30 12 2 12 13
M  V30 13 1 13 14
M  V30 14 2 14 15
M  V30 15 1 15 16
M  V30 16 2 16 17
M  V30 17 1 17 18
M  V30 18 2 18 19
M  V30 19 2 9 20
M  V30 20 1 2 21
M  V30 21 1 21 22
M  V30 22 1 22 23
M  V30 23 1 23 24
M  V30 24 1 24 25
M  V30 25 1 25 26
M  V30 26 1 26 27
M  V30 27 1 20 5
M  V30 28 1 27 22
M  V30 29 1 19 10
M  V30 30 1 18 13
M  V30 31 1 1 28
M  V30 32 1 1 29
M  V30 33 1 2 30 CFG=1
M  V30 34 1 3 31
M  V30 35 1 3 32
M  V30 36 1 6 33
M  V30 37 1 8 34
M  V30 38 1 11 35
M  V30 39 1 12 36
M  V30 40 1 14 37
M  V30 41 1 16 38
M  V30 42 1 17 39
M  V30 43 1 19 40
M  V30 44 1 20 41
M  V30 45 1 21 42
M  V30 46 1 21 43
M  V30 47 1 22 44
M  V30 48 1 23 45
M  V30 49 1 23 46
M  V30 50 1 24 47
M  V30 51 1 24 48
M  V30 52 1 25 49
M  V30 53 1 25 50
M  V30 54 1 26 51
M  V30 55 1 26 52
M  V30 56 1 27 53
M  V30 57 1 27 54
M  V30 END BOND
M  V30 END CTAB
M  END
>  <Dataset>  (222) 
ChEMBL_Kinases

>  <Ligand_Instance>  (222) 
nan

>  <PDB_ID>  (222) 
nan

>  <Standardized_SMILES>  (222) 
N[C@H](COc1cncc(-c2ccc3cnccc3c2)c1)CC1CCCCC1

>  <Name>  (222) 
nan

>  <Pocket>  (222) 
nan

>  <ATP_Site>  (222) 
nan

>  <Peripheral>  (222) 
nan

>  <Num_H_Atoms_ProtBoundConf>  (222) 
nan

>  <Num_Resolved_Atoms>  (222) 
nan

>  <Num_Not_Resolved_Atoms>  (222) 
nan

$$$$
CHEMBL211109
     RDKit          3D

  0  0  0  0  0  0  0  0  0  0999 V3000
M  V30 BEGIN CTAB
M  V30 COUNTS 61 63 0 0 0
M  V30 BEGIN ATOM
M  V30 1 C 1.330485 -2.556070 6.389815 0
M  V30 2 O 1.805316 -2.662788 5.043345 0
M  V30 3 C 1.133986 -2.050376 4.007768 0
M  V30 4 C 1.665505 -2.210003 2.756176 0
M  V30 5 C 1.104233 -1.656957 1.629129 0
M  V30 6 C -0.054240 -0.903377 1.773307 0
M  V30 7 N -0.796536 -0.245804 0.753626 0
M  V30 8 C -0.211362 1.049049 0.689246 0
M  V30 9 O 0.640219 0.830276 1.602724 0
M  V30 10 N -0.411799 2.238269 -0.070605 0
M  V30 11 C 0.534061 3.211956 0.361423 0
M  V30 12 C 1.755655 3.265985 -0.265412 0
M  V30 13 C 2.701636 4.189906 0.117581 0
M  V30 14 C 2.322054 5.036153 1.162014 0
M  V30 15 C 1.109309 5.016249 1.817526 0
M  V30 16 C 0.188119 4.068271 1.397032 0
M  V30 17 C -1.127182 4.025786 2.087459 0
M  V30 18 C -1.824822 -1.020237 0.148256 0
M  V30 19 C -3.077118 -0.959996 0.722203 0
M  V30 20 C -4.049407 -1.721537 0.111476 0
M  V30 21 N -3.823907 -2.470438 -0.956408 0
M  V30 22 C -2.585178 -2.532704 -1.527687 0
M  V30 23 N -2.169550 -3.275660 -2.667170 0
M  V30 24 C -0.867476 -3.339434 -3.250264 0 CFG=1
M  V30 25 C -0.433341 -1.955224 -3.656325 0
M  V30 26 C 0.157810 -4.070514 -2.412266 0
M  V30 27 C 1.479205 -4.189654 -3.131495 0
M  V30 28 C -0.354884 -5.485686 -2.206163 0
M  V30 29 O 0.367558 -3.515938 -1.177049 0
M  V30 30 N -1.650414 -1.792173 -0.929558 0
M  V30 31 C -0.595300 -0.738200 3.030252 0
M  V30 32 C -0.018235 -1.300200 4.146946 0
M  V30 33 H 0.996950 -1.521068 6.599844 0
M  V30 34 H 2.123844 -2.873121 7.096932 0
M  V30 35 H 0.435786 -3.220042 6.453374 0
M  V30 36 H 2.572085 -2.785954 2.555464 0
M  V30 37 H 1.457813 -1.734033 0.610748 0
M  V30 38 H -1.201580 2.023988 -0.718093 0
M  V30 39 H 2.026259 2.588425 -1.083029 0
M  V30 40 H 3.695068 4.314082 -0.313249 0
M  V30 41 H 3.060316 5.779629 1.482919 0
M  V30 42 H 0.940284 5.734081 2.618390 0
M  V30 43 H -0.992731 3.461961 3.054567 0
M  V30 44 H -1.889148 3.484120 1.496554 0
M  V30 45 H -1.546048 5.018835 2.298572 0
M  V30 46 H -3.367486 -0.389665 1.582516 0
M  V30 47 H -5.070342 -1.751339 0.476342 0
M  V30 48 H -3.007020 -3.809624 -3.050381 0
M  V30 49 H -0.993596 -3.899904 -4.223969 0
M  V30 50 H -1.359381 -1.409311 -3.952963 0
M  V30 51 H -0.008193 -1.391614 -2.804591 0
M  V30 52 H 0.219584 -1.948890 -4.546338 0
M  V30 53 H 1.341027 -4.337024 -4.222606 0
M  V30 54 H 2.080009 -5.037422 -2.745520 0
M  V30 55 H 2.100441 -3.273520 -3.034163 0
M  V30 56 H -0.445348 -5.912038 -3.247341 0
M  V30 57 H -1.395422 -5.453779 -1.814292 0
M  V30 58 H 0.299122 -6.091616 -1.561902 0
M  V30 59 H 0.588884 -4.158572 -0.470757 0
M  V30 60 H -1.502143 -0.164073 3.244032 0
M  V30 61 H -0.431252 -1.182060 5.157468 0
M  V30 END ATOM
M  V30 BEGIN BOND
M  V30 1 1 1 2
M  V30 2 1 2 3
M  V30 3 2 3 4
M  V30 4 1 4 5
M  V30 5 2 5 6
M  V30 6 1 6 7
M  V30 7 1 7 8
M  V30 8 2 8 9
M  V30 9 1 8 10
M  V30 10 1 10 11
M  V30 11 2 11 12
M  V30 12 1 12 13
M  V30 13 2 13 14
M  V30 14 1 14 15
M  V30 15 2 15 16
M  V30 16 1 16 17
M  V30 17 1 7 18
M  V30 18 2 18 19
M  V30 19 1 19 20
M  V30 20 2 20 21
M  V30 21 1 21 22
M  V30 22 1 22 23
M  V30 23 1 23 24
M  V30 24 1 24 25
M  V30 25 1 24 26
M  V30 26 1 26 27
M  V30 27 1 26 28
M  V30 28 1 26 29
M  V30 29 2 22 30
M  V30 30 1 6 31
M  V30 31 2 31 32
M  V30 32 1 32 3
M  V30 33 1 16 11
M  V30 34 1 30 18
M  V30 35 1 1 33
M  V30 36 1 1 34
M  V30 37 1 1 35
M  V30 38 1 4 36
M  V30 39 1 5 37
M  V30 40 1 10 38
M  V30 41 1 12 39
M  V30 42 1 13 40
M  V30 43 1 14 41
M  V30 44 1 15 42
M  V30 45 1 17 43
M  V30 46 1 17 44
M  V30 47 1 17 45
M  V30 48 1 19 46
M  V30 49 1 20 47
M  V30 50 1 23 48
M  V30 51 1 24 49 CFG=3
M  V30 52 1 25 50
M  V30 53 1 25 51
M  V30 54 1 25 52
M  V30 55 1 27 53
M  V30 56 1 27 54
M  V30 57 1 27 55
M  V30 58 1 28 56
M  V30 59 1 28 57
M  V30 60 1 28 58
M  V30 61 1 29 59
M  V30 62 1 31 60
M  V30 63 1 32 61
M  V30 END BOND
M  V30 END CTAB
M  END
>  <Dataset>  (223) 
ChEMBL_Kinases

>  <Ligand_Instance>  (223) 
nan

>  <PDB_ID>  (223) 
nan

>  <Standardized_SMILES>  (223) 
COc1ccc(N(C(=O)Nc2ccccc2C)c2ccnc(N[C@@H](C)C(C)(C)O)n2)cc1

>  <Name>  (223) 
nan

>  <Pocket>  (223) 
nan

>  <ATP_Site>  (223) 
nan

>  <Peripheral>  (223) 
nan

>  <Num_H_Atoms_ProtBoundConf>  (223) 
nan

>  <Num_Resolved_Atoms>  (223) 
nan

>  <Num_Not_Resolved_Atoms>  (223) 
nan

$$$$
CHEMBL211151
     RDKit          3D

  0  0  0  0  0  0  0  0  0  0999 V3000
M  V30 BEGIN CTAB
M  V30 COUNTS 39 42 0 0 0
M  V30 BEGIN ATOM
M  V30 1 C 1.058179 -4.082791 2.803431 0
M  V30 2 C 0.315140 -3.025120 2.044440 0
M  V30 3 C -1.153786 -3.410809 2.015772 0
M  V30 4 C 0.884820 -2.943452 0.681696 0
M  V30 5 N 1.044021 -3.912364 -0.253590 0
M  V30 6 N 1.595168 -3.427768 -1.347024 0
M  V30 7 C 1.827380 -2.112035 -1.186653 0
M  V30 8 C 2.364928 -1.096486 -1.950953 0
M  V30 9 C 2.459585 0.196803 -1.464120 0
M  V30 10 C 2.012961 0.496509 -0.191412 0
M  V30 11 C 2.050393 1.809773 0.444331 0
M  V30 12 O 2.946609 2.702191 0.799094 0
M  V30 13 C 2.351686 3.735995 1.354756 0
M  V30 14 N 1.005203 3.523557 1.370664 0
M  V30 15 C 0.791561 2.305760 0.797193 0
M  V30 16 C -0.598362 1.859926 0.704397 0
M  V30 17 C -1.244749 1.623384 -0.512605 0
M  V30 18 C -2.556067 1.203332 -0.583215 0
M  V30 19 C -3.266713 1.005802 0.585707 0
M  V30 20 Cl -4.923099 0.472994 0.413511 0
M  V30 21 C -2.670436 1.225942 1.787237 0
M  V30 22 Cl -3.584858 0.971208 3.266140 0
M  V30 23 C -1.370878 1.641539 1.828794 0
M  V30 24 C 1.476736 -0.569416 0.541677 0
M  V30 25 N 1.387084 -1.841126 0.054380 0
M  V30 26 H 0.495446 -5.050813 2.675099 0
M  V30 27 H 2.090507 -4.137620 2.395470 0
M  V30 28 H 1.055833 -3.819984 3.879702 0
M  V30 29 H 0.378785 -2.011443 2.491973 0
M  V30 30 H -1.805546 -2.527713 1.857215 0
M  V30 31 H -1.371359 -4.206880 1.299750 0
M  V30 32 H -1.397461 -3.791811 3.032412 0
M  V30 33 H 2.720723 -1.318619 -2.954651 0
M  V30 34 H 2.873812 1.020829 -2.029619 0
M  V30 35 H 2.864296 4.600797 1.730047 0
M  V30 36 H -0.700239 1.774561 -1.410888 0
M  V30 37 H -2.997603 1.037513 -1.577874 0
M  V30 38 H -0.942037 1.803046 2.814016 0
M  V30 39 H 1.119297 -0.366017 1.539813 0
M  V30 END ATOM
M  V30 BEGIN BOND
M  V30 1 1 1 2
M  V30 2 1 2 3
M  V30 3 1 2 4
M  V30 4 2 4 5
M  V30 5 1 5 6
M  V30 6 2 6 7
M  V30 7 1 7 8
M  V30 8 2 8 9
M  V30 9 1 9 10
M  V30 10 1 10 11
M  V30 11 1 11 12
M  V30 12 1 12 13
M  V30 13 2 13 14
M  V30 14 1 14 15
M  V30 15 1 15 16
M  V30 16 2 16 17
M  V30 17 1 17 18
M  V30 18 2 18 19
M  V30 19 1 19 20
M  V30 20 1 19 21
M  V30 21 1 21 22
M  V30 22 2 21 23
M  V30 23 2 10 24
M  V30 24 1 24 25
M  V30 25 1 25 4
M  V30 26 1 25 7
M  V30 27 2 15 11
M  V30 28 1 23 16
M  V30 29 1 1 26
M  V30 30 1 1 27
M  V30 31 1 1 28
M  V30 32 1 2 29
M  V30 33 1 3 30
M  V30 34 1 3 31
M  V30 35 1 3 32
M  V30 36 1 8 33
M  V30 37 1 9 34
M  V30 38 1 13 35
M  V30 39 1 17 36
M  V30 40 1 18 37
M  V30 41 1 23 38
M  V30 42 1 24 39
M  V30 END BOND
M  V30 END CTAB
M  END
>  <Dataset>  (224) 
ChEMBL_Kinases

>  <Ligand_Instance>  (224) 
nan

>  <PDB_ID>  (224) 
nan

>  <Standardized_SMILES>  (224) 
CC(C)c1nnc2ccc(-c3ocnc3-c3ccc(Cl)c(Cl)c3)cn12

>  <Name>  (224) 
nan

>  <Pocket>  (224) 
nan

>  <ATP_Site>  (224) 
nan

>  <Peripheral>  (224) 
nan

>  <Num_H_Atoms_ProtBoundConf>  (224) 
nan

>  <Num_Resolved_Atoms>  (224) 
nan

>  <Num_Not_Resolved_Atoms>  (224) 
nan

$$$$
CHEMBL211186
     RDKit          3D

  0  0  0  0  0  0  0  0  0  0999 V3000
M  V30 BEGIN CTAB
M  V30 COUNTS 55 58 0 0 0
M  V30 BEGIN ATOM
M  V30 1 C 1.500004 -3.315119 3.181600 0
M  V30 2 C 2.961299 -3.056938 3.115505 0
M  V30 3 N 3.939759 -3.733027 3.711555 0
M  V30 4 N 5.110087 -3.190283 3.404551 0
M  V30 5 C 4.959523 -2.128449 2.590041 0
M  V30 6 C 5.779978 -1.206691 1.966293 0
M  V30 7 C 5.242978 -0.198849 1.158482 0
M  V30 8 C 3.872602 -0.097553 0.961937 0
M  V30 9 C 3.266990 0.940279 0.121752 0
M  V30 10 C 3.891365 1.461474 -0.990337 0
M  V30 11 N 3.226762 2.418007 -1.686982 0
M  V30 12 C 1.989521 2.827891 -1.278305 0
M  V30 13 C 1.338716 2.305496 -0.145256 0
M  V30 14 O 0.139496 2.963785 -0.072994 0
M  V30 15 C -0.893139 2.821086 0.855574 0
M  V30 16 C -1.544226 1.485367 0.927049 0 CFG=1
M  V30 17 N -2.606133 1.422849 1.915835 0
M  V30 18 C -2.217081 1.143434 -0.408526 0
M  V30 19 C -2.864616 -0.224266 -0.288727 0
M  V30 20 C -3.529446 -0.562680 -1.606490 0
M  V30 21 C -4.162037 -1.921828 -1.460121 0
M  V30 22 C -3.415825 -3.038004 -1.779716 0
M  V30 23 C -3.957190 -4.313135 -1.659009 0
M  V30 24 C -5.266560 -4.485850 -1.211836 0
M  V30 25 C -5.980489 -3.364437 -0.903360 0
M  V30 26 C -5.449636 -2.096659 -1.020760 0
M  V30 27 C 2.025519 1.342121 0.543977 0
M  V30 28 C 3.091279 -1.053891 1.615244 0
M  V30 29 C 3.600825 -2.051792 2.413049 0
M  V30 30 H 1.245686 -3.487491 4.248193 0
M  V30 31 H 0.933066 -2.466118 2.759492 0
M  V30 32 H 1.221476 -4.230842 2.613379 0
M  V30 33 H 6.047582 -3.534207 3.746298 0
M  V30 34 H 6.825917 -1.312177 2.137493 0
M  V30 35 H 5.906595 0.520261 0.673318 0
M  V30 36 H 4.871100 1.075579 -1.238887 0
M  V30 37 H 1.685752 3.595887 -2.008770 0
M  V30 38 H -1.708137 3.536026 0.517991 0
M  V30 39 H -0.599722 3.217343 1.853299 0
M  V30 40 H -0.839262 0.696385 1.148893 0
M  V30 41 H -2.338890 0.868613 2.755823 0
M  V30 42 H -3.025879 2.341611 2.143424 0
M  V30 43 H -2.979330 1.896075 -0.691814 0
M  V30 44 H -1.444956 1.164320 -1.200745 0
M  V30 45 H -3.610606 -0.188860 0.521258 0
M  V30 46 H -2.078863 -0.961143 -0.046352 0
M  V30 47 H -2.759600 -0.611729 -2.383205 0
M  V30 48 H -4.323657 0.188161 -1.824315 0
M  V30 49 H -2.396739 -2.952243 -2.130770 0
M  V30 50 H -3.426873 -5.226898 -1.892797 0
M  V30 51 H -5.709530 -5.485657 -1.110537 0
M  V30 52 H -7.008464 -3.466907 -0.550362 0
M  V30 53 H -6.053853 -1.233525 -0.763733 0
M  V30 54 H 1.453173 1.019137 1.385047 0
M  V30 55 H 2.008768 -0.994877 1.475605 0
M  V30 END ATOM
M  V30 BEGIN BOND
M  V30 1 1 1 2
M  V30 2 2 2 3
M  V30 3 1 3 4
M  V30 4 1 4 5
M  V30 5 2 5 6
M  V30 6 1 6 7
M  V30 7 2 7 8
M  V30 8 1 8 9
M  V30 9 2 9 10
M  V30 10 1 10 11
M  V30 11 2 11 12
M  V30 12 1 12 13
M  V30 13 1 13 14
M  V30 14 1 14 15
M  V30 15 1 15 16
M  V30 16 1 16 17
M  V30 17 1 16 18
M  V30 18 1 18 19
M  V30 19 1 19 20
M  V30 20 1 20 21
M  V30 21 2 21 22
M  V30 22 1 22 23
M  V30 23 2 23 24
M  V30 24 1 24 25
M  V30 25 2 25 26
M  V30 26 2 13 27
M  V30 27 1 8 28
M  V30 28 2 28 29
M  V30 29 1 29 2
M  V30 30 1 29 5
M  V30 31 1 27 9
M  V30 32 1 26 21
M  V30 33 1 1 30
M  V30 34 1 1 31
M  V30 35 1 1 32
M  V30 36 1 4 33
M  V30 37 1 6 34
M  V30 38 1 7 35
M  V30 39 1 10 36
M  V30 40 1 12 37
M  V30 41 1 15 38
M  V30 42 1 15 39
M  V30 43 1 16 40 CFG=1
M  V30 44 1 17 41
M  V30 45 1 17 42
M  V30 46 1 18 43
M  V30 47 1 18 44
M  V30 48 1 19 45
M  V30 49 1 19 46
M  V30 50 1 20 47
M  V30 51 1 20 48
M  V30 52 1 22 49
M  V30 53 1 23 50
M  V30 54 1 24 51
M  V30 55 1 25 52
M  V30 56 1 26 53
M  V30 57 1 27 54
M  V30 58 1 28 55
M  V30 END BOND
M  V30 END CTAB
M  END
>  <Dataset>  (225) 
ChEMBL_Kinases

>  <Ligand_Instance>  (225) 
nan

>  <PDB_ID>  (225) 
nan

>  <Standardized_SMILES>  (225) 
Cc1n[nH]c2ccc(-c3cncc(OC[C@@H](N)CCCc4ccccc4)c3)cc12

>  <Name>  (225) 
nan

>  <Pocket>  (225) 
nan

>  <ATP_Site>  (225) 
nan

>  <Peripheral>  (225) 
nan

>  <Num_H_Atoms_ProtBoundConf>  (225) 
nan

>  <Num_Resolved_Atoms>  (225) 
nan

>  <Num_Not_Resolved_Atoms>  (225) 
nan

$$$$
CHEMBL211201
     RDKit          3D

  0  0  0  0  0  0  0  0  0  0999 V3000
M  V30 BEGIN CTAB
M  V30 COUNTS 39 40 0 0 0
M  V30 BEGIN ATOM
M  V30 1 C 0.218749 -3.387461 -0.394614 0
M  V30 2 C 1.457572 -2.863036 0.189278 0
M  V30 3 C 2.230348 -3.798902 0.864527 0
M  V30 4 C 3.424775 -3.370983 1.455514 0
M  V30 5 I 4.632457 -4.744706 2.485254 0
M  V30 6 C 3.813610 -2.043520 1.361349 0
M  V30 7 C 3.027488 -1.126071 0.682510 0
M  V30 8 C 1.855814 -1.567945 0.107448 0
M  V30 9 N 1.057118 -0.624584 -0.592195 0
M  V30 10 C 1.389673 0.765908 -0.710017 0
M  V30 11 S 2.677541 1.528018 -1.513775 0
M  V30 12 N 2.220661 3.287740 -1.092759 0
M  V30 13 C 1.070742 3.035816 -0.346292 0
M  V30 14 O 0.604805 4.263823 0.044411 0
M  V30 15 C 0.583989 1.809301 -0.106484 0
M  V30 16 C -0.609789 1.553411 0.646108 0
M  V30 17 N -1.361688 2.570859 1.224560 0
M  V30 18 N -0.990599 0.362725 0.795818 0
M  V30 19 C -2.179757 -0.009694 1.534011 0
M  V30 20 C -3.050430 -0.951470 0.689401 0
M  V30 21 C -1.697053 -0.861150 2.693204 0
M  V30 22 O -0.839154 -0.065721 3.446130 0
M  V30 23 H -0.158769 -2.819298 -1.268967 0
M  V30 24 H -0.559548 -3.399566 0.423010 0
M  V30 25 H 0.318706 -4.432520 -0.703257 0
M  V30 26 H 1.938156 -4.852036 0.947423 0
M  V30 27 H 4.750973 -1.783717 1.843147 0
M  V30 28 H 3.415457 -0.116096 0.663171 0
M  V30 29 H 0.167984 -0.813389 -1.091007 0
M  V30 30 H 0.201763 4.501358 0.923914 0
M  V30 31 H -1.884916 3.313493 1.689724 0
M  V30 32 H -2.022948 2.720286 0.434526 0
M  V30 33 H -2.745531 0.870501 1.878372 0
M  V30 34 H -3.608124 -0.387015 -0.076959 0
M  V30 35 H -2.333274 -1.668090 0.222999 0
M  V30 36 H -3.725533 -1.463790 1.392478 0
M  V30 37 H -2.523251 -1.307476 3.269047 0
M  V30 38 H -1.022540 -1.633869 2.216231 0
M  V30 39 H -1.158512 0.868060 3.518875 0
M  V30 END ATOM
M  V30 BEGIN BOND
M  V30 1 1 1 2
M  V30 2 2 2 3
M  V30 3 1 3 4
M  V30 4 1 4 5
M  V30 5 2 4 6
M  V30 6 1 6 7
M  V30 7 2 7 8
M  V30 8 1 8 9
M  V30 9 1 9 10
M  V30 10 1 10 11
M  V30 11 1 11 12
M  V30 12 2 12 13
M  V30 13 1 13 14
M  V30 14 1 13 15
M  V30 15 1 15 16
M  V30 16 1 16 17
M  V30 17 2 16 18
M  V30 18 1 18 19
M  V30 19 1 19 20
M  V30 20 1 19 21
M  V30 21 1 21 22
M  V30 22 1 8 2
M  V30 23 2 15 10
M  V30 24 1 1 23
M  V30 25 1 1 24
M  V30 26 1 1 25
M  V30 27 1 3 26
M  V30 28 1 6 27
M  V30 29 1 7 28
M  V30 30 1 9 29
M  V30 31 1 14 30
M  V30 32 1 17 31
M  V30 33 1 17 32
M  V30 34 1 19 33
M  V30 35 1 20 34
M  V30 36 1 20 35
M  V30 37 1 20 36
M  V30 38 1 21 37
M  V30 39 1 21 38
M  V30 40 1 22 39
M  V30 END BOND
M  V30 END CTAB
M  END
>  <Dataset>  (226) 
ChEMBL_Kinases

>  <Ligand_Instance>  (226) 
nan

>  <PDB_ID>  (226) 
nan

>  <Standardized_SMILES>  (226) 
Cc1cc(I)ccc1Nc1snc(O)c1/C(N)=N/C(C)CO

>  <Name>  (226) 
nan

>  <Pocket>  (226) 
nan

>  <ATP_Site>  (226) 
nan

>  <Peripheral>  (226) 
nan

>  <Num_H_Atoms_ProtBoundConf>  (226) 
nan

>  <Num_Resolved_Atoms>  (226) 
nan

>  <Num_Not_Resolved_Atoms>  (226) 
nan

$$$$
CHEMBL211224
     RDKit          3D

  0  0  0  0  0  0  0  0  0  0999 V3000
M  V30 BEGIN CTAB
M  V30 COUNTS 61 67 0 0 0
M  V30 BEGIN ATOM
M  V30 1 C 0.910191 -2.243250 5.319724 0
M  V30 2 C 1.225049 -1.099989 4.610270 0
M  V30 3 C 1.984008 -1.277360 3.475160 0
M  V30 4 C 2.412061 -2.519182 3.058736 0
M  V30 5 C 3.179678 -2.831844 1.959166 0
M  V30 6 C 3.778593 -2.088093 0.838294 0
M  V30 7 C 2.782130 -1.868729 -0.246949 0 CFG=1
M  V30 8 C 1.556597 -1.100122 0.089201 0
M  V30 9 O 1.808958 0.277996 0.314295 0
M  V30 10 C 0.753075 1.111935 0.641142 0
M  V30 11 C 1.136665 2.430526 0.833086 0
M  V30 12 N 0.202270 3.368201 1.161068 0
M  V30 13 C -1.093512 3.034133 1.302598 0
M  V30 14 C -1.452863 1.717477 1.107214 0
M  V30 15 C -2.859641 1.338583 1.261098 0
M  V30 16 C -3.492084 0.173514 1.142978 0
M  V30 17 C -4.838089 0.110394 1.350002 0
M  V30 18 C -5.714688 -0.949106 1.292408 0
M  V30 19 N -7.018664 -0.832402 1.527669 0
M  V30 20 C -7.630522 0.314830 1.844703 0
M  V30 21 C -6.852053 1.447302 1.931856 0
M  V30 22 C -5.484773 1.297423 1.680256 0
M  V30 23 S -4.098985 2.503098 1.683466 0
M  V30 24 C -0.560783 0.719374 0.774202 0
M  V30 25 N 3.420508 -1.367396 -1.470385 0
M  V30 26 C 2.519964 -1.188620 -2.458453 0
M  V30 27 C 2.004222 -1.942473 -3.480264 0
M  V30 28 C 1.067094 -1.447582 -4.343416 0
M  V30 29 C 0.456265 -2.064789 -5.406284 0
M  V30 30 N -0.431891 -1.417229 -6.128926 0
M  V30 31 C -0.847472 -0.156921 -5.957359 0
M  V30 32 C -0.292136 0.547977 -4.914512 0
M  V30 33 C 0.643410 -0.114947 -4.142966 0
M  V30 34 S 1.610691 0.438475 -2.685116 0
M  V30 35 C 3.284840 -4.222173 2.087116 0
M  V30 36 N 2.637448 -4.699179 3.165324 0
M  V30 37 C 2.083854 -3.643755 3.786501 0
M  V30 38 C 1.325703 -3.513100 4.928903 0
M  V30 39 H 0.316692 -2.133614 6.214606 0
M  V30 40 H 0.869813 -0.139116 4.969791 0
M  V30 41 H 2.247510 -0.399218 2.904908 0
M  V30 42 H 4.190504 -1.124578 1.227612 0
M  V30 43 H 4.610252 -2.701859 0.394479 0
M  V30 44 H 2.427081 -2.901470 -0.548382 0
M  V30 45 H 0.990912 -1.602856 0.867199 0
M  V30 46 H 0.887623 -1.205892 -0.836445 0
M  V30 47 H 2.161250 2.785646 0.738869 0
M  V30 48 H -1.809146 3.799281 1.563260 0
M  V30 49 H -2.896998 -0.690187 0.882793 0
M  V30 50 H -5.428641 -1.967987 1.052832 0
M  V30 51 H -8.670572 0.459403 2.042203 0
M  V30 52 H -7.164990 2.461676 2.176546 0
M  V30 53 H -0.810315 -0.318942 0.614892 0
M  V30 54 H 4.420072 -1.131128 -1.705195 0
M  V30 55 H 2.411740 -2.940593 -3.521880 0
M  V30 56 H 0.679045 -3.083545 -5.682017 0
M  V30 57 H -1.579123 0.360912 -6.561016 0
M  V30 58 H -0.490427 1.548896 -4.620471 0
M  V30 59 H 3.831645 -4.877182 1.394227 0
M  V30 60 H 2.589918 -5.697760 3.443698 0
M  V30 61 H 1.073221 -4.403500 5.491117 0
M  V30 END ATOM
M  V30 BEGIN BOND
M  V30 1 2 1 2
M  V30 2 1 2 3
M  V30 3 2 3 4
M  V30 4 1 4 5
M  V30 5 1 5 6
M  V30 6 1 6 7
M  V30 7 1 7 8
M  V30 8 1 8 9
M  V30 9 1 9 10
M  V30 10 2 10 11
M  V30 11 1 11 12
M  V30 12 2 12 13
M  V30 13 1 13 14
M  V30 14 1 14 15
M  V30 15 2 15 16
M  V30 16 1 16 17
M  V30 17 2 17 18
M  V30 18 1 18 19
M  V30 19 2 19 20
M  V30 20 1 20 21
M  V30 21 2 21 22
M  V30 22 1 22 23
M  V30 23 2 14 24
M  V30 24 1 7 25
M  V30 25 1 25 26
M  V30 26 2 26 27
M  V30 27 1 27 28
M  V30 28 2 28 29
M  V30 29 1 29 30
M  V30 30 2 30 31
M  V30 31 1 31 32
M  V30 32 2 32 33
M  V30 33 1 33 34
M  V30 34 2 5 35
M  V30 35 1 35 36
M  V30 36 1 36 37
M  V30 37 2 37 38
M  V30 38 1 38 1
M  V30 39 1 37 4
M  V30 40 1 24 10
M  V30 41 1 34 26
M  V30 42 1 23 15
M  V30 43 1 33 28
M  V30 44 1 22 17
M  V30 45 1 1 39
M  V30 46 1 2 40
M  V30 47 1 3 41
M  V30 48 1 6 42
M  V30 49 1 6 43
M  V30 50 1 7 44 CFG=3
M  V30 51 1 8 45
M  V30 52 1 8 46
M  V30 53 1 11 47
M  V30 54 1 13 48
M  V30 55 1 16 49
M  V30 56 1 18 50
M  V30 57 1 20 51
M  V30 58 1 21 52
M  V30 59 1 24 53
M  V30 60 1 25 54
M  V30 61 1 27 55
M  V30 62 1 29 56
M  V30 63 1 31 57
M  V30 64 1 32 58
M  V30 65 1 35 59
M  V30 66 1 36 60
M  V30 67 1 38 61
M  V30 END BOND
M  V30 END CTAB
M  END
>  <Dataset>  (227) 
ChEMBL_Kinases

>  <Ligand_Instance>  (227) 
nan

>  <PDB_ID>  (227) 
nan

>  <Standardized_SMILES>  (227) 
c1ccc2c(C[C@@H](COc3cncc(-c4cc5cnccc5s4)c3)Nc3cc4cnccc4s3)c[nH]c2c1

>  <Name>  (227) 
nan

>  <Pocket>  (227) 
nan

>  <ATP_Site>  (227) 
nan

>  <Peripheral>  (227) 
nan

>  <Num_H_Atoms_ProtBoundConf>  (227) 
nan

>  <Num_Resolved_Atoms>  (227) 
nan

>  <Num_Not_Resolved_Atoms>  (227) 
nan

$$$$
CHEMBL211281
     RDKit          3D

  0  0  0  0  0  0  0  0  0  0999 V3000
M  V30 BEGIN CTAB
M  V30 COUNTS 61 67 0 0 0
M  V30 BEGIN ATOM
M  V30 1 C 2.793210 -4.499123 2.610916 0
M  V30 2 C 2.757153 -3.137162 2.820650 0
M  V30 3 C 2.974595 -2.339746 1.722296 0
M  V30 4 C 3.211743 -2.909883 0.494862 0
M  V30 5 C 3.455854 -2.248058 -0.685744 0
M  V30 6 C 3.520478 -0.854449 -1.162534 0
M  V30 7 C 2.179615 -0.319593 -1.485232 0 CFG=1
M  V30 8 C 1.232604 -0.292161 -0.348373 0
M  V30 9 O 1.554303 0.672146 0.639282 0
M  V30 10 C 0.729776 0.770439 1.748827 0
M  V30 11 C 1.097693 1.740327 2.687427 0
M  V30 12 N 0.380516 1.950762 3.830634 0
M  V30 13 C -0.729772 1.225146 4.113190 0
M  V30 14 C -1.090615 0.269029 3.185686 0
M  V30 15 C -2.307818 -0.556808 3.463909 0
M  V30 16 C -2.907632 -1.521774 2.796332 0
M  V30 17 C -4.034212 -2.113056 3.305534 0
M  V30 18 C -4.808477 -3.130166 2.774885 0
M  V30 19 C -5.903834 -3.546982 3.500451 0
M  V30 20 N -6.324471 -3.075607 4.688808 0
M  V30 21 C -5.594226 -2.085251 5.232523 0
M  V30 22 C -4.475662 -1.636518 4.526439 0
M  V30 23 S -3.238379 -0.328044 4.918453 0
M  V30 24 C -0.386118 0.035068 2.023472 0
M  V30 25 N 2.220211 0.965125 -2.162611 0
M  V30 26 C 1.021921 1.498339 -2.560802 0
M  V30 27 C 0.346935 1.350494 -3.765546 0
M  V30 28 C -0.852762 1.956603 -4.002026 0
M  V30 29 C -1.675045 1.945750 -5.100461 0
M  V30 30 C -2.828202 2.655703 -5.049067 0
M  V30 31 N -3.296911 3.394995 -4.039739 0
M  V30 32 C -2.571144 3.471294 -2.924766 0
M  V30 33 C -1.386565 2.765485 -2.925075 0
M  V30 34 S -0.077612 2.592475 -1.597544 0
M  V30 35 C 3.634770 -3.321277 -1.571632 0
M  V30 36 N 3.504587 -4.508300 -0.960750 0
M  V30 37 C 3.238746 -4.266185 0.336238 0
M  V30 38 C 3.027562 -5.114279 1.401556 0
M  V30 39 H 2.617607 -5.105518 3.501627 0
M  V30 40 H 2.564883 -2.731986 3.805553 0
M  V30 41 H 2.960627 -1.284297 1.853396 0
M  V30 42 H 4.019511 -0.240944 -0.351222 0
M  V30 43 H 4.157525 -0.795114 -2.088650 0
M  V30 44 H 1.722883 -1.019552 -2.253295 0
M  V30 45 H 0.252862 0.101376 -0.789550 0
M  V30 46 H 0.961672 -1.265277 0.046200 0
M  V30 47 H 1.950362 2.417742 2.643214 0
M  V30 48 H -1.271172 1.423705 5.030569 0
M  V30 49 H -2.457406 -1.799575 1.850597 0
M  V30 50 H -4.574867 -3.595441 1.821091 0
M  V30 51 H -6.489970 -4.346225 3.056929 0
M  V30 52 H -5.798728 -1.599580 6.179885 0
M  V30 53 H -0.665313 -0.711608 1.295175 0
M  V30 54 H 2.965851 1.636814 -2.446653 0
M  V30 55 H 0.825010 0.727872 -4.505513 0
M  V30 56 H -1.407315 1.386264 -5.979020 0
M  V30 57 H -3.455280 2.615878 -5.957077 0
M  V30 58 H -2.785004 4.006983 -2.030675 0
M  V30 59 H 3.852338 -3.287925 -2.630200 0
M  V30 60 H 3.584006 -5.461106 -1.368290 0
M  V30 61 H 3.049291 -6.187858 1.270870 0
M  V30 END ATOM
M  V30 BEGIN BOND
M  V30 1 2 1 2
M  V30 2 1 2 3
M  V30 3 2 3 4
M  V30 4 1 4 5
M  V30 5 1 5 6
M  V30 6 1 6 7
M  V30 7 1 7 8
M  V30 8 1 8 9
M  V30 9 1 9 10
M  V30 10 2 10 11
M  V30 11 1 11 12
M  V30 12 2 12 13
M  V30 13 1 13 14
M  V30 14 1 14 15
M  V30 15 2 15 16
M  V30 16 1 16 17
M  V30 17 2 17 18
M  V30 18 1 18 19
M  V30 19 2 19 20
M  V30 20 1 20 21
M  V30 21 2 21 22
M  V30 22 1 22 23
M  V30 23 2 14 24
M  V30 24 1 7 25
M  V30 25 1 25 26
M  V30 26 2 26 27
M  V30 27 1 27 28
M  V30 28 2 28 29
M  V30 29 1 29 30
M  V30 30 2 30 31
M  V30 31 1 31 32
M  V30 32 2 32 33
M  V30 33 1 33 34
M  V30 34 2 5 35
M  V30 35 1 35 36
M  V30 36 1 36 37
M  V30 37 2 37 38
M  V30 38 1 38 1
M  V30 39 1 37 4
M  V30 40 1 24 10
M  V30 41 1 34 26
M  V30 42 1 23 15
M  V30 43 1 33 28
M  V30 44 1 22 17
M  V30 45 1 1 39
M  V30 46 1 2 40
M  V30 47 1 3 41
M  V30 48 1 6 42
M  V30 49 1 6 43
M  V30 50 1 7 44 CFG=3
M  V30 51 1 8 45
M  V30 52 1 8 46
M  V30 53 1 11 47
M  V30 54 1 13 48
M  V30 55 1 16 49
M  V30 56 1 18 50
M  V30 57 1 19 51
M  V30 58 1 21 52
M  V30 59 1 24 53
M  V30 60 1 25 54
M  V30 61 1 27 55
M  V30 62 1 29 56
M  V30 63 1 30 57
M  V30 64 1 32 58
M  V30 65 1 35 59
M  V30 66 1 36 60
M  V30 67 1 38 61
M  V30 END BOND
M  V30 END CTAB
M  END
>  <Dataset>  (228) 
ChEMBL_Kinases

>  <Ligand_Instance>  (228) 
nan

>  <PDB_ID>  (228) 
nan

>  <Standardized_SMILES>  (228) 
c1ccc2c(C[C@@H](COc3cncc(-c4cc5ccncc5s4)c3)Nc3cc4ccncc4s3)c[nH]c2c1

>  <Name>  (228) 
nan

>  <Pocket>  (228) 
nan

>  <ATP_Site>  (228) 
nan

>  <Peripheral>  (228) 
nan

>  <Num_H_Atoms_ProtBoundConf>  (228) 
nan

>  <Num_Resolved_Atoms>  (228) 
nan

>  <Num_Not_Resolved_Atoms>  (228) 
nan

$$$$
CHEMBL211282
     RDKit          3D

  0  0  0  0  0  0  0  0  0  0999 V3000
M  V30 BEGIN CTAB
M  V30 COUNTS 54 56 0 0 0
M  V30 BEGIN ATOM
M  V30 1 C -1.011446 -5.804698 0.447571 0
M  V30 2 C -0.056172 -5.050468 -0.437088 0 CFG=2
M  V30 3 N 0.680109 -4.108640 0.370576 0
M  V30 4 C 0.345067 -3.005852 1.192390 0
M  V30 5 N 0.106129 -3.372661 2.473777 0
M  V30 6 C -0.225673 -2.445270 3.394205 0
M  V30 7 C -0.324824 -1.117968 3.041432 0
M  V30 8 C -0.078400 -0.761708 1.733220 0
M  V30 9 N -0.150540 0.582978 1.253585 0
M  V30 10 C 1.042402 1.291763 1.331721 0
M  V30 11 O 1.927376 0.566169 1.817846 0
M  V30 12 N 1.450759 2.587276 0.998187 0
M  V30 13 C 2.576210 3.421103 1.014852 0
M  V30 14 C 2.336920 4.681124 0.529101 0
M  V30 15 C 3.364739 5.587411 0.494931 0
M  V30 16 C 4.621925 5.261690 0.934427 0
M  V30 17 C 4.897416 4.006816 1.427865 0
M  V30 18 C 3.841776 3.130540 1.444722 0
M  V30 19 Cl 4.265924 1.584550 2.073678 0
M  V30 20 C -1.509844 0.709454 0.844284 0
M  V30 21 C -2.317083 1.153550 1.873969 0
M  V30 22 C -3.679132 1.333408 1.646597 0
M  V30 23 C -4.162400 1.054111 0.382099 0
M  V30 24 F -5.503371 1.232639 0.164052 0
M  V30 25 C -3.344554 0.607739 -0.648933 0
M  V30 26 C -2.001877 0.433495 -0.414324 0
M  V30 27 N 0.249390 -1.698687 0.836270 0
M  V30 28 C -0.784352 -4.319294 -1.544311 0
M  V30 29 C -1.757098 -3.313900 -0.996431 0
M  V30 30 C -1.519543 -5.259997 -2.456545 0
M  V30 31 O 0.192288 -3.663492 -2.319659 0
M  V30 32 H -1.663995 -6.492162 -0.112412 0
M  V30 33 H -0.362538 -6.415901 1.140567 0
M  V30 34 H -1.574478 -5.131204 1.111255 0
M  V30 35 H 0.675125 -5.775701 -0.832028 0
M  V30 36 H 1.713291 -4.121610 0.467186 0
M  V30 37 H -0.430930 -2.659900 4.435216 0
M  V30 38 H -0.585877 -0.356813 3.746287 0
M  V30 39 H 0.520102 2.949564 0.624323 0
M  V30 40 H 1.368361 5.049110 0.151336 0
M  V30 41 H 3.172850 6.575904 0.112875 0
M  V30 42 H 5.367512 6.037947 0.869730 0
M  V30 43 H 5.898033 3.802361 1.759305 0
M  V30 44 H -1.999263 1.387595 2.879501 0
M  V30 45 H -4.345682 1.679793 2.426642 0
M  V30 46 H -3.726732 0.389353 -1.640121 0
M  V30 47 H -1.290326 0.092859 -1.148450 0
M  V30 48 H -1.449160 -2.294263 -1.309122 0
M  V30 49 H -1.852842 -3.388731 0.096760 0
M  V30 50 H -2.762684 -3.460948 -1.438193 0
M  V30 51 H -1.524090 -4.807046 -3.476394 0
M  V30 52 H -1.020884 -6.249575 -2.536696 0
M  V30 53 H -2.589678 -5.366114 -2.191857 0
M  V30 54 H 0.882722 -4.271150 -2.631078 0
M  V30 END ATOM
M  V30 BEGIN BOND
M  V30 1 1 1 2
M  V30 2 1 2 3
M  V30 3 1 3 4
M  V30 4 2 4 5
M  V30 5 1 5 6
M  V30 6 2 6 7
M  V30 7 1 7 8
M  V30 8 1 8 9
M  V30 9 1 9 10
M  V30 10 2 10 11
M  V30 11 1 10 12
M  V30 12 1 12 13
M  V30 13 2 13 14
M  V30 14 1 14 15
M  V30 15 2 15 16
M  V30 16 1 16 17
M  V30 17 2 17 18
M  V30 18 1 18 19
M  V30 19 1 9 20
M  V30 20 2 20 21
M  V30 21 1 21 22
M  V30 22 2 22 23
M  V30 23 1 23 24
M  V30 24 1 23 25
M  V30 25 2 25 26
M  V30 26 2 8 27
M  V30 27 1 2 28
M  V30 28 1 28 29
M  V30 29 1 28 30
M  V30 30 1 28 31
M  V30 31 1 27 4
M  V30 32 1 18 13
M  V30 33 1 26 20
M  V30 34 1 1 32
M  V30 35 1 1 33
M  V30 36 1 1 34
M  V30 37 1 2 35 CFG=3
M  V30 38 1 3 36
M  V30 39 1 6 37
M  V30 40 1 7 38
M  V30 41 1 12 39
M  V30 42 1 14 40
M  V30 43 1 15 41
M  V30 44 1 16 42
M  V30 45 1 17 43
M  V30 46 1 21 44
M  V30 47 1 22 45
M  V30 48 1 25 46
M  V30 49 1 26 47
M  V30 50 1 29 48
M  V30 51 1 29 49
M  V30 52 1 29 50
M  V30 53 1 30 51
M  V30 54 1 30 52
M  V30 55 1 30 53
M  V30 56 1 31 54
M  V30 END BOND
M  V30 END CTAB
M  END
>  <Dataset>  (229) 
ChEMBL_Kinases

>  <Ligand_Instance>  (229) 
nan

>  <PDB_ID>  (229) 
nan

>  <Standardized_SMILES>  (229) 
C[C@H](Nc1nccc(N(C(=O)Nc2ccccc2Cl)c2ccc(F)cc2)n1)C(C)(C)O

>  <Name>  (229) 
nan

>  <Pocket>  (229) 
nan

>  <ATP_Site>  (229) 
nan

>  <Peripheral>  (229) 
nan

>  <Num_H_Atoms_ProtBoundConf>  (229) 
nan

>  <Num_Resolved_Atoms>  (229) 
nan

>  <Num_Not_Resolved_Atoms>  (229) 
nan

$$$$
CHEMBL211460
     RDKit          3D

  0  0  0  0  0  0  0  0  0  0999 V3000
M  V30 BEGIN CTAB
M  V30 COUNTS 74 78 0 0 0
M  V30 BEGIN ATOM
M  V30 1 C 3.156491 -1.157075 5.563673 0
M  V30 2 O 2.047357 -0.467329 5.070397 0
M  V30 3 C 1.023369 0.077074 5.819102 0
M  V30 4 C 0.974268 -0.000936 7.214900 0
M  V30 5 C -0.120838 0.594010 7.844122 0
M  V30 6 C -1.108911 1.228929 7.132420 0
M  V30 7 C -1.047243 1.298779 5.748382 0
M  V30 8 C 0.026729 0.716609 5.112070 0
M  V30 9 N 0.085525 0.791424 3.695720 0
M  V30 10 C -0.930606 1.445323 2.953968 0
M  V30 11 O -2.006737 2.074665 2.969105 0
M  V30 12 O -0.973558 1.578094 1.591308 0
M  V30 13 C -1.982217 2.224224 0.888364 0
M  V30 14 C -3.002374 1.343511 0.515222 0
M  V30 15 C -3.004181 -0.126228 0.837065 0
M  V30 16 C -4.098848 1.827916 -0.200979 0
M  V30 17 C -4.110451 3.175212 -0.503877 0
M  V30 18 C -3.112014 4.052088 -0.142025 0
M  V30 19 C -2.038523 3.551051 0.564962 0
M  V30 20 C -0.891682 4.342584 1.029035 0
M  V30 21 C 1.127155 0.240641 2.902734 0
M  V30 22 C 2.194827 1.076989 2.649267 0
M  V30 23 C 3.232970 0.575173 1.877344 0
M  V30 24 N 3.185022 -0.684671 1.400302 0
M  V30 25 C 2.124913 -1.502936 1.656712 0
M  V30 26 N 2.091162 -2.836931 1.140962 0
M  V30 27 C 1.487473 -3.005157 -0.137796 0
M  V30 28 C 1.399817 -4.262929 -0.750982 0
M  V30 29 C 0.825185 -4.481095 -1.985954 0
M  V30 30 C 0.298350 -3.408184 -2.676414 0
M  V30 31 N -0.311813 -3.525291 -3.955255 0
M  V30 32 C -0.949500 -2.506410 -4.768875 0
M  V30 33 C 0.059013 -2.175632 -5.878315 0
M  V30 34 N 0.402610 -3.401862 -6.564352 0
M  V30 35 C 0.159544 -3.180567 -7.978151 0
M  V30 36 C -0.420382 -4.512732 -6.164310 0
M  V30 37 C -0.378390 -4.786555 -4.675798 0
M  V30 38 C 0.365081 -2.152082 -2.106166 0
M  V30 39 C 0.946848 -1.965482 -0.867864 0
M  V30 40 N 1.119568 -1.008632 2.407729 0
M  V30 41 H 2.825157 -2.181850 5.836586 0
M  V30 42 H 3.914240 -1.199512 4.753013 0
M  V30 43 H 3.579800 -0.622562 6.427065 0
M  V30 44 H 1.771901 -0.509231 7.744183 0
M  V30 45 H -0.178957 0.544753 8.940171 0
M  V30 46 H -1.926815 1.664700 7.722146 0
M  V30 47 H -1.867889 1.817309 5.279808 0
M  V30 48 H -3.573609 -0.656991 0.068129 0
M  V30 49 H -1.944566 -0.445779 0.797786 0
M  V30 50 H -3.463381 -0.305710 1.831855 0
M  V30 51 H -4.888177 1.139990 -0.488328 0
M  V30 52 H -4.949808 3.592091 -1.062136 0
M  V30 53 H -3.116073 5.102951 -0.376190 0
M  V30 54 H 0.044425 3.788164 1.071639 0
M  V30 55 H -1.122761 4.916601 1.972384 0
M  V30 56 H -0.734412 5.154462 0.267618 0
M  V30 57 H 2.334211 2.104793 2.982286 0
M  V30 58 H 4.157171 1.082564 1.571480 0
M  V30 59 H 2.460355 -3.681087 1.605062 0
M  V30 60 H 1.805327 -5.106227 -0.225570 0
M  V30 61 H 0.785813 -5.466608 -2.406277 0
M  V30 62 H -1.066720 -1.549705 -4.220030 0
M  V30 63 H -1.916076 -2.833691 -5.208217 0
M  V30 64 H -0.362824 -1.403486 -6.547353 0
M  V30 65 H 0.937509 -1.715988 -5.396492 0
M  V30 66 H 0.111842 -4.136150 -8.536361 0
M  V30 67 H -0.785680 -2.606913 -8.083108 0
M  V30 68 H 0.959010 -2.549474 -8.434838 0
M  V30 69 H 0.034007 -5.420754 -6.656739 0
M  V30 70 H -1.439615 -4.447344 -6.550222 0
M  V30 71 H -1.387698 -5.217273 -4.414634 0
M  V30 72 H 0.376486 -5.516033 -4.394870 0
M  V30 73 H -0.002823 -1.230257 -2.529799 0
M  V30 74 H 1.021830 -0.986540 -0.376335 0
M  V30 END ATOM
M  V30 BEGIN BOND
M  V30 1 1 1 2
M  V30 2 1 2 3
M  V30 3 2 3 4
M  V30 4 1 4 5
M  V30 5 2 5 6
M  V30 6 1 6 7
M  V30 7 2 7 8
M  V30 8 1 8 9
M  V30 9 1 9 10
M  V30 10 2 10 11
M  V30 11 1 10 12
M  V30 12 1 12 13
M  V30 13 2 13 14
M  V30 14 1 14 15
M  V30 15 1 14 16
M  V30 16 2 16 17
M  V30 17 1 17 18
M  V30 18 2 18 19
M  V30 19 1 19 20
M  V30 20 1 9 21
M  V30 21 2 21 22
M  V30 22 1 22 23
M  V30 23 2 23 24
M  V30 24 1 24 25
M  V30 25 1 25 26
M  V30 26 1 26 27
M  V30 27 2 27 28
M  V30 28 1 28 29
M  V30 29 2 29 30
M  V30 30 1 30 31
M  V30 31 1 31 32
M  V30 32 1 32 33
M  V30 33 1 33 34
M  V30 34 1 34 35
M  V30 35 1 34 36
M  V30 36 1 36 37
M  V30 37 1 30 38
M  V30 38 2 38 39
M  V30 39 2 25 40
M  V30 40 1 8 3
M  V30 41 1 19 13
M  V30 42 1 40 21
M  V30 43 1 39 27
M  V30 44 1 37 31
M  V30 45 1 1 41
M  V30 46 1 1 42
M  V30 47 1 1 43
M  V30 48 1 4 44
M  V30 49 1 5 45
M  V30 50 1 6 46
M  V30 51 1 7 47
M  V30 52 1 15 48
M  V30 53 1 15 49
M  V30 54 1 15 50
M  V30 55 1 16 51
M  V30 56 1 17 52
M  V30 57 1 18 53
M  V30 58 1 20 54
M  V30 59 1 20 55
M  V30 60 1 20 56
M  V30 61 1 22 57
M  V30 62 1 23 58
M  V30 63 1 26 59
M  V30 64 1 28 60
M  V30 65 1 29 61
M  V30 66 1 32 62
M  V30 67 1 32 63
M  V30 68 1 33 64
M  V30 69 1 33 65
M  V30 70 1 35 66
M  V30 71 1 35 67
M  V30 72 1 35 68
M  V30 73 1 36 69
M  V30 74 1 36 70
M  V30 75 1 37 71
M  V30 76 1 37 72
M  V30 77 1 38 73
M  V30 78 1 39 74
M  V30 END BOND
M  V30 END CTAB
M  END
>  <Dataset>  (230) 
ChEMBL_Kinases

>  <Ligand_Instance>  (230) 
nan

>  <PDB_ID>  (230) 
nan

>  <Standardized_SMILES>  (230) 
COc1ccccc1N(C(=O)Oc1c(C)cccc1C)c1ccnc(Nc2ccc(N3CCN(C)CC3)cc2)n1

>  <Name>  (230) 
nan

>  <Pocket>  (230) 
nan

>  <ATP_Site>  (230) 
nan

>  <Peripheral>  (230) 
nan

>  <Num_H_Atoms_ProtBoundConf>  (230) 
nan

>  <Num_Resolved_Atoms>  (230) 
nan

>  <Num_Not_Resolved_Atoms>  (230) 
nan

$$$$
CHEMBL211306
     RDKit          3D

  0  0  0  0  0  0  0  0  0  0999 V3000
M  V30 BEGIN CTAB
M  V30 COUNTS 42 46 0 0 0
M  V30 BEGIN ATOM
M  V30 1 O 4.067330 -2.418749 0.627539 0
M  V30 2 C 2.870787 -2.605605 0.974094 0
M  V30 3 N 2.302041 -3.838999 1.462473 0
M  V30 4 C 0.930791 -3.617011 1.736013 0
M  V30 5 O 0.308807 -4.592524 2.164495 0
M  V30 6 C 0.587481 -2.263646 1.437409 0
M  V30 7 C 1.747058 -1.680223 0.988056 0
M  V30 8 C 1.755183 -0.333222 0.603989 0
M  V30 9 C 2.929875 0.429387 0.103304 0
M  V30 10 C 3.046338 0.306488 -1.385430 0
M  V30 11 C 2.527224 1.429391 -2.192756 0
M  V30 12 C 2.270383 2.713471 -1.497678 0
M  V30 13 N 3.077734 2.850146 -0.345672 0
M  V30 14 C 3.036670 1.809327 0.626574 0
M  V30 15 C 0.600824 0.395172 0.679716 0
M  V30 16 C -0.562605 -0.195171 1.131937 0
M  V30 17 N -1.829508 0.288159 1.304833 0
M  V30 18 C -2.563147 -0.736151 1.775061 0
M  V30 19 C -3.917138 -0.685625 2.092112 0
M  V30 20 C -4.565348 -1.803626 2.568047 0
M  V30 21 C -3.824569 -2.972361 2.718425 0
M  V30 22 O -4.473775 -4.090634 3.194683 0
M  V30 23 C -2.490496 -2.945887 2.384394 0
M  V30 24 C -1.799386 -1.872853 1.910716 0
M  V30 25 C -0.548581 -1.520496 1.504599 0
M  V30 26 H 2.919933 -4.687047 1.550798 0
M  V30 27 H 3.810382 -0.130858 0.506062 0
M  V30 28 H 4.099108 0.060164 -1.713879 0
M  V30 29 H 2.484482 -0.633331 -1.666639 0
M  V30 30 H 3.230030 1.627525 -3.054704 0
M  V30 31 H 1.571851 1.132503 -2.724886 0
M  V30 32 H 2.569614 3.549485 -2.190065 0
M  V30 33 H 1.185552 2.920509 -1.326209 0
M  V30 34 H 3.058339 3.770954 0.105722 0
M  V30 35 H 2.214021 1.991077 1.347556 0
M  V30 36 H 3.964505 1.958936 1.253474 0
M  V30 37 H 0.508827 1.423667 0.409522 0
M  V30 38 H -2.134881 1.270220 1.100876 0
M  V30 39 H -4.503217 0.214413 1.980131 0
M  V30 40 H -5.609043 -1.748916 2.807973 0
M  V30 41 H -4.986031 -4.684127 2.549916 0
M  V30 42 H -2.002555 -3.876479 2.529130 0
M  V30 END ATOM
M  V30 BEGIN BOND
M  V30 1 2 1 2
M  V30 2 1 2 3
M  V30 3 1 3 4
M  V30 4 2 4 5
M  V30 5 1 4 6
M  V30 6 2 6 7
M  V30 7 1 7 8
M  V30 8 1 8 9
M  V30 9 1 9 10
M  V30 10 1 10 11
M  V30 11 1 11 12
M  V30 12 1 12 13
M  V30 13 1 13 14
M  V30 14 2 8 15
M  V30 15 1 15 16
M  V30 16 1 16 17
M  V30 17 1 17 18
M  V30 18 2 18 19
M  V30 19 1 19 20
M  V30 20 2 20 21
M  V30 21 1 21 22
M  V30 22 1 21 23
M  V30 23 2 23 24
M  V30 24 1 24 25
M  V30 25 1 7 2
M  V30 26 1 14 9
M  V30 27 2 25 16
M  V30 28 1 25 6
M  V30 29 1 24 18
M  V30 30 1 3 26
M  V30 31 1 9 27
M  V30 32 1 10 28
M  V30 33 1 10 29
M  V30 34 1 11 30
M  V30 35 1 11 31
M  V30 36 1 12 32
M  V30 37 1 12 33
M  V30 38 1 13 34
M  V30 39 1 14 35
M  V30 40 1 14 36
M  V30 41 1 15 37
M  V30 42 1 17 38
M  V30 43 1 19 39
M  V30 44 1 20 40
M  V30 45 1 22 41
M  V30 46 1 23 42
M  V30 END BOND
M  V30 END CTAB
M  END
>  <Dataset>  (231) 
ChEMBL_Kinases

>  <Ligand_Instance>  (231) 
nan

>  <PDB_ID>  (231) 
nan

>  <Standardized_SMILES>  (231) 
O=C1NC(=O)c2c1c(C1CCCNC1)cc1[nH]c3ccc(O)cc3c21

>  <Name>  (231) 
nan

>  <Pocket>  (231) 
nan

>  <ATP_Site>  (231) 
nan

>  <Peripheral>  (231) 
nan

>  <Num_H_Atoms_ProtBoundConf>  (231) 
nan

>  <Num_Resolved_Atoms>  (231) 
nan

>  <Num_Not_Resolved_Atoms>  (231) 
nan

$$$$
CHEMBL2113092
     RDKit          3D

  0  0  0  0  0  0  0  0  0  0999 V3000
M  V30 BEGIN CTAB
M  V30 COUNTS 55 57 0 0 0
M  V30 BEGIN ATOM
M  V30 1 C 5.167135 -1.854033 1.097766 0
M  V30 2 C 4.568781 -3.023329 0.378326 0
M  V30 3 C 3.926368 -2.679753 -0.940145 0
M  V30 4 C 2.800180 -1.686678 -0.787358 0
M  V30 5 O 1.759510 -2.126265 0.030931 0
M  V30 6 C 0.611195 -1.429744 0.343447 0
M  V30 7 C 0.531768 -0.181263 -0.226970 0
M  V30 8 C -0.565447 0.593003 0.028178 0
M  V30 9 N -0.764946 1.890573 -0.504203 0
M  V30 10 C -1.829928 2.806618 -0.324815 0
M  V30 11 C -2.903949 2.685715 0.522887 0
M  V30 12 C -3.921325 3.604619 0.655977 0
M  V30 13 C -3.828177 4.727332 -0.138309 0
M  V30 14 S -5.071967 5.941719 -0.033921 0
M  V30 15 N -6.329403 5.569545 -1.170840 0
M  V30 16 O -5.671175 5.932013 1.327212 0
M  V30 17 O -4.555884 7.323730 -0.317186 0
M  V30 18 C -2.789087 4.923940 -1.009926 0
M  V30 19 C -1.813396 3.954953 -1.080757 0
M  V30 20 N -1.504490 0.073738 0.830658 0
M  V30 21 C -1.434243 -1.153880 1.395144 0
M  V30 22 N -2.556372 -1.505572 2.221425 0
M  V30 23 C -0.353189 -1.962856 1.164758 0
M  V30 24 C -0.294408 -3.242300 1.818066 0
M  V30 25 O -1.116795 -3.311214 2.780047 0
M  V30 26 C 0.423982 -4.479122 1.707926 0
M  V30 27 C 0.711845 -5.168691 2.891807 0
M  V30 28 F 0.347783 -4.639210 4.088206 0
M  V30 29 C 1.366750 -6.398508 2.930862 0
M  V30 30 C 1.739253 -6.942635 1.728161 0
M  V30 31 C 1.491625 -6.329164 0.525743 0
M  V30 32 C 0.840388 -5.117227 0.561527 0
M  V30 33 F 0.585052 -4.612983 -0.655691 0
M  V30 34 H 5.287336 -2.153047 2.172647 0
M  V30 35 H 6.175678 -1.675315 0.669500 0
M  V30 36 H 4.529271 -0.960664 1.118000 0
M  V30 37 H 5.379547 -3.757064 0.192859 0
M  V30 38 H 3.862655 -3.518419 1.078729 0
M  V30 39 H 4.697215 -2.174618 -1.558697 0
M  V30 40 H 3.660515 -3.608717 -1.444477 0
M  V30 41 H 2.356965 -1.489379 -1.784485 0
M  V30 42 H 3.248682 -0.730032 -0.456582 0
M  V30 43 H 1.299164 0.227569 -0.875056 0
M  V30 44 H 0.026373 2.178755 -1.122496 0
M  V30 45 H -2.977461 1.819570 1.139985 0
M  V30 46 H -4.730383 3.446283 1.337788 0
M  V30 47 H -6.899871 4.776704 -0.768277 0
M  V30 48 H -5.888356 5.222138 -2.049213 0
M  V30 49 H -2.747967 5.818963 -1.619457 0
M  V30 50 H -1.010274 4.171037 -1.795642 0
M  V30 51 H -2.238076 -1.205523 3.189989 0
M  V30 52 H -3.271097 -1.925202 1.572357 0
M  V30 53 H 1.563313 -6.885391 3.869888 0
M  V30 54 H 2.241739 -7.886893 1.784743 0
M  V30 55 H 1.812681 -6.814762 -0.383787 0
M  V30 END ATOM
M  V30 BEGIN BOND
M  V30 1 1 1 2
M  V30 2 1 2 3
M  V30 3 1 3 4
M  V30 4 1 4 5
M  V30 5 1 5 6
M  V30 6 2 6 7
M  V30 7 1 7 8
M  V30 8 1 8 9
M  V30 9 1 9 10
M  V30 10 2 10 11
M  V30 11 1 11 12
M  V30 12 2 12 13
M  V30 13 1 13 14
M  V30 14 1 14 15
M  V30 15 2 14 16
M  V30 16 2 14 17
M  V30 17 1 13 18
M  V30 18 2 18 19
M  V30 19 2 8 20
M  V30 20 1 20 21
M  V30 21 1 21 22
M  V30 22 2 21 23
M  V30 23 1 23 24
M  V30 24 2 24 25
M  V30 25 1 24 26
M  V30 26 2 26 27
M  V30 27 1 27 28
M  V30 28 1 27 29
M  V30 29 2 29 30
M  V30 30 1 30 31
M  V30 31 2 31 32
M  V30 32 1 32 33
M  V30 33 1 23 6
M  V30 34 1 32 26
M  V30 35 1 19 10
M  V30 36 1 1 34
M  V30 37 1 1 35
M  V30 38 1 1 36
M  V30 39 1 2 37
M  V30 40 1 2 38
M  V30 41 1 3 39
M  V30 42 1 3 40
M  V30 43 1 4 41
M  V30 44 1 4 42
M  V30 45 1 7 43
M  V30 46 1 9 44
M  V30 47 1 11 45
M  V30 48 1 12 46
M  V30 49 1 15 47
M  V30 50 1 15 48
M  V30 51 1 18 49
M  V30 52 1 19 50
M  V30 53 1 22 51
M  V30 54 1 22 52
M  V30 55 1 29 53
M  V30 56 1 30 54
M  V30 57 1 31 55
M  V30 END BOND
M  V30 END CTAB
M  END
>  <Dataset>  (232) 
ChEMBL_Kinases

>  <Ligand_Instance>  (232) 
nan

>  <PDB_ID>  (232) 
nan

>  <Standardized_SMILES>  (232) 
CCCCOc1cc(Nc2ccc(S(N)(=O)=O)cc2)nc(N)c1C(=O)c1c(F)cccc1F

>  <Name>  (232) 
nan

>  <Pocket>  (232) 
nan

>  <ATP_Site>  (232) 
nan

>  <Peripheral>  (232) 
nan

>  <Num_H_Atoms_ProtBoundConf>  (232) 
nan

>  <Num_Resolved_Atoms>  (232) 
nan

>  <Num_Not_Resolved_Atoms>  (232) 
nan

$$$$
CHEMBL2113330
     RDKit          3D

  0  0  0  0  0  0  0  0  0  0999 V3000
M  V30 BEGIN CTAB
M  V30 COUNTS 92 95 0 0 0
M  V30 BEGIN ATOM
M  V30 1 C -1.244192 -0.659268 8.224456 0
M  V30 2 C -1.626318 -1.571741 7.138165 0
M  V30 3 C -2.825494 -2.185937 7.449116 0
M  V30 4 C -3.439197 -3.115625 6.600149 0
M  V30 5 N -4.668373 -3.776276 6.871919 0
M  V30 6 C -2.807539 -3.423006 5.400876 0
M  V30 7 C -3.290304 -4.305898 4.490316 0
M  V30 8 C -2.666883 -4.610716 3.308721 0
M  V30 9 C -1.459839 -3.948798 3.064298 0
M  V30 10 C -0.981106 -3.061027 3.989674 0
M  V30 11 C -1.624154 -2.755896 5.194094 0
M  V30 12 N -0.983884 -1.856603 5.964798 0 CHG=1 VAL=4
M  V30 13 C 0.218846 -1.176545 5.771551 0
M  V30 14 C 0.273881 0.183906 5.188681 0
M  V30 15 C -0.265981 0.463518 3.849512 0
M  V30 16 C -1.723706 0.367525 3.606674 0
M  V30 17 C -2.018206 0.679017 2.098478 0
M  V30 18 C -3.471125 0.584288 1.865869 0
M  V30 19 C -4.029153 0.828224 0.531661 0
M  V30 20 C -3.762809 -0.028704 -0.622158 0
M  V30 21 C -2.378946 -0.235259 -1.114117 0
M  V30 22 C -2.369420 -1.126602 -2.375542 0
M  V30 23 C -0.883979 -1.233192 -2.799572 0
M  V30 24 C -0.029037 -1.797097 -1.768098 0
M  V30 25 C 1.372982 -2.095716 -2.043979 0
M  V30 26 C 2.385620 -1.150087 -2.470483 0
M  V30 27 C 2.538456 -0.515077 -3.759925 0
M  V30 28 C 1.578128 0.357696 -4.450346 0
M  V30 29 N 2.261729 0.806545 -5.684603 0 CHG=1 VAL=4
M  V30 30 C 2.065483 0.058670 -6.807643 0
M  V30 31 C 1.195961 -1.143885 -6.848490 0
M  V30 32 C 2.737771 0.524396 -7.911942 0
M  V30 33 C 3.561785 1.616614 -8.024450 0
M  V30 34 N 4.188571 1.959665 -9.262123 0
M  V30 35 C 3.718963 2.331979 -6.846126 0
M  V30 36 C 4.529683 3.443470 -6.856086 0
M  V30 37 C 4.691789 4.161816 -5.671122 0
M  V30 38 C 4.046001 3.765534 -4.496256 0
M  V30 39 C 3.252150 2.642966 -4.569491 0
M  V30 40 C 3.050897 1.887593 -5.710593 0
M  V30 41 H -0.975427 -1.319579 9.106374 0
M  V30 42 H -0.353089 -0.076631 8.023814 0
M  V30 43 H -2.092171 -0.045577 8.589015 0
M  V30 44 H -3.434565 -2.054070 8.337159 0
M  V30 45 H -4.391175 -4.478379 7.612176 0
M  V30 46 H -5.423449 -3.351763 6.256189 0
M  V30 47 H -4.230882 -4.799506 4.717718 0
M  V30 48 H -3.124346 -5.324446 2.650856 0
M  V30 49 H -0.975444 -4.192789 2.128619 0
M  V30 50 H -0.046559 -2.619757 3.672658 0
M  V30 51 H 0.936272 -1.785605 5.108860 0
M  V30 52 H 0.800363 -1.139784 6.770888 0
M  V30 53 H -0.177114 0.957085 5.888020 0
M  V30 54 H 1.387667 0.483331 5.156168 0
M  V30 55 H 0.013373 1.540984 3.572103 0
M  V30 56 H 0.310184 -0.102357 3.034438 0
M  V30 57 H -2.280717 1.191158 4.164751 0
M  V30 58 H -2.265398 -0.528917 3.811649 0
M  V30 59 H -1.691115 1.739858 2.011622 0
M  V30 60 H -1.427246 0.028169 1.487921 0
M  V30 61 H -3.793213 -0.413570 2.291418 0
M  V30 62 H -3.952238 1.345512 2.567478 0
M  V30 63 H -3.815343 1.924760 0.277464 0
M  V30 64 H -5.168519 0.857799 0.673830 0
M  V30 65 H -4.441776 0.301776 -1.466361 0
M  V30 66 H -4.163200 -1.067432 -0.373540 0
M  V30 67 H -1.821760 -0.880941 -0.386836 0
M  V30 68 H -1.886466 0.699666 -1.390066 0
M  V30 69 H -2.769795 -2.125716 -2.161459 0
M  V30 70 H -2.862064 -0.606333 -3.217909 0
M  V30 71 H -0.640226 -0.139962 -2.932927 0
M  V30 72 H -0.792395 -1.715819 -3.765028 0
M  V30 73 H -0.007280 -1.062098 -0.865421 0
M  V30 74 H -0.559760 -2.675366 -1.273271 0
M  V30 75 H 1.792882 -2.593151 -1.064769 0
M  V30 76 H 1.402350 -3.040945 -2.757347 0
M  V30 77 H 3.440802 -1.526917 -2.114903 0
M  V30 78 H 2.318402 -0.263505 -1.694175 0
M  V30 79 H 3.509360 0.143602 -3.690640 0
M  V30 80 H 2.957499 -1.309013 -4.494352 0
M  V30 81 H 0.672620 -0.222019 -4.802173 0
M  V30 82 H 1.266611 1.172797 -3.797962 0
M  V30 83 H 1.571945 -2.007670 -6.299790 0
M  V30 84 H 1.177643 -1.475090 -7.926920 0
M  V30 85 H 0.133257 -0.899732 -6.637963 0
M  V30 86 H 2.597165 -0.055040 -8.821120 0
M  V30 87 H 3.866568 2.546174 -10.059249 0
M  V30 88 H 5.134364 1.486188 -9.268840 0
M  V30 89 H 5.007656 3.718113 -7.768868 0
M  V30 90 H 5.335356 5.016792 -5.745246 0
M  V30 91 H 4.194625 4.340970 -3.608503 0
M  V30 92 H 2.796639 2.409856 -3.618066 0
M  V30 END ATOM
M  V30 BEGIN BOND
M  V30 1 1 1 2
M  V30 2 2 2 3
M  V30 3 1 3 4
M  V30 4 1 4 5
M  V30 5 2 4 6
M  V30 6 1 6 7
M  V30 7 2 7 8
M  V30 8 1 8 9
M  V30 9 2 9 10
M  V30 10 1 10 11
M  V30 11 2 11 12
M  V30 12 1 12 13
M  V30 13 1 13 14
M  V30 14 1 14 15
M  V30 15 1 15 16
M  V30 16 1 16 17
M  V30 17 1 17 18
M  V30 18 1 18 19
M  V30 19 1 19 20
M  V30 20 1 20 21
M  V30 21 1 21 22
M  V30 22 1 22 23
M  V30 23 1 23 24
M  V30 24 1 24 25
M  V30 25 1 25 26
M  V30 26 1 26 27
M  V30 27 1 27 28
M  V30 28 1 28 29
M  V30 29 2 29 30
M  V30 30 1 30 31
M  V30 31 1 30 32
M  V30 32 2 32 33
M  V30 33 1 33 34
M  V30 34 1 33 35
M  V30 35 2 35 36
M  V30 36 1 36 37
M  V30 37 2 37 38
M  V30 38 1 38 39
M  V30 39 2 39 40
M  V30 40 1 12 2
M  V30 41 1 40 29
M  V30 42 1 11 6
M  V30 43 1 40 35
M  V30 44 1 1 41
M  V30 45 1 1 42
M  V30 46 1 1 43
M  V30 47 1 3 44
M  V30 48 1 5 45
M  V30 49 1 5 46
M  V30 50 1 7 47
M  V30 51 1 8 48
M  V30 52 1 9 49
M  V30 53 1 10 50
M  V30 54 1 13 51
M  V30 55 1 13 52
M  V30 56 1 14 53
M  V30 57 1 14 54
M  V30 58 1 15 55
M  V30 59 1 15 56
M  V30 60 1 16 57
M  V30 61 1 16 58
M  V30 62 1 17 59
M  V30 63 1 17 60
M  V30 64 1 18 61
M  V30 65 1 18 62
M  V30 66 1 19 63
M  V30 67 1 19 64
M  V30 68 1 20 65
M  V30 69 1 20 66
M  V30 70 1 21 67
M  V30 71 1 21 68
M  V30 72 1 22 69
M  V30 73 1 22 70
M  V30 74 1 23 71
M  V30 75 1 23 72
M  V30 76 1 24 73
M  V30 77 1 24 74
M  V30 78 1 25 75
M  V30 79 1 25 76
M  V30 80 1 26 77
M  V30 81 1 26 78
M  V30 82 1 27 79
M  V30 83 1 27 80
M  V30 84 1 28 81
M  V30 85 1 28 82
M  V30 86 1 31 83
M  V30 87 1 31 84
M  V30 88 1 31 85
M  V30 89 1 32 86
M  V30 90 1 34 87
M  V30 91 1 34 88
M  V30 92 1 36 89
M  V30 93 1 37 90
M  V30 94 1 38 91
M  V30 95 1 39 92
M  V30 END BOND
M  V30 END CTAB
M  END
>  <Dataset>  (233) 
ChEMBL_Kinases

>  <Ligand_Instance>  (233) 
nan

>  <PDB_ID>  (233) 
nan

>  <Standardized_SMILES>  (233) 
Cc1cc(N)c2ccccc2[n+]1CCCCCCCCCCCCCCCC[n+]1c(C)cc(N)c2ccccc21

>  <Name>  (233) 
nan

>  <Pocket>  (233) 
nan

>  <ATP_Site>  (233) 
nan

>  <Peripheral>  (233) 
nan

>  <Num_H_Atoms_ProtBoundConf>  (233) 
nan

>  <Num_Resolved_Atoms>  (233) 
nan

>  <Num_Not_Resolved_Atoms>  (233) 
nan

$$$$
CHEMBL2113338
     RDKit          3D

  0  0  0  0  0  0  0  0  0  0999 V3000
M  V30 BEGIN CTAB
M  V30 COUNTS 80 83 0 0 0
M  V30 BEGIN ATOM
M  V30 1 C 1.896325 -0.675247 5.220743 0
M  V30 2 C 2.696665 0.090889 4.259604 0
M  V30 3 C 4.032207 -0.305761 4.150313 0
M  V30 4 C 4.945293 0.298992 3.326435 0
M  V30 5 N 6.282643 -0.134866 3.248234 0
M  V30 6 C 4.480626 1.352110 2.581959 0
M  V30 7 C 5.386875 1.973478 1.748887 0
M  V30 8 C 5.001977 3.029408 0.977501 0
M  V30 9 C 3.694960 3.451950 1.054797 0
M  V30 10 C 2.820216 2.802967 1.900818 0
M  V30 11 C 3.159834 1.729231 2.702349 0
M  V30 12 N 2.247493 1.136958 3.514401 0 CHG=1 VAL=4
M  V30 13 C 0.900760 1.634764 3.570053 0
M  V30 14 C 0.088912 1.007786 2.469718 0
M  V30 15 C 0.031070 -0.486677 2.580045 0
M  V30 16 C -0.800279 -1.088977 1.439794 0
M  V30 17 C -2.207635 -0.555621 1.489054 0
M  V30 18 C -3.024024 -1.187898 0.329624 0
M  V30 19 C -4.417404 -0.657753 0.380597 0
M  V30 20 C -5.340042 -1.174669 -0.645367 0
M  V30 21 C -5.141740 -0.910501 -2.061949 0
M  V30 22 C -3.938407 -1.362108 -2.797964 0
M  V30 23 C -3.714212 -2.840670 -2.756701 0
M  V30 24 C -2.518363 -3.310104 -3.530389 0
M  V30 25 N -1.329330 -2.709658 -3.069854 0 CHG=1 VAL=4
M  V30 26 C -0.727498 -3.288621 -1.992958 0
M  V30 27 C -1.161376 -4.459449 -1.201128 0
M  V30 28 C 0.475492 -2.768051 -1.499320 0
M  V30 29 C 1.104773 -1.682663 -2.045637 0
M  V30 30 N 2.324168 -1.138928 -1.560200 0
M  V30 31 C 0.487251 -1.093484 -3.147471 0
M  V30 32 C 1.082590 -0.007285 -3.752997 0
M  V30 33 C 0.509775 0.588367 -4.857000 0
M  V30 34 C -0.686144 0.051237 -5.331393 0
M  V30 35 C -1.216408 -1.016783 -4.687610 0
M  V30 36 C -0.693772 -1.657704 -3.579237 0
M  V30 37 H 1.486282 -1.628270 4.796754 0
M  V30 38 H 1.089984 -0.089210 5.687764 0
M  V30 39 H 2.567999 -1.019706 6.060908 0
M  V30 40 H 4.422531 -1.148875 4.740296 0
M  V30 41 H 6.893807 0.389921 3.902518 0
M  V30 42 H 6.643016 -0.893874 2.614371 0
M  V30 43 H 6.408187 1.635282 1.695333 0
M  V30 44 H 5.722499 3.494536 0.339758 0
M  V30 45 H 3.427529 4.288626 0.431079 0
M  V30 46 H 1.843238 3.216795 1.877292 0
M  V30 47 H 0.426289 1.392873 4.563923 0
M  V30 48 H 0.857385 2.747486 3.540539 0
M  V30 49 H 0.470118 1.332312 1.465548 0
M  V30 50 H -0.948943 1.438222 2.511804 0
M  V30 51 H 1.068051 -0.855637 2.503389 0
M  V30 52 H -0.401566 -0.776682 3.540018 0
M  V30 53 H -0.319451 -0.760428 0.495015 0
M  V30 54 H -0.749954 -2.177782 1.473717 0
M  V30 55 H -2.703074 -0.750538 2.440374 0
M  V30 56 H -2.239113 0.522611 1.257575 0
M  V30 57 H -2.490534 -1.077165 -0.595881 0
M  V30 58 H -3.034056 -2.280840 0.602925 0
M  V30 59 H -4.388654 0.483824 0.339267 0
M  V30 60 H -4.837097 -0.812737 1.430818 0
M  V30 61 H -5.491384 -2.296934 -0.498119 0
M  V30 62 H -6.376077 -0.742786 -0.370556 0
M  V30 63 H -6.044298 -1.173266 -2.692633 0
M  V30 64 H -5.134052 0.232851 -2.181605 0
M  V30 65 H -4.195465 -1.148554 -3.911201 0
M  V30 66 H -3.053122 -0.747898 -2.651264 0
M  V30 67 H -3.665683 -3.116267 -1.680635 0
M  V30 68 H -4.602211 -3.326972 -3.245215 0
M  V30 69 H -2.447859 -4.417981 -3.359101 0
M  V30 70 H -2.796753 -3.120825 -4.594124 0
M  V30 71 H -2.111850 -4.902204 -1.454483 0
M  V30 72 H -0.407478 -5.297415 -1.263959 0
M  V30 73 H -1.135747 -4.173038 -0.121709 0
M  V30 74 H 1.028101 -3.168956 -0.639246 0
M  V30 75 H 3.213131 -0.983601 -2.087504 0
M  V30 76 H 2.213238 -0.900502 -0.552012 0
M  V30 77 H 2.024709 0.360336 -3.322186 0
M  V30 78 H 1.053985 1.420093 -5.244818 0
M  V30 79 H -1.105060 0.531364 -6.185350 0
M  V30 80 H -2.142454 -1.361398 -5.123321 0
M  V30 END ATOM
M  V30 BEGIN BOND
M  V30 1 1 1 2
M  V30 2 2 2 3
M  V30 3 1 3 4
M  V30 4 1 4 5
M  V30 5 2 4 6
M  V30 6 1 6 7
M  V30 7 2 7 8
M  V30 8 1 8 9
M  V30 9 2 9 10
M  V30 10 1 10 11
M  V30 11 2 11 12
M  V30 12 1 12 13
M  V30 13 1 13 14
M  V30 14 1 14 15
M  V30 15 1 15 16
M  V30 16 1 16 17
M  V30 17 1 17 18
M  V30 18 1 18 19
M  V30 19 1 19 20
M  V30 20 1 20 21
M  V30 21 1 21 22
M  V30 22 1 22 23
M  V30 23 1 23 24
M  V30 24 1 24 25
M  V30 25 2 25 26
M  V30 26 1 26 27
M  V30 27 1 26 28
M  V30 28 2 28 29
M  V30 29 1 29 30
M  V30 30 1 29 31
M  V30 31 2 31 32
M  V30 32 1 32 33
M  V30 33 2 33 34
M  V30 34 1 34 35
M  V30 35 2 35 36
M  V30 36 1 12 2
M  V30 37 1 36 25
M  V30 38 1 11 6
M  V30 39 1 36 31
M  V30 40 1 1 37
M  V30 41 1 1 38
M  V30 42 1 1 39
M  V30 43 1 3 40
M  V30 44 1 5 41
M  V30 45 1 5 42
M  V30 46 1 7 43
M  V30 47 1 8 44
M  V30 48 1 9 45
M  V30 49 1 10 46
M  V30 50 1 13 47
M  V30 51 1 13 48
M  V30 52 1 14 49
M  V30 53 1 14 50
M  V30 54 1 15 51
M  V30 55 1 15 52
M  V30 56 1 16 53
M  V30 57 1 16 54
M  V30 58 1 17 55
M  V30 59 1 17 56
M  V30 60 1 18 57
M  V30 61 1 18 58
M  V30 62 1 19 59
M  V30 63 1 19 60
M  V30 64 1 20 61
M  V30 65 1 20 62
M  V30 66 1 21 63
M  V30 67 1 21 64
M  V30 68 1 22 65
M  V30 69 1 22 66
M  V30 70 1 23 67
M  V30 71 1 23 68
M  V30 72 1 24 69
M  V30 73 1 24 70
M  V30 74 1 27 71
M  V30 75 1 27 72
M  V30 76 1 27 73
M  V30 77 1 28 74
M  V30 78 1 30 75
M  V30 79 1 30 76
M  V30 80 1 32 77
M  V30 81 1 33 78
M  V30 82 1 34 79
M  V30 83 1 35 80
M  V30 END BOND
M  V30 END CTAB
M  END
>  <Dataset>  (234) 
ChEMBL_Kinases

>  <Ligand_Instance>  (234) 
nan

>  <PDB_ID>  (234) 
nan

>  <Standardized_SMILES>  (234) 
Cc1cc(N)c2ccccc2[n+]1CCCCCCCCCCCC[n+]1c(C)cc(N)c2ccccc21

>  <Name>  (234) 
nan

>  <Pocket>  (234) 
nan

>  <ATP_Site>  (234) 
nan

>  <Peripheral>  (234) 
nan

>  <Num_H_Atoms_ProtBoundConf>  (234) 
nan

>  <Num_Resolved_Atoms>  (234) 
nan

>  <Num_Not_Resolved_Atoms>  (234) 
nan

$$$$
CHEMBL211359
     RDKit          3D

  0  0  0  0  0  0  0  0  0  0999 V3000
M  V30 BEGIN CTAB
M  V30 COUNTS 38 39 0 0 0
M  V30 BEGIN ATOM
M  V30 1 C 1.938837 -2.921491 3.225387 0
M  V30 2 C 1.799171 -3.225391 1.766325 0
M  V30 3 C 1.553768 -4.520642 1.298813 0
M  V30 4 C 1.437893 -4.716196 -0.077006 0
M  V30 5 I 1.065621 -6.718784 -0.658854 0
M  V30 6 C 1.556588 -3.679145 -0.989929 0
M  V30 7 C 1.795750 -2.419847 -0.525259 0
M  V30 8 C 1.911552 -2.217483 0.831252 0
M  V30 9 N 2.157716 -0.923367 1.309383 0
M  V30 10 C 2.319140 0.260487 0.582512 0
M  V30 11 S 3.794426 0.999941 -0.031685 0
M  V30 12 N 2.968065 2.471900 -0.817852 0
M  V30 13 C 1.608817 2.149258 -0.466796 0
M  V30 14 O 0.998273 3.260224 -1.061633 0
M  V30 15 C 1.262535 1.025631 0.246609 0
M  V30 16 C -0.175262 0.970051 0.442904 0
M  V30 17 N -0.528960 -0.169758 1.165755 0
M  V30 18 N -1.156684 1.706655 0.115242 0
M  V30 19 C -2.536354 1.420566 0.442483 0
M  V30 20 C -3.372007 2.365398 -0.390567 0
M  V30 21 C -2.703505 1.646471 1.930752 0
M  V30 22 H 1.718588 -3.834560 3.811072 0
M  V30 23 H 1.204694 -2.129827 3.465326 0
M  V30 24 H 2.965100 -2.545645 3.455237 0
M  V30 25 H 1.464863 -5.307867 2.013232 0
M  V30 26 H 1.440180 -3.996138 -2.029710 0
M  V30 27 H 1.881338 -1.642644 -1.257883 0
M  V30 28 H 2.256640 -0.664558 2.314029 0
M  V30 29 H 0.594741 3.987348 -0.449488 0
M  V30 30 H -1.001585 -0.861822 0.517566 0
M  V30 31 H -1.009001 -0.901663 0.563767 0
M  V30 32 H -2.824799 0.380249 0.189405 0
M  V30 33 H -2.795718 3.270079 -0.646058 0
M  V30 34 H -4.284749 2.684780 0.135911 0
M  V30 35 H -3.645114 1.847338 -1.320976 0
M  V30 36 H -1.720323 1.678326 2.445721 0
M  V30 37 H -3.277660 0.813189 2.408207 0
M  V30 38 H -3.187856 2.637805 2.128984 0
M  V30 END ATOM
M  V30 BEGIN BOND
M  V30 1 1 1 2
M  V30 2 2 2 3
M  V30 3 1 3 4
M  V30 4 1 4 5
M  V30 5 2 4 6
M  V30 6 1 6 7
M  V30 7 2 7 8
M  V30 8 1 8 9
M  V30 9 1 9 10
M  V30 10 1 10 11
M  V30 11 1 11 12
M  V30 12 2 12 13
M  V30 13 1 13 14
M  V30 14 1 13 15
M  V30 15 1 15 16
M  V30 16 1 16 17
M  V30 17 2 16 18
M  V30 18 1 18 19
M  V30 19 1 19 20
M  V30 20 1 19 21
M  V30 21 1 8 2
M  V30 22 2 15 10
M  V30 23 1 1 22
M  V30 24 1 1 23
M  V30 25 1 1 24
M  V30 26 1 3 25
M  V30 27 1 6 26
M  V30 28 1 7 27
M  V30 29 1 9 28
M  V30 30 1 14 29
M  V30 31 1 17 30
M  V30 32 1 17 31
M  V30 33 1 19 32
M  V30 34 1 20 33
M  V30 35 1 20 34
M  V30 36 1 20 35
M  V30 37 1 21 36
M  V30 38 1 21 37
M  V30 39 1 21 38
M  V30 END BOND
M  V30 END CTAB
M  END
>  <Dataset>  (235) 
ChEMBL_Kinases

>  <Ligand_Instance>  (235) 
nan

>  <PDB_ID>  (235) 
nan

>  <Standardized_SMILES>  (235) 
Cc1cc(I)ccc1Nc1snc(O)c1/C(N)=N/C(C)C

>  <Name>  (235) 
nan

>  <Pocket>  (235) 
nan

>  <ATP_Site>  (235) 
nan

>  <Peripheral>  (235) 
nan

>  <Num_H_Atoms_ProtBoundConf>  (235) 
nan

>  <Num_Resolved_Atoms>  (235) 
nan

>  <Num_Not_Resolved_Atoms>  (235) 
nan

$$$$
CHEMBL211362
     RDKit          3D

  0  0  0  0  0  0  0  0  0  0999 V3000
M  V30 BEGIN CTAB
M  V30 COUNTS 39 42 0 0 0
M  V30 BEGIN ATOM
M  V30 1 C 1.443480 -4.545271 2.283429 0
M  V30 2 C 0.408911 -3.563924 1.756927 0
M  V30 3 C -0.939980 -4.234717 1.863123 0
M  V30 4 C 0.785807 -3.251792 0.344591 0
M  V30 5 N 0.840824 -4.050700 -0.742910 0
M  V30 6 N 1.219132 -3.400270 -1.807213 0
M  V30 7 C 1.427140 -2.133024 -1.443071 0
M  V30 8 C 1.827462 -0.954743 -2.055680 0
M  V30 9 C 1.959937 0.253198 -1.404596 0
M  V30 10 C 1.669797 0.284478 -0.036413 0
M  V30 11 C 1.840836 1.600088 0.564720 0
M  V30 12 O 2.975148 2.278599 0.719258 0
M  V30 13 C 2.707626 3.430673 1.307807 0
M  V30 14 N 1.400035 3.530897 1.549954 0
M  V30 15 C 0.843620 2.392065 1.090201 0
M  V30 16 C -0.588179 2.155337 1.190047 0
M  V30 17 C -1.288951 1.219509 1.902392 0
M  V30 18 C -2.665618 1.179413 1.841774 0
M  V30 19 C -3.408593 2.051186 1.083848 0
M  V30 20 Cl -5.142108 1.900760 1.089374 0
M  V30 21 C -2.737782 3.004518 0.355620 0
M  V30 22 C -1.343197 3.042771 0.418891 0
M  V30 23 Cl -0.614625 4.321472 -0.568170 0
M  V30 24 C 1.277976 -0.888087 0.543764 0
M  V30 25 N 1.165350 -2.028353 -0.127956 0
M  V30 26 H 1.076023 -5.566365 2.021849 0
M  V30 27 H 2.435742 -4.336628 1.806854 0
M  V30 28 H 1.479336 -4.512963 3.378856 0
M  V30 29 H 0.484462 -2.659570 2.399188 0
M  V30 30 H -0.878486 -5.209368 2.425385 0
M  V30 31 H -1.269696 -4.462592 0.847115 0
M  V30 32 H -1.617989 -3.559855 2.417991 0
M  V30 33 H 2.047742 -1.001107 -3.118800 0
M  V30 34 H 2.278684 1.107048 -1.980951 0
M  V30 35 H 3.469736 4.154606 1.539417 0
M  V30 36 H -0.652592 0.564161 2.480228 0
M  V30 37 H -3.085109 0.388278 2.455967 0
M  V30 38 H -3.314818 3.681697 -0.232683 0
M  V30 39 H 1.069884 -0.822229 1.585986 0
M  V30 END ATOM
M  V30 BEGIN BOND
M  V30 1 1 1 2
M  V30 2 1 2 3
M  V30 3 1 2 4
M  V30 4 2 4 5
M  V30 5 1 5 6
M  V30 6 2 6 7
M  V30 7 1 7 8
M  V30 8 2 8 9
M  V30 9 1 9 10
M  V30 10 1 10 11
M  V30 11 1 11 12
M  V30 12 1 12 13
M  V30 13 2 13 14
M  V30 14 1 14 15
M  V30 15 1 15 16
M  V30 16 2 16 17
M  V30 17 1 17 18
M  V30 18 2 18 19
M  V30 19 1 19 20
M  V30 20 1 19 21
M  V30 21 2 21 22
M  V30 22 1 22 23
M  V30 23 2 10 24
M  V30 24 1 24 25
M  V30 25 1 25 4
M  V30 26 1 25 7
M  V30 27 2 15 11
M  V30 28 1 22 16
M  V30 29 1 1 26
M  V30 30 1 1 27
M  V30 31 1 1 28
M  V30 32 1 2 29
M  V30 33 1 3 30
M  V30 34 1 3 31
M  V30 35 1 3 32
M  V30 36 1 8 33
M  V30 37 1 9 34
M  V30 38 1 13 35
M  V30 39 1 17 36
M  V30 40 1 18 37
M  V30 41 1 21 38
M  V30 42 1 24 39
M  V30 END BOND
M  V30 END CTAB
M  END
>  <Dataset>  (236) 
ChEMBL_Kinases

>  <Ligand_Instance>  (236) 
nan

>  <PDB_ID>  (236) 
nan

>  <Standardized_SMILES>  (236) 
CC(C)c1nnc2ccc(-c3ocnc3-c3ccc(Cl)cc3Cl)cn12

>  <Name>  (236) 
nan

>  <Pocket>  (236) 
nan

>  <ATP_Site>  (236) 
nan

>  <Peripheral>  (236) 
nan

>  <Num_H_Atoms_ProtBoundConf>  (236) 
nan

>  <Num_Resolved_Atoms>  (236) 
nan

>  <Num_Not_Resolved_Atoms>  (236) 
nan

$$$$
CHEMBL211426
     RDKit          3D

  0  0  0  0  0  0  0  0  0  0999 V3000
M  V30 BEGIN CTAB
M  V30 COUNTS 52 55 0 0 0
M  V30 BEGIN ATOM
M  V30 1 C -4.166223 -2.207411 -3.929787 0
M  V30 2 N -3.101480 -1.374145 -3.527914 0
M  V30 3 C -3.480300 -0.328535 -2.651988 0
M  V30 4 C -1.790097 -1.861301 -3.539060 0
M  V30 5 C -1.422113 -2.926169 -2.569532 0
M  V30 6 O -1.561595 -2.577969 -1.220552 0
M  V30 7 C -0.851718 -1.551614 -0.656688 0
M  V30 8 N -1.046334 -1.283944 0.646925 0
M  V30 9 C -0.391196 -0.288005 1.303720 0
M  V30 10 C -0.751123 -0.136637 2.715361 0
M  V30 11 C 0.252705 -0.295812 3.652061 0
M  V30 12 C 0.042379 -0.183659 5.009005 0
M  V30 13 C -1.224315 0.099739 5.453438 0
M  V30 14 C -2.249315 0.263058 4.550073 0
M  V30 15 C -2.032512 0.147693 3.176607 0
M  V30 16 Cl -3.291681 0.344800 1.984113 0
M  V30 17 C 0.513303 0.493905 0.629895 0
M  V30 18 C 0.710069 0.218179 -0.704671 0
M  V30 19 N 0.036016 -0.778197 -1.302601 0
M  V30 20 N 1.603364 0.960988 -1.527562 0
M  V30 21 C 1.830164 0.699022 -2.910035 0
M  V30 22 C 2.872590 -0.188327 -3.118390 0
M  V30 23 Cl 3.825571 -0.916704 -1.842862 0
M  V30 24 C 3.240331 -0.566519 -4.405671 0
M  V30 25 C 2.511139 -0.010159 -5.458143 0
M  V30 26 C 1.490156 0.860561 -5.231216 0
M  V30 27 C 1.126361 1.234339 -3.967554 0
M  V30 28 Cl -0.147191 2.332896 -3.482084 0
M  V30 29 C 2.345322 2.048276 -0.984684 0
M  V30 30 O 3.170908 2.802543 -1.564591 0
M  V30 31 N 2.103883 2.295945 0.403896 0
M  V30 32 C 1.214747 1.574537 1.319152 0
M  V30 33 H -5.066857 -1.548249 -4.089570 0
M  V30 34 H -3.992599 -2.686432 -4.912921 0
M  V30 35 H -4.483134 -2.947629 -3.154469 0
M  V30 36 H -4.560297 -0.080683 -2.875075 0
M  V30 37 H -2.930992 0.608657 -2.950381 0
M  V30 38 H -3.361090 -0.592256 -1.592496 0
M  V30 39 H -1.531266 -2.207112 -4.581851 0
M  V30 40 H -1.080858 -0.996601 -3.361870 0
M  V30 41 H -1.897646 -3.909718 -2.786456 0
M  V30 42 H -0.320759 -3.129789 -2.728833 0
M  V30 43 H 1.308250 -0.540238 3.470193 0
M  V30 44 H 0.767663 -0.294285 5.801179 0
M  V30 45 H -1.590619 0.225997 6.463009 0
M  V30 46 H -3.292672 0.491510 4.795225 0
M  V30 47 H 4.044331 -1.253891 -4.642401 0
M  V30 48 H 2.729253 -0.250305 -6.507725 0
M  V30 49 H 0.884557 1.326928 -6.017596 0
M  V30 50 H 2.612992 3.099804 0.873756 0
M  V30 51 H 1.826909 1.304391 2.175936 0
M  V30 52 H 0.430705 2.346216 1.579573 0
M  V30 END ATOM
M  V30 BEGIN BOND
M  V30 1 1 1 2
M  V30 2 1 2 3
M  V30 3 1 2 4
M  V30 4 1 4 5
M  V30 5 1 5 6
M  V30 6 1 6 7
M  V30 7 2 7 8
M  V30 8 1 8 9
M  V30 9 1 9 10
M  V30 10 2 10 11
M  V30 11 1 11 12
M  V30 12 2 12 13
M  V30 13 1 13 14
M  V30 14 2 14 15
M  V30 15 1 15 16
M  V30 16 2 9 17
M  V30 17 1 17 18
M  V30 18 2 18 19
M  V30 19 1 18 20
M  V30 20 1 20 21
M  V30 21 2 21 22
M  V30 22 1 22 23
M  V30 23 1 22 24
M  V30 24 2 24 25
M  V30 25 1 25 26
M  V30 26 2 26 27
M  V30 27 1 27 28
M  V30 28 1 20 29
M  V30 29 2 29 30
M  V30 30 1 29 31
M  V30 31 1 31 32
M  V30 32 1 19 7
M  V30 33 1 27 21
M  V30 34 1 15 10
M  V30 35 1 32 17
M  V30 36 1 1 33
M  V30 37 1 1 34
M  V30 38 1 1 35
M  V30 39 1 3 36
M  V30 40 1 3 37
M  V30 41 1 3 38
M  V30 42 1 4 39
M  V30 43 1 4 40
M  V30 44 1 5 41
M  V30 45 1 5 42
M  V30 46 1 11 43
M  V30 47 1 12 44
M  V30 48 1 13 45
M  V30 49 1 14 46
M  V30 50 1 24 47
M  V30 51 1 25 48
M  V30 52 1 26 49
M  V30 53 1 31 50
M  V30 54 1 32 51
M  V30 55 1 32 52
M  V30 END BOND
M  V30 END CTAB
M  END
>  <Dataset>  (237) 
ChEMBL_Kinases

>  <Ligand_Instance>  (237) 
nan

>  <PDB_ID>  (237) 
nan

>  <Standardized_SMILES>  (237) 
CN(C)CCOc1nc(-c2ccccc2Cl)c2c(n1)N(c1c(Cl)cccc1Cl)C(=O)NC2

>  <Name>  (237) 
nan

>  <Pocket>  (237) 
nan

>  <ATP_Site>  (237) 
nan

>  <Peripheral>  (237) 
nan

>  <Num_H_Atoms_ProtBoundConf>  (237) 
nan

>  <Num_Resolved_Atoms>  (237) 
nan

>  <Num_Not_Resolved_Atoms>  (237) 
nan

$$$$
CHEMBL211434
     RDKit          3D

  0  0  0  0  0  0  0  0  0  0999 V3000
M  V30 BEGIN CTAB
M  V30 COUNTS 65 71 0 0 0
M  V30 BEGIN ATOM
M  V30 1 O 4.229502 0.345667 7.946590 0
M  V30 2 C 4.041065 0.292441 6.711116 0
M  V30 3 C 5.162282 -0.036508 5.816416 0
M  V30 4 C 4.563100 0.012003 4.453437 0
M  V30 5 C 4.968487 -0.167127 3.136966 0
M  V30 6 C 4.048975 -0.027318 2.078542 0
M  V30 7 C 2.693485 0.295921 2.301464 0
M  V30 8 N 2.208052 0.319671 0.947001 0
M  V30 9 C 1.967774 -0.963678 0.313754 0 CFG=2
M  V30 10 C 2.475259 -0.952226 -1.117009 0
M  V30 11 O 1.948777 -0.125028 -2.026277 0
M  V30 12 C 0.837351 0.137746 -2.703816 0
M  V30 13 C 1.079869 1.273873 -3.503237 0
M  V30 14 N 0.125975 1.801918 -4.330804 0
M  V30 15 C -1.103668 1.212251 -4.388435 0
M  V30 16 C -1.411694 0.103991 -3.640004 0
M  V30 17 C -2.701700 -0.555647 -3.695365 0
M  V30 18 C -3.047728 -1.664860 -2.964873 0
M  V30 19 C -4.279679 -2.283487 -3.037381 0
M  V30 20 C -5.235921 -1.767410 -3.892890 0
M  V30 21 C -4.868379 -0.648969 -4.620312 0
M  V30 22 N -3.657309 -0.080991 -4.517075 0
M  V30 23 N -5.976735 -0.304347 -5.413848 0
M  V30 24 C -7.048667 -1.212251 -5.183341 0
M  V30 25 O -8.211241 -1.403709 -5.572925 0
M  V30 26 C -6.615450 -2.212406 -4.174371 0
M  V30 27 C -0.431296 -0.370554 -2.842946 0
M  V30 28 C 0.572594 -1.464635 0.409734 0
M  V30 29 C 0.026528 -1.684719 1.752886 0
M  V30 30 C -0.054523 -2.906384 2.425701 0
M  V30 31 N -0.598590 -2.737552 3.636470 0
M  V30 32 C -0.902340 -1.445008 3.839645 0
M  V30 33 C -1.476312 -0.765631 4.899579 0
M  V30 34 C -1.665663 0.594521 4.784386 0
M  V30 35 C -1.287456 1.252072 3.634090 0
M  V30 36 C -0.705223 0.578240 2.552820 0
M  V30 37 C -0.514590 -0.804633 2.675752 0
M  V30 38 N 2.363473 0.455439 3.582586 0
M  V30 39 C 3.225966 0.326227 4.597792 0
M  V30 40 N 2.844894 0.509781 5.953037 0
M  V30 41 H 5.987195 0.679730 5.891309 0
M  V30 42 H 5.581182 -1.038352 6.046001 0
M  V30 43 H 6.032919 -0.413468 3.103023 0
M  V30 44 H 4.656012 -0.224076 1.190772 0
M  V30 45 H 2.112501 1.315123 0.649200 0
M  V30 46 H 2.613369 -1.707551 0.849911 0
M  V30 47 H 2.498931 -2.042390 -1.398520 0
M  V30 48 H 3.599390 -0.715389 -1.058907 0
M  V30 49 H 1.968528 1.882916 -3.607759 0
M  V30 50 H -1.881646 1.612387 -5.040003 0
M  V30 51 H -2.359009 -2.106199 -2.293063 0
M  V30 52 H -4.502019 -3.172583 -2.426123 0
M  V30 53 H -6.138550 0.454946 -6.100815 0
M  V30 54 H -7.261845 -2.179085 -3.286100 0
M  V30 55 H -6.657254 -3.228656 -4.577458 0
M  V30 56 H -0.552388 -1.239693 -2.226769 0
M  V30 57 H -0.076012 -0.629686 -0.040268 0
M  V30 58 H 0.401205 -2.305587 -0.288220 0
M  V30 59 H 0.284142 -3.865129 2.007843 0
M  V30 60 H -0.761031 -3.509887 4.322413 0
M  V30 61 H -1.742526 -1.362404 5.762574 0
M  V30 62 H -2.115389 1.064797 5.639828 0
M  V30 63 H -1.466097 2.323163 3.611852 0
M  V30 64 H -0.419939 1.122568 1.663814 0
M  V30 65 H 1.928025 0.750012 6.385398 0
M  V30 END ATOM
M  V30 BEGIN BOND
M  V30 1 2 1 2
M  V30 2 1 2 3
M  V30 3 1 3 4
M  V30 4 2 4 5
M  V30 5 1 5 6
M  V30 6 2 6 7
M  V30 7 1 7 8
M  V30 8 1 8 9
M  V30 9 1 9 10
M  V30 10 1 10 11
M  V30 11 1 11 12
M  V30 12 2 12 13
M  V30 13 1 13 14
M  V30 14 2 14 15
M  V30 15 1 15 16
M  V30 16 1 16 17
M  V30 17 2 17 18
M  V30 18 1 18 19
M  V30 19 2 19 20
M  V30 20 1 20 21
M  V30 21 2 21 22
M  V30 22 1 21 23
M  V30 23 1 23 24
M  V30 24 2 24 25
M  V30 25 1 24 26
M  V30 26 2 16 27
M  V30 27 1 9 28
M  V30 28 1 28 29
M  V30 29 2 29 30
M  V30 30 1 30 31
M  V30 31 1 31 32
M  V30 32 2 32 33
M  V30 33 1 33 34
M  V30 34 2 34 35
M  V30 35 1 35 36
M  V30 36 2 36 37
M  V30 37 1 7 38
M  V30 38 2 38 39
M  V30 39 1 39 40
M  V30 40 1 40 2
M  V30 41 1 39 4
M  V30 42 1 27 12
M  V30 43 1 37 29
M  V30 44 1 22 17
M  V30 45 1 37 32
M  V30 46 1 26 20
M  V30 47 1 3 41
M  V30 48 1 3 42
M  V30 49 1 5 43
M  V30 50 1 6 44
M  V30 51 1 8 45
M  V30 52 1 9 46 CFG=1
M  V30 53 1 10 47
M  V30 54 1 10 48
M  V30 55 1 13 49
M  V30 56 1 15 50
M  V30 57 1 18 51
M  V30 58 1 19 52
M  V30 59 1 23 53
M  V30 60 1 26 54
M  V30 61 1 26 55
M  V30 62 1 27 56
M  V30 63 1 28 57
M  V30 64 1 28 58
M  V30 65 1 30 59
M  V30 66 1 31 60
M  V30 67 1 33 61
M  V30 68 1 34 62
M  V30 69 1 35 63
M  V30 70 1 36 64
M  V30 71 1 40 65
M  V30 END BOND
M  V30 END CTAB
M  END
>  <Dataset>  (238) 
ChEMBL_Kinases

>  <Ligand_Instance>  (238) 
nan

>  <PDB_ID>  (238) 
nan

>  <Standardized_SMILES>  (238) 
O=C1Cc2ccc(N[C@H](COc3cncc(-c4ccc5c(n4)NC(=O)C5)c3)Cc3c[nH]c4ccccc34)nc2N1

>  <Name>  (238) 
nan

>  <Pocket>  (238) 
nan

>  <ATP_Site>  (238) 
nan

>  <Peripheral>  (238) 
nan

>  <Num_H_Atoms_ProtBoundConf>  (238) 
nan

>  <Num_Resolved_Atoms>  (238) 
nan

>  <Num_Not_Resolved_Atoms>  (238) 
nan

$$$$
CHEMBL211303
     RDKit          3D

  0  0  0  0  0  0  0  0  0  0999 V3000
M  V30 BEGIN CTAB
M  V30 COUNTS 56 60 0 0 0
M  V30 BEGIN ATOM
M  V30 1 C 2.188426 1.081006 4.729353 0
M  V30 2 C 0.727259 0.882415 4.356492 0 CFG=2
M  V30 3 C 0.645737 -0.532165 3.783416 0
M  V30 4 N -0.209910 -0.413798 2.593964 0
M  V30 5 C -0.092347 -0.781393 1.228135 0
M  V30 6 N 0.724347 0.037721 0.509955 0
M  V30 7 C 0.954927 -0.159071 -0.820219 0
M  V30 8 C 1.863339 0.785689 -1.464858 0
M  V30 9 C 1.265569 1.555502 -2.463496 0
M  V30 10 C 1.977218 2.516120 -3.153688 0
M  V30 11 C 3.318269 2.738455 -2.864119 0
M  V30 12 Cl 4.299386 3.946757 -3.702590 0
M  V30 13 C 3.912010 1.971353 -1.868896 0
M  V30 14 C 3.184785 1.019997 -1.194281 0
M  V30 15 Cl 3.857856 0.007833 0.081537 0
M  V30 16 C 0.346492 -1.227061 -1.480970 0
M  V30 17 C -0.474322 -2.039587 -0.728682 0
M  V30 18 N -0.680141 -1.817257 0.577333 0
M  V30 19 N -1.139670 -3.168082 -1.279696 0
M  V30 20 C -2.016228 -4.073488 -0.576700 0
M  V30 21 C -3.356707 -3.676094 -0.576331 0
M  V30 22 Cl -3.893064 -2.203518 -1.350832 0
M  V30 23 C -4.336420 -4.432714 0.044572 0
M  V30 24 C -3.935505 -5.612104 0.673445 0
M  V30 25 C -2.616832 -6.007807 0.676016 0
M  V30 26 C -1.641679 -5.256248 0.058545 0
M  V30 27 Cl 0.063493 -5.662704 -0.005738 0
M  V30 28 C -0.977287 -3.509615 -2.662709 0
M  V30 29 O -1.501055 -4.464356 -3.261271 0
M  V30 30 N -0.117568 -2.620951 -3.346077 0
M  V30 31 C 0.611313 -1.453785 -2.906154 0
M  V30 32 C -1.459653 0.281478 2.941390 0
M  V30 33 C -1.083874 1.718264 3.290179 0 CFG=2
M  V30 34 C -1.543855 2.610676 2.143496 0
M  V30 35 O 0.292263 1.849003 3.475563 0
M  V30 36 H 2.796707 0.540874 3.966832 0
M  V30 37 H 2.313273 0.607955 5.723885 0
M  V30 38 H 2.454780 2.147194 4.802958 0
M  V30 39 H 0.103308 0.984793 5.268773 0
M  V30 40 H 0.068171 -1.134475 4.542330 0
M  V30 41 H 1.626404 -0.947886 3.564490 0
M  V30 42 H 0.231087 1.570813 -2.845692 0
M  V30 43 H 1.630047 3.167181 -3.936618 0
M  V30 44 H 4.950050 2.093794 -1.598383 0
M  V30 45 H -5.376478 -4.120395 0.042705 0
M  V30 46 H -4.684814 -6.209711 1.157891 0
M  V30 47 H -2.272518 -6.932912 1.162907 0
M  V30 48 H 0.095206 -2.750543 -4.378458 0
M  V30 49 H 1.709330 -1.728967 -3.014344 0
M  V30 50 H 0.483521 -0.596608 -3.559589 0
M  V30 51 H -1.863448 -0.188990 3.853738 0
M  V30 52 H -2.208829 0.231707 2.138558 0
M  V30 53 H -1.602422 2.068923 4.201771 0
M  V30 54 H -1.689452 2.042950 1.194387 0
M  V30 55 H -0.789305 3.387317 1.956905 0
M  V30 56 H -2.507687 3.070650 2.421717 0
M  V30 END ATOM
M  V30 BEGIN BOND
M  V30 1 1 1 2
M  V30 2 1 2 3
M  V30 3 1 3 4
M  V30 4 1 4 5
M  V30 5 2 5 6
M  V30 6 1 6 7
M  V30 7 1 7 8
M  V30 8 2 8 9
M  V30 9 1 9 10
M  V30 10 2 10 11
M  V30 11 1 11 12
M  V30 12 1 11 13
M  V30 13 2 13 14
M  V30 14 1 14 15
M  V30 15 2 7 16
M  V30 16 1 16 17
M  V30 17 2 17 18
M  V30 18 1 17 19
M  V30 19 1 19 20
M  V30 20 2 20 21
M  V30 21 1 21 22
M  V30 22 1 21 23
M  V30 23 2 23 24
M  V30 24 1 24 25
M  V30 25 2 25 26
M  V30 26 1 26 27
M  V30 27 1 19 28
M  V30 28 2 28 29
M  V30 29 1 28 30
M  V30 30 1 30 31
M  V30 31 1 4 32
M  V30 32 1 32 33
M  V30 33 1 33 34
M  V30 34 1 33 35
M  V30 35 1 35 2
M  V30 36 1 18 5
M  V30 37 1 26 20
M  V30 38 1 14 8
M  V30 39 1 31 16
M  V30 40 1 1 36
M  V30 41 1 1 37
M  V30 42 1 1 38
M  V30 43 1 2 39 CFG=1
M  V30 44 1 3 40
M  V30 45 1 3 41
M  V30 46 1 9 42
M  V30 47 1 10 43
M  V30 48 1 13 44
M  V30 49 1 23 45
M  V30 50 1 24 46
M  V30 51 1 25 47
M  V30 52 1 30 48
M  V30 53 1 31 49
M  V30 54 1 31 50
M  V30 55 1 32 51
M  V30 56 1 32 52
M  V30 57 1 33 53 CFG=1
M  V30 58 1 34 54
M  V30 59 1 34 55
M  V30 60 1 34 56
M  V30 END BOND
M  V30 END CTAB
M  END
>  <Dataset>  (239) 
ChEMBL_Kinases

>  <Ligand_Instance>  (239) 
nan

>  <PDB_ID>  (239) 
nan

>  <Standardized_SMILES>  (239) 
C[C@@H]1CN(c2nc(-c3ccc(Cl)cc3Cl)c3c(n2)N(c2c(Cl)cccc2Cl)C(=O)NC3)C[C@H](C)O1

>  <Name>  (239) 
nan

>  <Pocket>  (239) 
nan

>  <ATP_Site>  (239) 
nan

>  <Peripheral>  (239) 
nan

>  <Num_H_Atoms_ProtBoundConf>  (239) 
nan

>  <Num_Resolved_Atoms>  (239) 
nan

>  <Num_Not_Resolved_Atoms>  (239) 
nan

$$$$
CHEMBL212636
     RDKit          3D

  0  0  0  0  0  0  0  0  0  0999 V3000
M  V30 BEGIN CTAB
M  V30 COUNTS 54 56 0 0 0
M  V30 BEGIN ATOM
M  V30 1 C -1.268938 1.042576 4.174881 0
M  V30 2 O 0.103837 1.026979 4.509473 0
M  V30 3 C 0.781058 0.079223 3.756591 0
M  V30 4 C 2.241684 0.108870 4.158150 0 CFG=2
M  V30 5 C 2.821999 1.466978 3.850143 0
M  V30 6 N 2.982400 -0.889886 3.375979 0
M  V30 7 C 2.950465 -0.699310 1.947263 0
M  V30 8 N 3.893241 -0.052352 1.252253 0
M  V30 9 C 3.729733 0.050636 -0.076628 0
M  V30 10 C 2.658721 -0.463252 -0.772769 0
M  V30 11 C 1.698322 -1.126152 -0.036953 0
M  V30 12 N 0.489703 -1.759478 -0.511974 0
M  V30 13 C -0.762995 -1.053387 -0.662210 0
M  V30 14 O -1.855303 -1.568077 -1.073029 0
M  V30 15 N -0.975183 0.335372 -0.374997 0
M  V30 16 C -2.372468 0.543937 -0.689361 0
M  V30 17 C -3.245040 0.349803 0.360203 0
M  V30 18 C -4.584398 0.532950 0.098631 0
M  V30 19 C -4.979889 0.892097 -1.165224 0
M  V30 20 C -4.084256 1.085694 -2.219838 0
M  V30 21 C -2.718323 0.903998 -1.973732 0
M  V30 22 C -1.717377 1.092850 -3.055579 0
M  V30 23 C 0.408273 -3.135064 -0.875240 0
M  V30 24 C 0.079234 -4.128414 0.026766 0
M  V30 25 C 0.016533 -5.442897 -0.385534 0
M  V30 26 C 0.274557 -5.819201 -1.692234 0
M  V30 27 F 0.231298 -7.088470 -2.162881 0
M  V30 28 C 0.601427 -4.767388 -2.553969 0
M  V30 29 C 0.677673 -3.439752 -2.193223 0
M  V30 30 N 1.865471 -1.230028 1.308495 0
M  V30 31 H -1.397043 1.285391 3.114423 0
M  V30 32 H -1.692300 0.030456 4.400561 0
M  V30 33 H -1.763321 1.783549 4.807762 0
M  V30 34 H 0.669850 0.291548 2.680988 0
M  V30 35 H 0.352962 -0.933939 3.933687 0
M  V30 36 H 2.345497 -0.082656 5.237122 0
M  V30 37 H 3.863754 1.451418 4.230637 0
M  V30 38 H 2.873749 1.562768 2.746299 0
M  V30 39 H 2.221710 2.274371 4.309610 0
M  V30 40 H 3.484656 -1.670479 3.868926 0
M  V30 41 H 4.470351 0.570006 -0.688285 0
M  V30 42 H 2.458270 -0.424358 -1.813054 0
M  V30 43 H -0.126008 0.874245 -0.020296 0
M  V30 44 H -2.918660 0.067655 1.349863 0
M  V30 45 H -5.365139 0.410471 0.839949 0
M  V30 46 H -6.012399 1.059422 -1.466941 0
M  V30 47 H -4.377251 1.365971 -3.211869 0
M  V30 48 H -1.546410 0.154688 -3.628212 0
M  V30 49 H -2.179530 1.807800 -3.784372 0
M  V30 50 H -0.789671 1.557694 -2.707087 0
M  V30 51 H -0.124739 -3.844172 1.050672 0
M  V30 52 H -0.241573 -6.232670 0.315518 0
M  V30 53 H 0.804960 -5.046359 -3.578538 0
M  V30 54 H 0.937785 -2.685126 -2.922114 0
M  V30 END ATOM
M  V30 BEGIN BOND
M  V30 1 1 1 2
M  V30 2 1 2 3
M  V30 3 1 3 4
M  V30 4 1 4 5
M  V30 5 1 4 6
M  V30 6 1 6 7
M  V30 7 2 7 8
M  V30 8 1 8 9
M  V30 9 2 9 10
M  V30 10 1 10 11
M  V30 11 1 11 12
M  V30 12 1 12 13
M  V30 13 2 13 14
M  V30 14 1 13 15
M  V30 15 1 15 16
M  V30 16 2 16 17
M  V30 17 1 17 18
M  V30 18 2 18 19
M  V30 19 1 19 20
M  V30 20 2 20 21
M  V30 21 1 21 22
M  V30 22 1 12 23
M  V30 23 2 23 24
M  V30 24 1 24 25
M  V30 25 2 25 26
M  V30 26 1 26 27
M  V30 27 1 26 28
M  V30 28 2 28 29
M  V30 29 2 11 30
M  V30 30 1 30 7
M  V30 31 1 21 16
M  V30 32 1 29 23
M  V30 33 1 1 31
M  V30 34 1 1 32
M  V30 35 1 1 33
M  V30 36 1 3 34
M  V30 37 1 3 35
M  V30 38 1 4 36 CFG=1
M  V30 39 1 5 37
M  V30 40 1 5 38
M  V30 41 1 5 39
M  V30 42 1 6 40
M  V30 43 1 9 41
M  V30 44 1 10 42
M  V30 45 1 15 43
M  V30 46 1 17 44
M  V30 47 1 18 45
M  V30 48 1 19 46
M  V30 49 1 20 47
M  V30 50 1 22 48
M  V30 51 1 22 49
M  V30 52 1 22 50
M  V30 53 1 24 51
M  V30 54 1 25 52
M  V30 55 1 28 53
M  V30 56 1 29 54
M  V30 END BOND
M  V30 END CTAB
M  END
>  <Dataset>  (240) 
ChEMBL_Kinases

>  <Ligand_Instance>  (240) 
nan

>  <PDB_ID>  (240) 
nan

>  <Standardized_SMILES>  (240) 
COC[C@H](C)Nc1nccc(N(C(=O)Nc2ccccc2C)c2ccc(F)cc2)n1

>  <Name>  (240) 
nan

>  <Pocket>  (240) 
nan

>  <ATP_Site>  (240) 
nan

>  <Peripheral>  (240) 
nan

>  <Num_H_Atoms_ProtBoundConf>  (240) 
nan

>  <Num_Resolved_Atoms>  (240) 
nan

>  <Num_Not_Resolved_Atoms>  (240) 
nan

$$$$
CHEMBL21260
     RDKit          3D

  0  0  0  0  0  0  0  0  0  0999 V3000
M  V30 BEGIN CTAB
M  V30 COUNTS 52 56 0 0 0
M  V30 BEGIN ATOM
M  V30 1 C -3.764059 -0.562081 2.658336 0
M  V30 2 O -3.735249 -1.645815 1.749101 0
M  V30 3 C -2.502344 -1.973822 1.184206 0
M  V30 4 C -1.378533 -1.248736 1.521844 0
M  V30 5 C -0.174379 -1.597757 0.946302 0
M  V30 6 C 1.082079 -0.883862 1.242868 0
M  V30 7 C 1.308683 0.262013 0.294948 0
M  V30 8 C 0.928438 0.143488 -1.030644 0
M  V30 9 C 1.109716 1.163885 -1.957924 0
M  V30 10 C 1.698674 2.352042 -1.529691 0
M  V30 11 C 2.080650 2.478318 -0.209720 0
M  V30 12 C 1.883494 1.439750 0.683520 0
M  V30 13 C 2.343494 1.707150 2.086198 0
M  V30 14 O 1.394078 2.501735 2.680491 0
M  V30 15 C 2.526742 0.370515 2.707232 0 CFG=1
M  V30 16 C 2.844648 0.356390 4.149694 0
M  V30 17 O 2.336653 -0.882244 4.580543 0
M  V30 18 C 1.389902 -1.384139 3.670448 0
M  V30 19 O 1.008424 -2.534613 3.992451 0
M  V30 20 C 1.181231 -0.350562 2.638842 0
M  V30 21 O 1.753527 3.177311 -2.645940 0
M  V30 22 C 0.780971 2.716576 -3.589338 0
M  V30 23 O 0.829296 1.309153 -3.312008 0
M  V30 24 C -0.081259 -2.645642 0.051925 0
M  V30 25 C -1.189754 -3.387264 -0.303119 0
M  V30 26 O -1.222967 -4.457494 -1.186184 0
M  V30 27 C -0.101774 -4.950139 -1.861727 0
M  V30 28 C -2.407969 -3.034045 0.279254 0
M  V30 29 O -3.588498 -3.712179 -0.005899 0
M  V30 30 C -4.375293 -3.247043 -1.088291 0
M  V30 31 H -3.463090 0.349083 2.106767 0
M  V30 32 H -3.026560 -0.790906 3.470315 0
M  V30 33 H -4.797130 -0.432750 3.065577 0
M  V30 34 H -1.440324 -0.427223 2.220392 0
M  V30 35 H 1.972299 -1.546272 1.091039 0
M  V30 36 H 0.465545 -0.751643 -1.429482 0
M  V30 37 H 2.532857 3.421996 0.068325 0
M  V30 38 H 3.307808 2.277953 2.084357 0
M  V30 39 H 1.142259 2.270107 3.590744 0
M  V30 40 H 3.285987 -0.173700 2.112544 0
M  V30 41 H 2.466384 1.215786 4.729267 0
M  V30 42 H 3.953822 0.370170 4.281102 0
M  V30 43 H 0.412156 0.383428 2.895423 0
M  V30 44 H -0.241077 3.043435 -3.325326 0
M  V30 45 H 1.062912 2.933547 -4.634132 0
M  V30 46 H 0.849040 -2.932744 -0.407205 0
M  V30 47 H 0.391281 -5.775637 -1.294949 0
M  V30 48 H -0.478452 -5.362324 -2.843542 0
M  V30 49 H 0.622168 -4.134232 -2.039636 0
M  V30 50 H -3.820510 -3.499365 -2.021006 0
M  V30 51 H -4.393793 -2.137516 -1.062165 0
M  V30 52 H -5.397866 -3.678624 -1.072438 0
M  V30 END ATOM
M  V30 BEGIN BOND
M  V30 1 1 1 2
M  V30 2 1 2 3
M  V30 3 2 3 4
M  V30 4 1 4 5
M  V30 5 1 5 6
M  V30 6 1 6 7
M  V30 7 2 7 8
M  V30 8 1 8 9
M  V30 9 2 9 10
M  V30 10 1 10 11
M  V30 11 2 11 12
M  V30 12 1 12 13
M  V30 13 1 13 14
M  V30 14 1 13 15
M  V30 15 1 15 16
M  V30 16 1 16 17
M  V30 17 1 17 18
M  V30 18 2 18 19
M  V30 19 1 18 20
M  V30 20 1 10 21
M  V30 21 1 21 22
M  V30 22 1 22 23
M  V30 23 2 5 24
M  V30 24 1 24 25
M  V30 25 1 25 26
M  V30 26 1 26 27
M  V30 27 2 25 28
M  V30 28 1 28 29
M  V30 29 1 29 30
M  V30 30 1 28 3
M  V30 31 1 20 6
M  V30 32 1 12 7
M  V30 33 1 20 15
M  V30 34 1 23 9
M  V30 35 1 1 31
M  V30 36 1 1 32
M  V30 37 1 1 33
M  V30 38 1 4 34
M  V30 39 1 6 35
M  V30 40 1 8 36
M  V30 41 1 11 37
M  V30 42 1 13 38
M  V30 43 1 14 39
M  V30 44 1 15 40 CFG=3
M  V30 45 1 16 41
M  V30 46 1 16 42
M  V30 47 1 20 43
M  V30 48 1 22 44
M  V30 49 1 22 45
M  V30 50 1 24 46
M  V30 51 1 27 47
M  V30 52 1 27 48
M  V30 53 1 27 49
M  V30 54 1 30 50
M  V30 55 1 30 51
M  V30 56 1 30 52
M  V30 END BOND
M  V30 END CTAB
M  END
>  <Dataset>  (241) 
ChEMBL_Kinases

>  <Ligand_Instance>  (241) 
nan

>  <PDB_ID>  (241) 
nan

>  <Standardized_SMILES>  (241) 
COc1cc(C2c3cc4c(cc3C(O)[C@H]3COC(=O)C23)OCO4)cc(OC)c1OC

>  <Name>  (241) 
nan

>  <Pocket>  (241) 
nan

>  <ATP_Site>  (241) 
nan

>  <Peripheral>  (241) 
nan

>  <Num_H_Atoms_ProtBoundConf>  (241) 
nan

>  <Num_Resolved_Atoms>  (241) 
nan

>  <Num_Not_Resolved_Atoms>  (241) 
nan

$$$$
CHEMBL212590
     RDKit          3D

  0  0  0  0  0  0  0  0  0  0999 V3000
M  V30 BEGIN CTAB
M  V30 COUNTS 28 30 0 0 0
M  V30 BEGIN ATOM
M  V30 1 O -0.781915 -0.561618 0.000842 0
M  V30 2 C -0.644173 -1.568100 0.758874 0
M  V30 3 N 0.658728 -1.661933 1.284394 0
M  V30 4 C 1.475870 -0.549556 0.787712 0
M  V30 5 N 1.648135 0.511341 1.225399 0
M  V30 6 C 2.390675 1.495022 0.757508 0
M  V30 7 C 2.574060 2.755414 1.308400 0
M  V30 8 C 3.397716 3.646660 0.657398 0
M  V30 9 C 4.078626 3.411328 -0.517604 0
M  V30 10 F 4.886548 4.280142 -1.159839 0
M  V30 11 C 3.897723 2.162516 -1.064608 0
M  V30 12 C 3.068840 1.245180 -0.423031 0
M  V30 13 S 2.572960 -0.443213 -0.787248 0
M  V30 14 C -1.676686 -2.549993 1.086950 0
M  V30 15 C -1.471971 -3.635243 1.916720 0
M  V30 16 C -2.544369 -4.475539 2.131667 0
M  V30 17 C -3.806128 -4.301312 1.571662 0
M  V30 18 C -3.931829 -3.180357 0.744382 0
M  V30 19 C -2.896218 -2.296790 0.486398 0
M  V30 20 H 0.953514 -2.424510 1.926211 0
M  V30 21 H 2.111335 3.117228 2.239348 0
M  V30 22 H 3.550390 4.646141 1.083015 0
M  V30 23 H 4.337039 1.794961 -1.964121 0
M  V30 24 H -0.505344 -3.781140 2.354407 0
M  V30 25 H -2.410486 -5.346494 2.787032 0
M  V30 26 H -4.629617 -4.972288 1.754515 0
M  V30 27 H -4.925969 -3.068299 0.320737 0
M  V30 28 H -3.171848 -1.502533 -0.164510 0
M  V30 END ATOM
M  V30 BEGIN BOND
M  V30 1 2 1 2
M  V30 2 1 2 3
M  V30 3 1 3 4
M  V30 4 2 4 5
M  V30 5 1 5 6
M  V30 6 2 6 7
M  V30 7 1 7 8
M  V30 8 2 8 9
M  V30 9 1 9 10
M  V30 10 1 9 11
M  V30 11 2 11 12
M  V30 12 1 12 13
M  V30 13 1 2 14
M  V30 14 2 14 15
M  V30 15 1 15 16
M  V30 16 2 16 17
M  V30 17 1 17 18
M  V30 18 2 18 19
M  V30 19 1 13 4
M  V30 20 1 19 14
M  V30 21 1 12 6
M  V30 22 1 3 20
M  V30 23 1 7 21
M  V30 24 1 8 22
M  V30 25 1 11 23
M  V30 26 1 15 24
M  V30 27 1 16 25
M  V30 28 1 17 26
M  V30 29 1 18 27
M  V30 30 1 19 28
M  V30 END BOND
M  V30 END CTAB
M  END
>  <Dataset>  (242) 
ChEMBL_Kinases

>  <Ligand_Instance>  (242) 
nan

>  <PDB_ID>  (242) 
nan

>  <Standardized_SMILES>  (242) 
O=C(Nc1nc2ccc(F)cc2s1)c1ccccc1

>  <Name>  (242) 
nan

>  <Pocket>  (242) 
nan

>  <ATP_Site>  (242) 
nan

>  <Peripheral>  (242) 
nan

>  <Num_H_Atoms_ProtBoundConf>  (242) 
nan

>  <Num_Resolved_Atoms>  (242) 
nan

>  <Num_Not_Resolved_Atoms>  (242) 
nan

$$$$
CHEMBL212566
     RDKit          3D

  0  0  0  0  0  0  0  0  0  0999 V3000
M  V30 BEGIN CTAB
M  V30 COUNTS 67 73 0 0 0
M  V30 BEGIN ATOM
M  V30 1 O 6.543496 -5.858731 3.133519 0
M  V30 2 C 5.812937 -4.851521 2.898134 0
M  V30 3 C 5.912504 -3.912187 1.772683 0
M  V30 4 C 4.793965 -2.973083 2.057397 0
M  V30 5 C 4.394004 -1.880437 1.343212 0
M  V30 6 C 3.330083 -1.102327 1.738923 0
M  V30 7 N 2.939404 0.021879 1.003756 0
M  V30 8 C 1.871381 0.996415 1.140547 0 CFG=2
M  V30 9 C 0.519195 0.422044 0.910073 0
M  V30 10 O 0.318174 -0.172260 -0.347019 0
M  V30 11 C -0.905192 -0.730067 -0.642586 0
M  V30 12 C -0.989800 -1.285275 -1.904247 0
M  V30 13 N -2.162141 -1.858176 -2.278780 0
M  V30 14 C -3.227913 -1.892359 -1.450111 0
M  V30 15 C -3.120461 -1.323837 -0.176083 0
M  V30 16 C -4.296436 -1.379692 0.697473 0
M  V30 17 C -4.432878 -0.314939 1.586639 0
M  V30 18 C -5.518078 -0.265602 2.468620 0
M  V30 19 C -6.458996 -1.276251 2.458961 0
M  V30 20 C -6.305468 -2.334685 1.561243 0
M  V30 21 C -5.236291 -2.391909 0.685819 0
M  V30 22 C -7.410400 -3.338763 1.685462 0
M  V30 23 C -8.228017 -2.717396 2.777204 0
M  V30 24 O -9.249526 -3.326157 3.124153 0
M  V30 25 N -7.644034 -1.500623 3.217012 0
M  V30 26 C -1.948972 -0.722378 0.267685 0
M  V30 27 C 2.186805 2.310802 0.535414 0
M  V30 28 C 2.472292 2.359974 -0.894077 0
M  V30 29 C 3.776010 2.371747 -1.410626 0
M  V30 30 N 3.778563 2.398874 -2.753906 0
M  V30 31 C 2.514239 2.406781 -3.187422 0
M  V30 32 C 1.945716 2.440470 -4.443125 0
M  V30 33 C 0.559789 2.450659 -4.527952 0
M  V30 34 C -0.250900 2.428540 -3.416277 0
M  V30 35 C 0.353543 2.394931 -2.191149 0
M  V30 36 C 1.717656 2.382946 -2.042243 0
M  V30 37 C 2.718630 -1.515856 2.894832 0
M  V30 38 C 3.079712 -2.604121 3.648652 0
M  V30 39 C 4.157474 -3.362448 3.215538 0
M  V30 40 N 4.747240 -4.536519 3.795750 0
M  V30 41 H 6.883673 -3.409344 1.742941 0
M  V30 42 H 5.672482 -4.405621 0.798171 0
M  V30 43 H 4.926750 -1.598589 0.421335 0
M  V30 44 H 3.521705 0.254984 0.142407 0
M  V30 45 H 1.879776 1.187666 2.287389 0
M  V30 46 H -0.267142 1.194094 1.118880 0
M  V30 47 H 0.329575 -0.369318 1.660154 0
M  V30 48 H -0.162328 -1.283814 -2.609255 0
M  V30 49 H -4.142981 -2.360703 -1.793493 0
M  V30 50 H -3.725622 0.478325 1.618347 0
M  V30 51 H -5.676470 0.531799 3.178086 0
M  V30 52 H -5.053362 -3.171154 -0.029860 0
M  V30 53 H -7.996718 -3.376095 0.736804 0
M  V30 54 H -7.012291 -4.324983 1.984887 0
M  V30 55 H -8.041633 -0.897548 3.969604 0
M  V30 56 H -1.856091 -0.288384 1.231201 0
M  V30 57 H 3.078920 2.708171 1.115190 0
M  V30 58 H 1.381626 3.057564 0.833297 0
M  V30 59 H 4.706041 2.360909 -0.821861 0
M  V30 60 H 4.622671 2.411425 -3.366776 0
M  V30 61 H 2.543072 2.459006 -5.335604 0
M  V30 62 H 0.031364 2.476912 -5.486541 0
M  V30 63 H -1.333127 2.436816 -3.472091 0
M  V30 64 H -0.269587 2.376373 -1.290430 0
M  V30 65 H 1.879657 -0.981065 3.307579 0
M  V30 66 H 2.581433 -2.908629 4.554875 0
M  V30 67 H 4.452062 -5.017478 4.656439 0
M  V30 END ATOM
M  V30 BEGIN BOND
M  V30 1 2 1 2
M  V30 2 1 2 3
M  V30 3 1 3 4
M  V30 4 2 4 5
M  V30 5 1 5 6
M  V30 6 1 6 7
M  V30 7 1 7 8
M  V30 8 1 8 9
M  V30 9 1 9 10
M  V30 10 1 10 11
M  V30 11 2 11 12
M  V30 12 1 12 13
M  V30 13 2 13 14
M  V30 14 1 14 15
M  V30 15 1 15 16
M  V30 16 2 16 17
M  V30 17 1 17 18
M  V30 18 2 18 19
M  V30 19 1 19 20
M  V30 20 2 20 21
M  V30 21 1 20 22
M  V30 22 1 22 23
M  V30 23 2 23 24
M  V30 24 1 23 25
M  V30 25 2 15 26
M  V30 26 1 8 27
M  V30 27 1 27 28
M  V30 28 2 28 29
M  V30 29 1 29 30
M  V30 30 1 30 31
M  V30 31 2 31 32
M  V30 32 1 32 33
M  V30 33 2 33 34
M  V30 34 1 34 35
M  V30 35 2 35 36
M  V30 36 2 6 37
M  V30 37 1 37 38
M  V30 38 2 38 39
M  V30 39 1 39 40
M  V30 40 1 40 2
M  V30 41 1 39 4
M  V30 42 1 26 11
M  V30 43 1 36 28
M  V30 44 1 21 16
M  V30 45 1 36 31
M  V30 46 1 25 19
M  V30 47 1 3 41
M  V30 48 1 3 42
M  V30 49 1 5 43
M  V30 50 1 7 44
M  V30 51 1 8 45 CFG=1
M  V30 52 1 9 46
M  V30 53 1 9 47
M  V30 54 1 12 48
M  V30 55 1 14 49
M  V30 56 1 17 50
M  V30 57 1 18 51
M  V30 58 1 21 52
M  V30 59 1 22 53
M  V30 60 1 22 54
M  V30 61 1 25 55
M  V30 62 1 26 56
M  V30 63 1 27 57
M  V30 64 1 27 58
M  V30 65 1 29 59
M  V30 66 1 30 60
M  V30 67 1 32 61
M  V30 68 1 33 62
M  V30 69 1 34 63
M  V30 70 1 35 64
M  V30 71 1 37 65
M  V30 72 1 38 66
M  V30 73 1 40 67
M  V30 END BOND
M  V30 END CTAB
M  END
>  <Dataset>  (243) 
ChEMBL_Kinases

>  <Ligand_Instance>  (243) 
nan

>  <PDB_ID>  (243) 
nan

>  <Standardized_SMILES>  (243) 
O=C1Cc2cc(N[C@H](COc3cncc(-c4ccc5c(c4)CC(=O)N5)c3)Cc3c[nH]c4ccccc34)ccc2N1

>  <Name>  (243) 
nan

>  <Pocket>  (243) 
nan

>  <ATP_Site>  (243) 
nan

>  <Peripheral>  (243) 
nan

>  <Num_H_Atoms_ProtBoundConf>  (243) 
nan

>  <Num_Resolved_Atoms>  (243) 
nan

>  <Num_Not_Resolved_Atoms>  (243) 
nan

$$$$
CHEMBL212549
     RDKit          3D

  0  0  0  0  0  0  0  0  0  0999 V3000
M  V30 BEGIN CTAB
M  V30 COUNTS 63 67 0 0 0
M  V30 BEGIN ATOM
M  V30 1 C -0.116080 1.774455 5.741854 0
M  V30 2 C 0.125353 2.120215 4.310638 0
M  V30 3 C 1.630650 2.026766 4.016710 0
M  V30 4 N -0.543395 1.272950 3.376897 0
M  V30 5 C -0.213631 -0.101989 3.412915 0
M  V30 6 C -1.369887 -0.939358 2.953428 0
M  V30 7 C -1.941166 -0.469948 1.638226 0
M  V30 8 C -1.043144 -0.716100 0.480346 0
M  V30 9 C 0.090519 -0.009045 0.137646 0
M  V30 10 C 0.878954 -0.297744 -0.937959 0
M  V30 11 C 2.062152 0.557961 -1.165598 0
M  V30 12 C 1.752027 1.626572 -1.979478 0
M  V30 13 C 2.737038 2.553751 -2.313638 0
M  V30 14 C 4.012060 2.356039 -1.801105 0
M  V30 15 F 5.015240 3.228089 -2.092077 0
M  V30 16 C 4.309469 1.295051 -0.996757 0
M  V30 17 C 3.330735 0.368120 -0.661090 0
M  V30 18 F 3.466111 -0.732433 0.124029 0
M  V30 19 C 0.566389 -1.356353 -1.771225 0
M  V30 20 C -0.554974 -2.098286 -1.479142 0
M  V30 21 C -1.328473 -1.779350 -0.384638 0
M  V30 22 N -0.852111 -3.182345 -2.349278 0
M  V30 23 C -2.005498 -3.974388 -2.077540 0
M  V30 24 C -3.290560 -3.776588 -2.542066 0
M  V30 25 Cl -3.486893 -2.380268 -3.586408 0
M  V30 26 C -4.298761 -4.650088 -2.174539 0
M  V30 27 C -4.003039 -5.714978 -1.343325 0
M  V30 28 C -2.709181 -5.927311 -0.866757 0
M  V30 29 C -1.697285 -5.038690 -1.242971 0
M  V30 30 Cl -0.128843 -5.405317 -0.587088 0
M  V30 31 C -0.048147 -3.508082 -3.474092 0
M  V30 32 O -0.284518 -4.451859 -4.253843 0
M  V30 33 N 1.073269 -2.684009 -3.677176 0
M  V30 34 C 1.513717 -1.552143 -2.899696 0
M  V30 35 C -2.255764 0.992685 1.754060 0
M  V30 36 C -1.921080 1.535404 3.151300 0
M  V30 37 H -0.906654 1.011767 5.903547 0
M  V30 38 H 0.810615 1.351786 6.176464 0
M  V30 39 H -0.341214 2.693839 6.347550 0
M  V30 40 H -0.146061 3.165312 4.131229 0
M  V30 41 H 2.124987 2.967221 4.330371 0
M  V30 42 H 2.052493 1.121178 4.537655 0
M  V30 43 H 1.733777 1.926083 2.926135 0
M  V30 44 H 0.030356 -0.344071 4.495032 0
M  V30 45 H 0.681346 -0.367930 2.807803 0
M  V30 46 H -2.186489 -0.841206 3.715772 0
M  V30 47 H -1.127106 -2.025629 2.934921 0
M  V30 48 H -2.903078 -1.027604 1.444253 0
M  V30 49 H 0.343698 0.820424 0.776200 0
M  V30 50 H 0.786353 1.847021 -2.416678 0
M  V30 51 H 2.515070 3.410999 -2.956760 0
M  V30 52 H 5.278260 1.091665 -0.573250 0
M  V30 53 H -2.175512 -2.432287 -0.264590 0
M  V30 54 H -5.282230 -4.435206 -2.576292 0
M  V30 55 H -4.863027 -6.336046 -1.120107 0
M  V30 56 H -2.580867 -6.776796 -0.233064 0
M  V30 57 H 1.688630 -2.905883 -4.506711 0
M  V30 58 H 2.540489 -1.692287 -2.463817 0
M  V30 59 H 1.521694 -0.622949 -3.542225 0
M  V30 60 H -1.752470 1.603553 0.976728 0
M  V30 61 H -3.346224 1.133627 1.621866 0
M  V30 62 H -2.552271 1.129612 3.937237 0
M  V30 63 H -2.071281 2.639850 3.170460 0
M  V30 END ATOM
M  V30 BEGIN BOND
M  V30 1 1 1 2
M  V30 2 1 2 3
M  V30 3 1 2 4
M  V30 4 1 4 5
M  V30 5 1 5 6
M  V30 6 1 6 7
M  V30 7 1 7 8
M  V30 8 2 8 9
M  V30 9 1 9 10
M  V30 10 1 10 11
M  V30 11 2 11 12
M  V30 12 1 12 13
M  V30 13 2 13 14
M  V30 14 1 14 15
M  V30 15 1 14 16
M  V30 16 2 16 17
M  V30 17 1 17 18
M  V30 18 2 10 19
M  V30 19 1 19 20
M  V30 20 2 20 21
M  V30 21 1 20 22
M  V30 22 1 22 23
M  V30 23 2 23 24
M  V30 24 1 24 25
M  V30 25 1 24 26
M  V30 26 2 26 27
M  V30 27 1 27 28
M  V30 28 2 28 29
M  V30 29 1 29 30
M  V30 30 1 22 31
M  V30 31 2 31 32
M  V30 32 1 31 33
M  V30 33 1 33 34
M  V30 34 1 7 35
M  V30 35 1 35 36
M  V30 36 1 36 4
M  V30 37 1 21 8
M  V30 38 1 29 23
M  V30 39 1 17 11
M  V30 40 1 34 19
M  V30 41 1 1 37
M  V30 42 1 1 38
M  V30 43 1 1 39
M  V30 44 1 2 40
M  V30 45 1 3 41
M  V30 46 1 3 42
M  V30 47 1 3 43
M  V30 48 1 5 44
M  V30 49 1 5 45
M  V30 50 1 6 46
M  V30 51 1 6 47
M  V30 52 1 7 48
M  V30 53 1 9 49
M  V30 54 1 12 50
M  V30 55 1 13 51
M  V30 56 1 16 52
M  V30 57 1 21 53
M  V30 58 1 26 54
M  V30 59 1 27 55
M  V30 60 1 28 56
M  V30 61 1 33 57
M  V30 62 1 34 58
M  V30 63 1 34 59
M  V30 64 1 35 60
M  V30 65 1 35 61
M  V30 66 1 36 62
M  V30 67 1 36 63
M  V30 END BOND
M  V30 END CTAB
M  END
>  <Dataset>  (244) 
ChEMBL_Kinases

>  <Ligand_Instance>  (244) 
nan

>  <PDB_ID>  (244) 
nan

>  <Standardized_SMILES>  (244) 
CC(C)N1CCC(c2cc(-c3ccc(F)cc3F)c3c(c2)N(c2c(Cl)cccc2Cl)C(=O)NC3)CC1

>  <Name>  (244) 
nan

>  <Pocket>  (244) 
nan

>  <ATP_Site>  (244) 
nan

>  <Peripheral>  (244) 
nan

>  <Num_H_Atoms_ProtBoundConf>  (244) 
nan

>  <Num_Resolved_Atoms>  (244) 
nan

>  <Num_Not_Resolved_Atoms>  (244) 
nan

$$$$
CHEMBL212480
     RDKit          3D

  0  0  0  0  0  0  0  0  0  0999 V3000
M  V30 BEGIN CTAB
M  V30 COUNTS 48 50 0 0 0
M  V30 BEGIN ATOM
M  V30 1 C 0.005323 -5.327443 1.461663 0
M  V30 2 C 0.799371 -4.155647 1.004371 0
M  V30 3 C 1.365001 -3.317077 1.946863 0
M  V30 4 C 2.079465 -2.254441 1.440183 0
M  V30 5 C 2.295793 -1.926014 0.125487 0
M  V30 6 N 3.067685 -0.809819 -0.283391 0
M  V30 7 C 2.506977 -0.245239 -1.478988 0
M  V30 8 S 2.364820 -0.466689 -3.139932 0
M  V30 9 N 1.341899 1.032924 -3.507656 0
M  V30 10 C 1.264095 1.527520 -2.134947 0
M  V30 11 O 0.496881 2.685422 -2.352427 0
M  V30 12 C 1.834715 0.933100 -1.031501 0
M  V30 13 C 1.599901 1.691018 0.181697 0
M  V30 14 N 2.437400 2.463479 0.772910 0
M  V30 15 N 0.309825 1.482163 0.744542 0
M  V30 16 C -0.029771 1.775605 2.094669 0
M  V30 17 C -1.325535 1.201949 2.588852 0
M  V30 18 C -1.265230 -0.299178 2.535732 0
M  V30 19 C -1.720756 -0.976243 1.318503 0
M  V30 20 C -2.819603 -0.368751 0.549124 0
M  V30 21 C -3.162639 1.029254 0.832017 0
M  V30 22 C -2.569339 1.723088 1.987287 0
M  V30 23 C 1.701506 -2.809282 -0.757492 0
M  V30 24 C 0.968383 -3.899565 -0.328963 0
M  V30 25 H -0.551213 -5.053760 2.403729 0
M  V30 26 H -0.825439 -5.537576 0.735498 0
M  V30 27 H 0.624355 -6.225899 1.688294 0
M  V30 28 H 1.214877 -3.550637 2.985179 0
M  V30 29 H 2.509869 -1.614296 2.215131 0
M  V30 30 H 3.896472 -0.498280 0.254845 0
M  V30 31 H -0.210297 2.894329 -1.665962 0
M  V30 32 H 3.397993 2.558667 0.334699 0
M  V30 33 H -0.447795 1.116814 0.143637 0
M  V30 34 H 0.035146 2.846578 2.366072 0
M  V30 35 H 0.762053 1.260423 2.725541 0
M  V30 36 H -1.339752 1.493113 3.687468 0
M  V30 37 H -1.879967 -0.658141 3.421833 0
M  V30 38 H -0.221424 -0.548244 2.824591 0
M  V30 39 H -1.990109 -2.047120 1.598336 0
M  V30 40 H -0.843531 -1.121765 0.625880 0
M  V30 41 H -3.729292 -1.005356 0.671238 0
M  V30 42 H -2.610349 -0.447863 -0.566827 0
M  V30 43 H -2.958681 1.698871 -0.067439 0
M  V30 44 H -4.294354 1.162988 0.906783 0
M  V30 45 H -2.374475 2.818707 1.746229 0
M  V30 46 H -3.346327 1.749673 2.805873 0
M  V30 47 H 1.841103 -2.611126 -1.832086 0
M  V30 48 H 0.538996 -4.537448 -1.082423 0
M  V30 END ATOM
M  V30 BEGIN BOND
M  V30 1 1 1 2
M  V30 2 2 2 3
M  V30 3 1 3 4
M  V30 4 2 4 5
M  V30 5 1 5 6
M  V30 6 1 6 7
M  V30 7 1 7 8
M  V30 8 1 8 9
M  V30 9 2 9 10
M  V30 10 1 10 11
M  V30 11 1 10 12
M  V30 12 1 12 13
M  V30 13 2 13 14 CFG=2
M  V30 14 1 13 15
M  V30 15 1 15 16
M  V30 16 1 16 17
M  V30 17 1 17 18
M  V30 18 1 18 19
M  V30 19 1 19 20
M  V30 20 1 20 21
M  V30 21 1 21 22
M  V30 22 1 5 23
M  V30 23 2 23 24
M  V30 24 1 24 2
M  V30 25 2 12 7
M  V30 26 1 22 17
M  V30 27 1 1 25
M  V30 28 1 1 26
M  V30 29 1 1 27
M  V30 30 1 3 28
M  V30 31 1 4 29
M  V30 32 1 6 30
M  V30 33 1 11 31
M  V30 34 1 14 32
M  V30 35 1 15 33
M  V30 36 1 16 34
M  V30 37 1 16 35
M  V30 38 1 17 36
M  V30 39 1 18 37
M  V30 40 1 18 38
M  V30 41 1 19 39
M  V30 42 1 19 40
M  V30 43 1 20 41
M  V30 44 1 20 42
M  V30 45 1 21 43
M  V30 46 1 21 44
M  V30 47 1 22 45
M  V30 48 1 22 46
M  V30 49 1 23 47
M  V30 50 1 24 48
M  V30 END BOND
M  V30 END CTAB
M  END
>  <Dataset>  (245) 
ChEMBL_Kinases

>  <Ligand_Instance>  (245) 
nan

>  <PDB_ID>  (245) 
nan

>  <Standardized_SMILES>  (245) 
Cc1ccc(Nc2snc(O)c2C(=N)NCC2CCCCC2)cc1

>  <Name>  (245) 
nan

>  <Pocket>  (245) 
nan

>  <ATP_Site>  (245) 
nan

>  <Peripheral>  (245) 
nan

>  <Num_H_Atoms_ProtBoundConf>  (245) 
nan

>  <Num_Resolved_Atoms>  (245) 
nan

>  <Num_Not_Resolved_Atoms>  (245) 
nan

$$$$
CHEMBL212474
     RDKit          3D

  0  0  0  0  0  0  0  0  0  0999 V3000
M  V30 BEGIN CTAB
M  V30 COUNTS 22 23 0 0 0
M  V30 BEGIN ATOM
M  V30 1 N -0.627984 -2.144457 3.483767 0
M  V30 2 C 0.065885 -2.186966 2.540990 0
M  V30 3 C 0.935479 -2.237819 1.401155 0
M  V30 4 C 2.015060 -3.056459 1.363092 0
M  V30 5 O 2.465283 -3.949070 2.342740 0
M  V30 6 N 2.876659 -3.157840 0.333610 0
M  V30 7 S 2.057474 -1.901631 -0.790624 0
M  V30 8 C 0.808569 -1.522808 0.282245 0
M  V30 9 N -0.239464 -0.526461 -0.072408 0
M  V30 10 C -0.262704 0.848702 0.280178 0
M  V30 11 C -1.270277 1.622261 -0.261234 0
M  V30 12 C -1.308056 2.949283 0.081190 0
M  V30 13 Cl -2.594315 3.918863 -0.619328 0
M  V30 14 C -0.379539 3.509376 0.935122 0
M  V30 15 C 0.625327 2.710242 1.468064 0
M  V30 16 Cl 1.797047 3.458394 2.560489 0
M  V30 17 C 0.677713 1.378227 1.135293 0
M  V30 18 H 3.260846 -3.723425 2.926118 0
M  V30 19 H -0.990601 -0.975046 -0.637315 0
M  V30 20 H -1.992643 1.178590 -0.927980 0
M  V30 21 H -0.508340 4.549907 1.130229 0
M  V30 22 H 1.475108 0.750552 1.560866 0
M  V30 END ATOM
M  V30 BEGIN BOND
M  V30 1 3 1 2
M  V30 2 1 2 3
M  V30 3 1 3 4
M  V30 4 1 4 5
M  V30 5 2 4 6
M  V30 6 1 6 7
M  V30 7 1 7 8
M  V30 8 1 8 9
M  V30 9 1 9 10
M  V30 10 2 10 11
M  V30 11 1 11 12
M  V30 12 1 12 13
M  V30 13 2 12 14
M  V30 14 1 14 15
M  V30 15 1 15 16
M  V30 16 2 15 17
M  V30 17 2 8 3
M  V30 18 1 17 10
M  V30 19 1 5 18
M  V30 20 1 9 19
M  V30 21 1 11 20
M  V30 22 1 14 21
M  V30 23 1 17 22
M  V30 END BOND
M  V30 END CTAB
M  END
>  <Dataset>  (246) 
ChEMBL_Kinases

>  <Ligand_Instance>  (246) 
nan

>  <PDB_ID>  (246) 
nan

>  <Standardized_SMILES>  (246) 
N#Cc1c(O)nsc1Nc1cc(Cl)cc(Cl)c1

>  <Name>  (246) 
nan

>  <Pocket>  (246) 
nan

>  <ATP_Site>  (246) 
nan

>  <Peripheral>  (246) 
nan

>  <Num_H_Atoms_ProtBoundConf>  (246) 
nan

>  <Num_Resolved_Atoms>  (246) 
nan

>  <Num_Not_Resolved_Atoms>  (246) 
nan

$$$$
CHEMBL212450
     RDKit          3D

  0  0  0  0  0  0  0  0  0  0999 V3000
M  V30 BEGIN CTAB
M  V30 COUNTS 45 47 0 0 0
M  V30 BEGIN ATOM
M  V30 1 C 1.521127 -6.781803 -1.916896 0
M  V30 2 N 2.748799 -6.551859 -2.657476 0
M  V30 3 C 3.294630 -5.241365 -2.773565 0
M  V30 4 N 4.450613 -5.045924 -3.474239 0
M  V30 5 C 4.986080 -3.817889 -3.598320 0
M  V30 6 C 4.384236 -2.717790 -3.021711 0
M  V30 7 C 3.216320 -2.920826 -2.314786 0
M  V30 8 C 2.416037 -1.871321 -1.621039 0
M  V30 9 C 2.661806 -0.577900 -1.549445 0
M  V30 10 C 1.833984 0.258274 -0.875902 0
M  V30 11 C 0.752796 -0.312698 -0.289152 0
M  V30 12 C -0.395191 0.183617 0.527866 0
M  V30 13 O -1.239479 -0.638839 0.919540 0
M  V30 14 N -0.366533 1.562240 0.752499 0
M  V30 15 C -1.416475 2.190898 1.531891 0
M  V30 16 C -1.388185 1.564162 2.912990 0
M  V30 17 C -0.017833 1.837087 3.493673 0
M  V30 18 C -2.459588 2.174056 3.774895 0
M  V30 19 C -2.079285 3.292358 4.499163 0
M  V30 20 C -2.998025 3.916915 5.316611 0
M  V30 21 C -4.299792 3.478476 5.453475 0
M  V30 22 Cl -5.454431 4.283908 6.496643 0
M  V30 23 C -4.631149 2.356458 4.708469 0
M  V30 24 C -3.745313 1.699287 3.877863 0
M  V30 25 Cl -4.175588 0.287500 2.945285 0
M  V30 26 S 0.916557 -2.098701 -0.707843 0
M  V30 27 N 2.717493 -4.175487 -2.218698 0
M  V30 28 H 1.462521 -6.037688 -1.097560 0
M  V30 29 H 1.449355 -7.809211 -1.531251 0
M  V30 30 H 0.664842 -6.528589 -2.602224 0
M  V30 31 H 3.228750 -7.348652 -3.103471 0
M  V30 32 H 5.898393 -3.593497 -4.138951 0
M  V30 33 H 4.688556 -1.685081 -3.033268 0
M  V30 34 H 3.551919 -0.141919 -2.038500 0
M  V30 35 H 1.894765 1.327728 -0.726174 0
M  V30 36 H 0.388106 2.201830 0.384636 0
M  V30 37 H -1.312210 3.273416 1.581158 0
M  V30 38 H -2.403638 1.979852 1.048158 0
M  V30 39 H -1.618154 0.483168 2.914444 0
M  V30 40 H 0.386449 2.807485 3.138718 0
M  V30 41 H 0.017011 1.843969 4.587762 0
M  V30 42 H 0.683924 1.073676 3.057900 0
M  V30 43 H -1.058028 3.698270 4.439625 0
M  V30 44 H -2.681426 4.789064 5.874153 0
M  V30 45 H -5.645913 1.960341 4.773198 0
M  V30 END ATOM
M  V30 BEGIN BOND
M  V30 1 1 1 2
M  V30 2 1 2 3
M  V30 3 2 3 4
M  V30 4 1 4 5
M  V30 5 2 5 6
M  V30 6 1 6 7
M  V30 7 1 7 8
M  V30 8 2 8 9
M  V30 9 1 9 10
M  V30 10 2 10 11
M  V30 11 1 11 12
M  V30 12 2 12 13
M  V30 13 1 12 14
M  V30 14 1 14 15
M  V30 15 1 15 16
M  V30 16 1 16 17
M  V30 17 1 16 18
M  V30 18 2 18 19
M  V30 19 1 19 20
M  V30 20 2 20 21
M  V30 21 1 21 22
M  V30 22 1 21 23
M  V30 23 2 23 24
M  V30 24 1 24 25
M  V30 25 1 11 26
M  V30 26 2 7 27
M  V30 27 1 27 3
M  V30 28 1 26 8
M  V30 29 1 24 18
M  V30 30 1 1 28
M  V30 31 1 1 29
M  V30 32 1 1 30
M  V30 33 1 2 31
M  V30 34 1 5 32
M  V30 35 1 6 33
M  V30 36 1 9 34
M  V30 37 1 10 35
M  V30 38 1 14 36
M  V30 39 1 15 37
M  V30 40 1 15 38
M  V30 41 1 16 39
M  V30 42 1 17 40
M  V30 43 1 17 41
M  V30 44 1 17 42
M  V30 45 1 19 43
M  V30 46 1 20 44
M  V30 47 1 23 45
M  V30 END BOND
M  V30 END CTAB
M  END
>  <Dataset>  (247) 
ChEMBL_Kinases

>  <Ligand_Instance>  (247) 
nan

>  <PDB_ID>  (247) 
nan

>  <Standardized_SMILES>  (247) 
CNc1nccc(-c2ccc(C(=O)NCC(C)c3ccc(Cl)cc3Cl)s2)n1

>  <Name>  (247) 
nan

>  <Pocket>  (247) 
nan

>  <ATP_Site>  (247) 
nan

>  <Peripheral>  (247) 
nan

>  <Num_H_Atoms_ProtBoundConf>  (247) 
nan

>  <Num_Resolved_Atoms>  (247) 
nan

>  <Num_Not_Resolved_Atoms>  (247) 
nan

$$$$
CHEMBL212382
     RDKit          3D

  0  0  0  0  0  0  0  0  0  0999 V3000
M  V30 BEGIN CTAB
M  V30 COUNTS 42 45 0 0 0
M  V30 BEGIN ATOM
M  V30 1 C -0.997546 -3.275179 1.171867 0
M  V30 2 C -0.215892 -3.291060 -0.118708 0
M  V30 3 C -0.246102 -4.759711 -0.575124 0
M  V30 4 C -0.791001 -2.454271 -1.209305 0
M  V30 5 C 1.175410 -2.873666 0.159025 0
M  V30 6 N 2.155487 -3.766659 0.434828 0
M  V30 7 N 3.281782 -3.139567 0.642394 0
M  V30 8 C 3.100799 -1.820982 0.515378 0
M  V30 9 C 3.930564 -0.728115 0.628388 0
M  V30 10 C 3.433008 0.541367 0.436778 0
M  V30 11 C 2.083966 0.658118 0.131276 0
M  V30 12 C 1.559360 1.995849 -0.070796 0
M  V30 13 O 1.970990 2.817028 -1.014744 0
M  V30 14 C 1.312393 3.944810 -0.943373 0
M  V30 15 N 0.437313 3.884828 0.069827 0
M  V30 16 C 0.583677 2.675477 0.618962 0
M  V30 17 C -0.097656 2.043818 1.751488 0
M  V30 18 C -1.466505 1.928666 1.516121 0
M  V30 19 C -2.289659 1.357170 2.467276 0
M  V30 20 C -1.736682 0.905811 3.645472 0
M  V30 21 F -2.509834 0.340008 4.601926 0
M  V30 22 C -0.382284 1.018950 3.880119 0
M  V30 23 C 0.446127 1.588122 2.935920 0
M  V30 24 F 1.776376 1.773164 3.005782 0
M  V30 25 C 1.292858 -0.469109 0.028873 0
M  V30 26 N 1.793801 -1.702348 0.218644 0
M  V30 27 H -0.749210 -4.206480 1.721805 0
M  V30 28 H -0.677921 -2.457184 1.846727 0
M  V30 29 H -2.098638 -3.299288 0.998061 0
M  V30 30 H -1.281174 -5.108008 -0.376810 0
M  V30 31 H -0.121709 -4.834740 -1.689809 0
M  V30 32 H 0.521111 -5.355157 -0.056549 0
M  V30 33 H -0.025668 -1.999189 -1.871835 0
M  V30 34 H -1.548906 -1.735105 -0.833306 0
M  V30 35 H -1.381653 -3.114872 -1.915652 0
M  V30 36 H 4.981170 -0.845149 0.868088 0
M  V30 37 H 4.077453 1.408212 0.523111 0
M  V30 38 H 1.552672 4.711095 -1.663443 0
M  V30 39 H -2.004390 2.246916 0.632480 0
M  V30 40 H -3.366992 1.235948 2.348891 0
M  V30 41 H 0.126491 0.689644 4.776912 0
M  V30 42 H 0.261506 -0.321709 -0.205249 0
M  V30 END ATOM
M  V30 BEGIN BOND
M  V30 1 1 1 2
M  V30 2 1 2 3
M  V30 3 1 2 4
M  V30 4 1 2 5
M  V30 5 2 5 6
M  V30 6 1 6 7
M  V30 7 2 7 8
M  V30 8 1 8 9
M  V30 9 2 9 10
M  V30 10 1 10 11
M  V30 11 1 11 12
M  V30 12 1 12 13
M  V30 13 1 13 14
M  V30 14 2 14 15
M  V30 15 1 15 16
M  V30 16 1 16 17
M  V30 17 2 17 18
M  V30 18 1 18 19
M  V30 19 2 19 20
M  V30 20 1 20 21
M  V30 21 1 20 22
M  V30 22 2 22 23
M  V30 23 1 23 24
M  V30 24 2 11 25
M  V30 25 1 25 26
M  V30 26 1 26 5
M  V30 27 1 26 8
M  V30 28 2 16 12
M  V30 29 1 23 17
M  V30 30 1 1 27
M  V30 31 1 1 28
M  V30 32 1 1 29
M  V30 33 1 3 30
M  V30 34 1 3 31
M  V30 35 1 3 32
M  V30 36 1 4 33
M  V30 37 1 4 34
M  V30 38 1 4 35
M  V30 39 1 9 36
M  V30 40 1 10 37
M  V30 41 1 14 38
M  V30 42 1 18 39
M  V30 43 1 19 40
M  V30 44 1 22 41
M  V30 45 1 25 42
M  V30 END BOND
M  V30 END CTAB
M  END
>  <Dataset>  (248) 
ChEMBL_Kinases

>  <Ligand_Instance>  (248) 
nan

>  <PDB_ID>  (248) 
nan

>  <Standardized_SMILES>  (248) 
CC(C)(C)c1nnc2ccc(-c3ocnc3-c3ccc(F)cc3F)cn12

>  <Name>  (248) 
nan

>  <Pocket>  (248) 
nan

>  <ATP_Site>  (248) 
nan

>  <Peripheral>  (248) 
nan

>  <Num_H_Atoms_ProtBoundConf>  (248) 
nan

>  <Num_Resolved_Atoms>  (248) 
nan

>  <Num_Not_Resolved_Atoms>  (248) 
nan

$$$$
CHEMBL212341
     RDKit          3D

  0  0  0  0  0  0  0  0  0  0999 V3000
M  V30 BEGIN CTAB
M  V30 COUNTS 37 41 0 0 0
M  V30 BEGIN ATOM
M  V30 1 F -0.072954 -5.585459 1.240920 0
M  V30 2 C 0.605348 -4.445751 0.882597 0
M  V30 3 C 1.169942 -3.663112 1.848707 0
M  V30 4 C 1.852070 -2.517912 1.496329 0
M  V30 5 F 2.406726 -1.750872 2.459809 0
M  V30 6 C 1.992141 -2.119279 0.181341 0
M  V30 7 C 2.714896 -0.910656 -0.192835 0
M  V30 8 N 3.813673 -1.055341 -0.991277 0
M  V30 9 C 4.249450 0.228611 -1.155558 0
M  V30 10 O 3.480818 1.095351 -0.510084 0
M  V30 11 C 2.514593 0.442547 0.103501 0
M  V30 12 C 1.387698 0.817418 0.948392 0
M  V30 13 C 1.754324 1.438251 2.123748 0
M  V30 14 C 0.777213 1.849585 3.027164 0
M  V30 15 C -0.533549 1.605906 2.684765 0
M  V30 16 N -1.699061 1.854639 3.290287 0
M  V30 17 N -2.728673 1.421448 2.549841 0
M  V30 18 C -2.218498 0.865127 1.410677 0
M  V30 19 C -3.141746 0.313638 0.431860 0
M  V30 20 C -2.860594 -0.679243 -0.592141 0
M  V30 21 C -2.896817 0.751626 -1.024596 0
M  V30 22 N -0.908379 1.003023 1.545406 0
M  V30 23 C 0.048198 0.619621 0.698727 0
M  V30 24 C 1.414339 -2.920248 -0.806384 0
M  V30 25 C 0.732305 -4.067255 -0.440683 0
M  V30 26 F 0.159136 -4.869273 -1.372407 0
M  V30 27 H 1.056329 -3.980495 2.869333 0
M  V30 28 H 5.125740 0.518333 -1.746212 0
M  V30 29 H 2.768715 1.636449 2.407770 0
M  V30 30 H 1.016651 2.341170 3.962729 0
M  V30 31 H -4.230226 0.433052 0.733457 0
M  V30 32 H -3.769518 -1.248021 -0.975116 0
M  V30 33 H -1.959660 -1.276295 -0.707702 0
M  V30 34 H -3.787053 1.141452 -1.587092 0
M  V30 35 H -1.964236 1.244936 -1.294655 0
M  V30 36 H -0.185727 0.135560 -0.224695 0
M  V30 37 H 1.514035 -2.624958 -1.832951 0
M  V30 END ATOM
M  V30 BEGIN BOND
M  V30 1 1 1 2
M  V30 2 2 2 3
M  V30 3 1 3 4
M  V30 4 1 4 5
M  V30 5 2 4 6
M  V30 6 1 6 7
M  V30 7 1 7 8
M  V30 8 2 8 9
M  V30 9 1 9 10
M  V30 10 1 10 11
M  V30 11 1 11 12
M  V30 12 1 12 13
M  V30 13 2 13 14
M  V30 14 1 14 15
M  V30 15 2 15 16
M  V30 16 1 16 17
M  V30 17 2 17 18
M  V30 18 1 18 19
M  V30 19 1 19 20
M  V30 20 1 20 21
M  V30 21 1 18 22
M  V30 22 1 22 23
M  V30 23 1 6 24
M  V30 24 2 24 25
M  V30 25 1 25 26
M  V30 26 1 25 2
M  V30 27 2 11 7
M  V30 28 2 23 12
M  V30 29 1 22 15
M  V30 30 1 21 19
M  V30 31 1 3 27
M  V30 32 1 9 28
M  V30 33 1 13 29
M  V30 34 1 14 30
M  V30 35 1 19 31
M  V30 36 1 20 32
M  V30 37 1 20 33
M  V30 38 1 21 34
M  V30 39 1 21 35
M  V30 40 1 23 36
M  V30 41 1 24 37
M  V30 END BOND
M  V30 END CTAB
M  END
>  <Dataset>  (249) 
ChEMBL_Kinases

>  <Ligand_Instance>  (249) 
nan

>  <PDB_ID>  (249) 
nan

>  <Standardized_SMILES>  (249) 
Fc1cc(F)c(-c2ncoc2-c2ccc3nnc(C4CC4)n3c2)cc1F

>  <Name>  (249) 
nan

>  <Pocket>  (249) 
nan

>  <ATP_Site>  (249) 
nan

>  <Peripheral>  (249) 
nan

>  <Num_H_Atoms_ProtBoundConf>  (249) 
nan

>  <Num_Resolved_Atoms>  (249) 
nan

>  <Num_Not_Resolved_Atoms>  (249) 
nan

$$$$
CHEMBL212305
     RDKit          3D

  0  0  0  0  0  0  0  0  0  0999 V3000
M  V30 BEGIN CTAB
M  V30 COUNTS 25 26 0 0 0
M  V30 BEGIN ATOM
M  V30 1 N 1.109452 -0.909586 4.480190 0
M  V30 2 C 1.590781 -1.401499 3.525176 0
M  V30 3 C 2.155908 -1.997401 2.347928 0
M  V30 4 C 3.419499 -2.500789 2.397534 0
M  V30 5 O 4.359019 -2.555054 3.447259 0
M  V30 6 N 4.082420 -3.085914 1.408790 0
M  V30 7 S 2.803938 -2.991877 0.046871 0
M  V30 8 C 1.648412 -2.167844 1.149750 0
M  V30 9 N 0.258135 -1.674355 0.886829 0
M  V30 10 C -0.035565 -0.420696 0.286861 0
M  V30 11 C 0.879627 0.421465 -0.301677 0
M  V30 12 C 0.487253 1.634880 -0.857041 0
M  V30 13 C -0.848989 2.020111 -0.825428 0
M  V30 14 Cl -1.302609 3.553245 -1.539599 0
M  V30 15 C -1.760164 1.142936 -0.219335 0
M  V30 16 C -3.193014 1.569222 -0.172137 0
M  V30 17 F -3.900499 0.554800 0.469743 0
M  V30 18 F -3.320817 2.711214 0.627449 0
M  V30 19 F -3.733691 1.766622 -1.429289 0
M  V30 20 C -1.361005 -0.054513 0.325937 0
M  V30 21 H 4.157029 -2.294706 4.395424 0
M  V30 22 H -0.463155 -2.351392 1.195676 0
M  V30 23 H 1.911126 0.067973 -0.294946 0
M  V30 24 H 1.282634 2.225039 -1.293865 0
M  V30 25 H -2.140277 -0.666517 0.771862 0
M  V30 END ATOM
M  V30 BEGIN BOND
M  V30 1 3 1 2
M  V30 2 1 2 3
M  V30 3 1 3 4
M  V30 4 1 4 5
M  V30 5 2 4 6
M  V30 6 1 6 7
M  V30 7 1 7 8
M  V30 8 1 8 9
M  V30 9 1 9 10
M  V30 10 2 10 11
M  V30 11 1 11 12
M  V30 12 2 12 13
M  V30 13 1 13 14
M  V30 14 1 13 15
M  V30 15 1 15 16
M  V30 16 1 16 17
M  V30 17 1 16 18
M  V30 18 1 16 19
M  V30 19 2 15 20
M  V30 20 2 8 3
M  V30 21 1 20 10
M  V30 22 1 5 21
M  V30 23 1 9 22
M  V30 24 1 11 23
M  V30 25 1 12 24
M  V30 26 1 20 25
M  V30 END BOND
M  V30 END CTAB
M  END
>  <Dataset>  (250) 
ChEMBL_Kinases

>  <Ligand_Instance>  (250) 
nan

>  <PDB_ID>  (250) 
nan

>  <Standardized_SMILES>  (250) 
N#Cc1c(O)nsc1Nc1ccc(Cl)c(C(F)(F)F)c1

>  <Name>  (250) 
nan

>  <Pocket>  (250) 
nan

>  <ATP_Site>  (250) 
nan

>  <Peripheral>  (250) 
nan

>  <Num_H_Atoms_ProtBoundConf>  (250) 
nan

>  <Num_Resolved_Atoms>  (250) 
nan

>  <Num_Not_Resolved_Atoms>  (250) 
nan

$$$$
CHEMBL212294
     RDKit          3D

  0  0  0  0  0  0  0  0  0  0999 V3000
M  V30 BEGIN CTAB
M  V30 COUNTS 39 42 0 0 0
M  V30 BEGIN ATOM
M  V30 1 C -0.414058 -4.274893 0.790251 0
M  V30 2 C -1.023363 -3.247953 -0.141689 0
M  V30 3 C -2.025624 -3.944563 -1.030645 0
M  V30 4 C 0.088686 -2.640544 -0.902454 0
M  V30 5 N 0.905861 -3.285932 -1.757382 0
M  V30 6 N 1.780527 -2.464225 -2.262338 0
M  V30 7 C 1.554012 -1.244694 -1.743243 0
M  V30 8 C 2.153204 -0.028325 -1.912307 0
M  V30 9 C 1.697112 1.076132 -1.233781 0
M  V30 10 C 0.608431 0.963399 -0.358596 0
M  V30 11 C 0.151780 2.156707 0.344628 0
M  V30 12 O -0.260413 3.119339 -0.476582 0
M  V30 13 C -0.659592 4.169829 0.230646 0
M  V30 14 N -0.497764 3.870123 1.548737 0
M  V30 15 C 0.010306 2.611158 1.640981 0
M  V30 16 C 0.411482 1.692798 2.700289 0
M  V30 17 C 1.755266 1.342925 2.691718 0
M  V30 18 C 2.209970 0.469591 3.673586 0
M  V30 19 C 1.348815 -0.034581 4.629173 0
M  V30 20 C 0.005899 0.344240 4.599706 0
M  V30 21 C -0.479610 1.207793 3.641312 0
M  V30 22 Cl -2.166880 1.704367 3.577682 0
M  V30 23 C 0.007310 -0.282961 -0.195899 0
M  V30 24 N 0.504861 -1.342644 -0.896842 0
M  V30 25 H -0.942192 -4.356985 1.753922 0
M  V30 26 H -0.463676 -5.263903 0.269988 0
M  V30 27 H 0.681656 -4.095198 0.939004 0
M  V30 28 H -1.482898 -2.451685 0.471345 0
M  V30 29 H -2.985351 -3.389476 -0.925567 0
M  V30 30 H -2.240673 -4.970345 -0.668638 0
M  V30 31 H -1.690853 -4.035293 -2.077833 0
M  V30 32 H 2.987714 0.046883 -2.586246 0
M  V30 33 H 2.169496 2.051482 -1.362709 0
M  V30 34 H -1.050814 5.119543 -0.090513 0
M  V30 35 H 2.470868 1.709253 1.966607 0
M  V30 36 H 3.275849 0.188780 3.671168 0
M  V30 37 H 1.690767 -0.717910 5.402110 0
M  V30 38 H -0.673251 -0.051238 5.350637 0
M  V30 39 H -0.825896 -0.361799 0.475889 0
M  V30 END ATOM
M  V30 BEGIN BOND
M  V30 1 1 1 2
M  V30 2 1 2 3
M  V30 3 1 2 4
M  V30 4 2 4 5
M  V30 5 1 5 6
M  V30 6 2 6 7
M  V30 7 1 7 8
M  V30 8 2 8 9
M  V30 9 1 9 10
M  V30 10 1 10 11
M  V30 11 1 11 12
M  V30 12 1 12 13
M  V30 13 2 13 14
M  V30 14 1 14 15
M  V30 15 1 15 16
M  V30 16 2 16 17
M  V30 17 1 17 18
M  V30 18 2 18 19
M  V30 19 1 19 20
M  V30 20 2 20 21
M  V30 21 1 21 22
M  V30 22 2 10 23
M  V30 23 1 23 24
M  V30 24 1 24 4
M  V30 25 1 24 7
M  V30 26 2 15 11
M  V30 27 1 21 16
M  V30 28 1 1 25
M  V30 29 1 1 26
M  V30 30 1 1 27
M  V30 31 1 2 28
M  V30 32 1 3 29
M  V30 33 1 3 30
M  V30 34 1 3 31
M  V30 35 1 8 32
M  V30 36 1 9 33
M  V30 37 1 13 34
M  V30 38 1 17 35
M  V30 39 1 18 36
M  V30 40 1 19 37
M  V30 41 1 20 38
M  V30 42 1 23 39
M  V30 END BOND
M  V30 END CTAB
M  END
>  <Dataset>  (251) 
ChEMBL_Kinases

>  <Ligand_Instance>  (251) 
nan

>  <PDB_ID>  (251) 
nan

>  <Standardized_SMILES>  (251) 
CC(C)c1nnc2ccc(-c3ocnc3-c3ccccc3Cl)cn12

>  <Name>  (251) 
nan

>  <Pocket>  (251) 
nan

>  <ATP_Site>  (251) 
nan

>  <Peripheral>  (251) 
nan

>  <Num_H_Atoms_ProtBoundConf>  (251) 
nan

>  <Num_Resolved_Atoms>  (251) 
nan

>  <Num_Not_Resolved_Atoms>  (251) 
nan

$$$$
CHEMBL212259
     RDKit          3D

  0  0  0  0  0  0  0  0  0  0999 V3000
M  V30 BEGIN CTAB
M  V30 COUNTS 55 58 0 0 0
M  V30 BEGIN ATOM
M  V30 1 C 4.382442 -4.267919 0.779991 0
M  V30 2 C 4.424935 -3.997679 -0.668745 0
M  V30 3 N 4.958573 -4.753684 -1.655873 0
M  V30 4 N 4.795120 -4.166156 -2.825103 0
M  V30 5 C 4.155483 -3.007721 -2.684764 0
M  V30 6 C 3.761172 -2.051741 -3.596852 0
M  V30 7 C 3.099542 -0.931680 -3.127909 0
M  V30 8 C 2.834302 -0.756763 -1.807664 0
M  V30 9 C 2.136995 0.403631 -1.219828 0
M  V30 10 C 2.249916 1.675507 -1.782508 0
M  V30 11 N 1.623197 2.744406 -1.262451 0
M  V30 12 C 0.848878 2.650468 -0.166939 0
M  V30 13 C 0.697892 1.412192 0.437218 0
M  V30 14 O -0.040959 1.070992 1.562901 0
M  V30 15 C -0.796126 1.967404 2.315841 0
M  V30 16 C -1.505119 1.343463 3.484940 0 CFG=1
M  V30 17 N -2.291235 2.310471 4.228253 0
M  V30 18 C -2.140653 0.058393 3.222091 0
M  V30 19 C -3.194285 -0.144915 2.234562 0
M  V30 20 C -2.983155 0.117405 0.807983 0
M  V30 21 C -4.379082 0.050979 0.152626 0
M  V30 22 C -5.074288 -1.250969 0.447200 0
M  V30 23 C -4.100379 -2.197422 1.063432 0
M  V30 24 C -3.554415 -1.644635 2.330078 0
M  V30 25 C 1.346160 0.292538 -0.096209 0
M  V30 26 C 3.244280 -1.740851 -0.900258 0
M  V30 27 C 3.914403 -2.884870 -1.334992 0
M  V30 28 H 5.302790 -3.860048 1.277636 0
M  V30 29 H 3.527604 -3.697532 1.210399 0
M  V30 30 H 4.223412 -5.335679 1.034984 0
M  V30 31 H 5.145730 -4.603440 -3.717862 0
M  V30 32 H 3.950098 -2.148062 -4.653297 0
M  V30 33 H 2.754427 -0.134309 -3.764362 0
M  V30 34 H 2.863242 1.830121 -2.676034 0
M  V30 35 H 0.304970 3.433657 0.330239 0
M  V30 36 H -0.049896 2.689900 2.800065 0
M  V30 37 H -1.466061 2.632701 1.745400 0
M  V30 38 H -0.653100 1.125780 4.220754 0
M  V30 39 H -2.548459 1.881293 5.132664 0
M  V30 40 H -1.640169 3.094091 4.466884 0
M  V30 41 H -2.537741 -0.401796 4.188194 0
M  V30 42 H -1.310342 -0.685405 2.974351 0
M  V30 43 H -4.118724 0.419383 2.547232 0
M  V30 44 H -2.544285 1.043055 0.475411 0
M  V30 45 H -2.426257 -0.714639 0.284816 0
M  V30 46 H -5.009496 0.849993 0.630535 0
M  V30 47 H -4.351179 0.273922 -0.915056 0
M  V30 48 H -5.481881 -1.723446 -0.470753 0
M  V30 49 H -5.922696 -1.153739 1.141880 0
M  V30 50 H -4.675839 -3.130139 1.345366 0
M  V30 51 H -3.337814 -2.528918 0.327225 0
M  V30 52 H -2.619880 -2.211622 2.567356 0
M  V30 53 H -4.220861 -1.774075 3.180695 0
M  V30 54 H 1.294648 -0.717083 0.297353 0
M  V30 55 H 3.079244 -1.695745 0.188152 0
M  V30 END ATOM
M  V30 BEGIN BOND
M  V30 1 1 1 2
M  V30 2 2 2 3
M  V30 3 1 3 4
M  V30 4 1 4 5
M  V30 5 2 5 6
M  V30 6 1 6 7
M  V30 7 2 7 8
M  V30 8 1 8 9
M  V30 9 2 9 10
M  V30 10 1 10 11
M  V30 11 2 11 12
M  V30 12 1 12 13
M  V30 13 1 13 14
M  V30 14 1 14 15
M  V30 15 1 15 16
M  V30 16 1 16 17
M  V30 17 1 16 18
M  V30 18 1 18 19
M  V30 19 1 19 20
M  V30 20 1 20 21
M  V30 21 1 21 22
M  V30 22 1 22 23
M  V30 23 1 23 24
M  V30 24 2 13 25
M  V30 25 1 8 26
M  V30 26 2 26 27
M  V30 27 1 27 2
M  V30 28 1 27 5
M  V30 29 1 25 9
M  V30 30 1 24 19
M  V30 31 1 1 28
M  V30 32 1 1 29
M  V30 33 1 1 30
M  V30 34 1 4 31
M  V30 35 1 6 32
M  V30 36 1 7 33
M  V30 37 1 10 34
M  V30 38 1 12 35
M  V30 39 1 15 36
M  V30 40 1 15 37
M  V30 41 1 16 38 CFG=1
M  V30 42 1 17 39
M  V30 43 1 17 40
M  V30 44 1 18 41
M  V30 45 1 18 42
M  V30 46 1 19 43
M  V30 47 1 20 44
M  V30 48 1 20 45
M  V30 49 1 21 46
M  V30 50 1 21 47
M  V30 51 1 22 48
M  V30 52 1 22 49
M  V30 53 1 23 50
M  V30 54 1 23 51
M  V30 55 1 24 52
M  V30 56 1 24 53
M  V30 57 1 25 54
M  V30 58 1 26 55
M  V30 END BOND
M  V30 END CTAB
M  END
>  <Dataset>  (252) 
ChEMBL_Kinases

>  <Ligand_Instance>  (252) 
nan

>  <PDB_ID>  (252) 
nan

>  <Standardized_SMILES>  (252) 
Cc1n[nH]c2ccc(-c3cncc(OC[C@@H](N)CC4CCCCC4)c3)cc12

>  <Name>  (252) 
nan

>  <Pocket>  (252) 
nan

>  <ATP_Site>  (252) 
nan

>  <Peripheral>  (252) 
nan

>  <Num_H_Atoms_ProtBoundConf>  (252) 
nan

>  <Num_Resolved_Atoms>  (252) 
nan

>  <Num_Not_Resolved_Atoms>  (252) 
nan

$$$$
CHEMBL212239
     RDKit          3D

  0  0  0  0  0  0  0  0  0  0999 V3000
M  V30 BEGIN CTAB
M  V30 COUNTS 39 42 0 0 0
M  V30 BEGIN ATOM
M  V30 1 C -0.652918 -4.232092 1.166959 0
M  V30 2 C -0.979245 -3.236792 0.086998 0
M  V30 3 C -1.885993 -3.905229 -0.932131 0
M  V30 4 C 0.280613 -2.802827 -0.582134 0
M  V30 5 N 1.178985 -3.606113 -1.181864 0
M  V30 6 N 2.160185 -2.899426 -1.665133 0
M  V30 7 C 1.924988 -1.625306 -1.392712 0
M  V30 8 C 2.633722 -0.465215 -1.673259 0
M  V30 9 C 2.136594 0.733600 -1.261534 0
M  V30 10 C 0.944998 0.854559 -0.568649 0
M  V30 11 C 0.336419 2.091521 -0.094045 0
M  V30 12 O -0.022776 2.980688 -0.993573 0
M  V30 13 C -0.552574 4.035788 -0.425735 0
M  V30 14 N -0.542801 3.832033 0.924943 0
M  V30 15 C 0.016137 2.608424 1.143945 0
M  V30 16 C 0.292905 1.854485 2.361074 0
M  V30 17 C 1.600122 1.524956 2.699223 0
M  V30 18 C 1.741682 0.814538 3.873088 0
M  V30 19 C 0.738270 0.406629 4.727373 0
M  V30 20 C -0.537591 0.781051 4.308315 0
M  V30 21 Cl -1.906102 0.323260 5.307483 0
M  V30 22 C -0.777985 1.486836 3.158765 0
M  V30 23 C 0.263746 -0.336271 -0.306945 0
M  V30 24 N 0.745485 -1.541498 -0.710566 0
M  V30 25 H -1.245872 -4.045453 2.085849 0
M  V30 26 H -0.848174 -5.270869 0.780503 0
M  V30 27 H 0.436394 -4.227955 1.410572 0
M  V30 28 H -1.464751 -2.341597 0.531559 0
M  V30 29 H -2.934887 -3.551857 -0.745111 0
M  V30 30 H -1.850598 -5.006857 -0.818439 0
M  V30 31 H -1.580433 -3.637352 -1.962461 0
M  V30 32 H 3.583005 -0.493823 -2.217705 0
M  V30 33 H 2.643641 1.681725 -1.449181 0
M  V30 34 H -0.958483 4.957239 -0.825359 0
M  V30 35 H 2.438714 1.800908 2.094881 0
M  V30 36 H 2.767782 0.558348 4.134958 0
M  V30 37 H 0.956461 -0.148764 5.627275 0
M  V30 38 H -1.801187 1.746607 2.891292 0
M  V30 39 H -0.691512 -0.338701 0.237592 0
M  V30 END ATOM
M  V30 BEGIN BOND
M  V30 1 1 1 2
M  V30 2 1 2 3
M  V30 3 1 2 4
M  V30 4 2 4 5
M  V30 5 1 5 6
M  V30 6 2 6 7
M  V30 7 1 7 8
M  V30 8 2 8 9
M  V30 9 1 9 10
M  V30 10 1 10 11
M  V30 11 1 11 12
M  V30 12 1 12 13
M  V30 13 2 13 14
M  V30 14 1 14 15
M  V30 15 1 15 16
M  V30 16 2 16 17
M  V30 17 1 17 18
M  V30 18 2 18 19
M  V30 19 1 19 20
M  V30 20 1 20 21
M  V30 21 2 20 22
M  V30 22 2 10 23
M  V30 23 1 23 24
M  V30 24 1 24 4
M  V30 25 1 24 7
M  V30 26 2 15 11
M  V30 27 1 22 16
M  V30 28 1 1 25
M  V30 29 1 1 26
M  V30 30 1 1 27
M  V30 31 1 2 28
M  V30 32 1 3 29
M  V30 33 1 3 30
M  V30 34 1 3 31
M  V30 35 1 8 32
M  V30 36 1 9 33
M  V30 37 1 13 34
M  V30 38 1 17 35
M  V30 39 1 18 36
M  V30 40 1 19 37
M  V30 41 1 22 38
M  V30 42 1 23 39
M  V30 END BOND
M  V30 END CTAB
M  END
>  <Dataset>  (253) 
ChEMBL_Kinases

>  <Ligand_Instance>  (253) 
nan

>  <PDB_ID>  (253) 
nan

>  <Standardized_SMILES>  (253) 
CC(C)c1nnc2ccc(-c3ocnc3-c3cccc(Cl)c3)cn12

>  <Name>  (253) 
nan

>  <Pocket>  (253) 
nan

>  <ATP_Site>  (253) 
nan

>  <Peripheral>  (253) 
nan

>  <Num_H_Atoms_ProtBoundConf>  (253) 
nan

>  <Num_Resolved_Atoms>  (253) 
nan

>  <Num_Not_Resolved_Atoms>  (253) 
nan

$$$$
CHEMBL212238
     RDKit          3D

  0  0  0  0  0  0  0  0  0  0999 V3000
M  V30 BEGIN CTAB
M  V30 COUNTS 39 42 0 0 0
M  V30 BEGIN ATOM
M  V30 1 C 1.257832 -4.154589 2.740638 0
M  V30 2 C 0.469984 -3.118573 2.007320 0
M  V30 3 C -0.991643 -3.581084 1.941184 0
M  V30 4 C 0.990611 -2.918543 0.642743 0
M  V30 5 N 1.159683 -3.897944 -0.273425 0
M  V30 6 N 1.647588 -3.381404 -1.405655 0
M  V30 7 C 1.778738 -2.057156 -1.173889 0
M  V30 8 C 2.234932 -1.019163 -1.984415 0
M  V30 9 C 2.285258 0.293575 -1.533676 0
M  V30 10 C 1.870966 0.578036 -0.245358 0
M  V30 11 C 1.871956 1.911780 0.345728 0
M  V30 12 O 2.780506 2.843462 0.619230 0
M  V30 13 C 2.180886 3.878334 1.169721 0
M  V30 14 N 0.859282 3.626839 1.261084 0
M  V30 15 C 0.624344 2.383206 0.746180 0
M  V30 16 C -0.731172 1.882036 0.733419 0
M  V30 17 C -1.470873 1.550687 -0.385809 0
M  V30 18 C -2.773736 1.077813 -0.249384 0
M  V30 19 Cl -3.680992 0.667919 -1.696924 0
M  V30 20 C -3.363439 0.925424 0.985679 0
M  V30 21 C -2.619115 1.258093 2.097388 0
M  V30 22 C -1.330076 1.727383 1.989166 0
M  V30 23 F -0.700810 2.021275 3.160726 0
M  V30 24 C 1.421820 -0.486311 0.533004 0
M  V30 25 N 1.381254 -1.752339 0.076623 0
M  V30 26 H 0.622478 -4.996778 3.103523 0
M  V30 27 H 2.021975 -4.636196 2.077200 0
M  V30 28 H 1.841398 -3.743749 3.593876 0
M  V30 29 H 0.456405 -2.139868 2.546117 0
M  V30 30 H -1.155463 -4.381565 2.693218 0
M  V30 31 H -1.239018 -3.963145 0.937126 0
M  V30 32 H -1.682030 -2.724005 2.124992 0
M  V30 33 H 2.554769 -1.257544 -2.989270 0
M  V30 34 H 2.637906 1.117134 -2.148543 0
M  V30 35 H 2.773062 4.746956 1.463564 0
M  V30 36 H -0.974759 1.682768 -1.353519 0
M  V30 37 H -4.369249 0.556515 1.009490 0
M  V30 38 H -3.147435 1.112712 3.039014 0
M  V30 39 H 1.093141 -0.272797 1.548026 0
M  V30 END ATOM
M  V30 BEGIN BOND
M  V30 1 1 1 2
M  V30 2 1 2 3
M  V30 3 1 2 4
M  V30 4 2 4 5
M  V30 5 1 5 6
M  V30 6 2 6 7
M  V30 7 1 7 8
M  V30 8 2 8 9
M  V30 9 1 9 10
M  V30 10 1 10 11
M  V30 11 1 11 12
M  V30 12 1 12 13
M  V30 13 2 13 14
M  V30 14 1 14 15
M  V30 15 1 15 16
M  V30 16 2 16 17
M  V30 17 1 17 18
M  V30 18 1 18 19
M  V30 19 2 18 20
M  V30 20 1 20 21
M  V30 21 2 21 22
M  V30 22 1 22 23
M  V30 23 2 10 24
M  V30 24 1 24 25
M  V30 25 1 25 4
M  V30 26 1 25 7
M  V30 27 2 15 11
M  V30 28 1 22 16
M  V30 29 1 1 26
M  V30 30 1 1 27
M  V30 31 1 1 28
M  V30 32 1 2 29
M  V30 33 1 3 30
M  V30 34 1 3 31
M  V30 35 1 3 32
M  V30 36 1 8 33
M  V30 37 1 9 34
M  V30 38 1 13 35
M  V30 39 1 17 36
M  V30 40 1 20 37
M  V30 41 1 21 38
M  V30 42 1 24 39
M  V30 END BOND
M  V30 END CTAB
M  END
>  <Dataset>  (254) 
ChEMBL_Kinases

>  <Ligand_Instance>  (254) 
nan

>  <PDB_ID>  (254) 
nan

>  <Standardized_SMILES>  (254) 
CC(C)c1nnc2ccc(-c3ocnc3-c3cc(Cl)ccc3F)cn12

>  <Name>  (254) 
nan

>  <Pocket>  (254) 
nan

>  <ATP_Site>  (254) 
nan

>  <Peripheral>  (254) 
nan

>  <Num_H_Atoms_ProtBoundConf>  (254) 
nan

>  <Num_Resolved_Atoms>  (254) 
nan

>  <Num_Not_Resolved_Atoms>  (254) 
nan

$$$$
CHEMBL211919
     RDKit          3D

  0  0  0  0  0  0  0  0  0  0999 V3000
M  V30 BEGIN CTAB
M  V30 COUNTS 41 44 0 0 0
M  V30 BEGIN ATOM
M  V30 1 C 0.456540 -5.675231 1.585648 0
M  V30 2 C -0.339359 -4.945265 0.563757 0
M  V30 3 N 0.025000 -3.569546 0.346663 0
M  V30 4 C -0.785882 -2.908776 -0.652573 0
M  V30 5 C 1.079927 -2.967994 1.062414 0
M  V30 6 N 1.814346 -3.607331 1.987945 0
M  V30 7 N 2.723407 -2.835448 2.499399 0
M  V30 8 C 2.641956 -1.621905 1.933185 0
M  V30 9 C 3.348420 -0.450698 2.098838 0
M  V30 10 C 3.003335 0.648274 1.339802 0
M  V30 11 C 1.948986 0.555135 0.421185 0
M  V30 12 C 1.700320 1.770476 -0.300132 0
M  V30 13 O 2.555799 2.288260 -1.156363 0
M  V30 14 C 2.060474 3.406613 -1.668246 0
M  V30 15 N 0.843654 3.591087 -1.104381 0
M  V30 16 C 0.587297 2.580688 -0.240118 0
M  V30 17 C -0.617961 2.420558 0.560599 0
M  V30 18 C -1.594212 1.447926 0.527406 0
M  V30 19 C -2.659966 1.503562 1.399885 0
M  V30 20 C -2.763186 2.545928 2.327769 0
M  V30 21 F -3.882963 2.428725 3.102060 0
M  V30 22 C -1.792128 3.536396 2.379403 0
M  V30 23 C -0.741047 3.445673 1.489604 0
M  V30 24 C 1.310115 -0.661144 0.335187 0
M  V30 25 N 1.626512 -1.743405 1.061507 0
M  V30 26 H 0.029677 -6.725402 1.659084 0
M  V30 27 H 1.503998 -5.836175 1.324217 0
M  V30 28 H 0.283778 -5.264755 2.615231 0
M  V30 29 H -1.422638 -4.960127 0.857684 0
M  V30 30 H -0.295410 -5.540444 -0.377924 0
M  V30 31 H -1.387712 -2.068225 -0.202693 0
M  V30 32 H -1.593490 -3.587646 -1.057443 0
M  V30 33 H -0.218660 -2.596686 -1.554647 0
M  V30 34 H 4.129909 -0.479444 2.819518 0
M  V30 35 H 3.618716 1.522525 1.542118 0
M  V30 36 H 2.602600 3.996485 -2.397087 0
M  V30 37 H -1.405469 0.701055 -0.230289 0
M  V30 38 H -3.356956 0.696205 1.284981 0
M  V30 39 H -1.961745 4.280931 3.116826 0
M  V30 40 H -0.039735 4.284638 1.627621 0
M  V30 41 H 0.516590 -0.701549 -0.372561 0
M  V30 END ATOM
M  V30 BEGIN BOND
M  V30 1 1 1 2
M  V30 2 1 2 3
M  V30 3 1 3 4
M  V30 4 1 3 5
M  V30 5 2 5 6
M  V30 6 1 6 7
M  V30 7 2 7 8
M  V30 8 1 8 9
M  V30 9 2 9 10
M  V30 10 1 10 11
M  V30 11 1 11 12
M  V30 12 1 12 13
M  V30 13 1 13 14
M  V30 14 2 14 15
M  V30 15 1 15 16
M  V30 16 1 16 17
M  V30 17 2 17 18
M  V30 18 1 18 19
M  V30 19 2 19 20
M  V30 20 1 20 21
M  V30 21 1 20 22
M  V30 22 2 22 23
M  V30 23 2 11 24
M  V30 24 1 24 25
M  V30 25 1 25 5
M  V30 26 1 25 8
M  V30 27 2 16 12
M  V30 28 1 23 17
M  V30 29 1 1 26
M  V30 30 1 1 27
M  V30 31 1 1 28
M  V30 32 1 2 29
M  V30 33 1 2 30
M  V30 34 1 4 31
M  V30 35 1 4 32
M  V30 36 1 4 33
M  V30 37 1 9 34
M  V30 38 1 10 35
M  V30 39 1 14 36
M  V30 40 1 18 37
M  V30 41 1 19 38
M  V30 42 1 22 39
M  V30 43 1 23 40
M  V30 44 1 24 41
M  V30 END BOND
M  V30 END CTAB
M  END
>  <Dataset>  (255) 
ChEMBL_Kinases

>  <Ligand_Instance>  (255) 
nan

>  <PDB_ID>  (255) 
nan

>  <Standardized_SMILES>  (255) 
CCN(C)c1nnc2ccc(-c3ocnc3-c3ccc(F)cc3)cn12

>  <Name>  (255) 
nan

>  <Pocket>  (255) 
nan

>  <ATP_Site>  (255) 
nan

>  <Peripheral>  (255) 
nan

>  <Num_H_Atoms_ProtBoundConf>  (255) 
nan

>  <Num_Resolved_Atoms>  (255) 
nan

>  <Num_Not_Resolved_Atoms>  (255) 
nan

$$$$
CHEMBL211932
     RDKit          3D

  0  0  0  0  0  0  0  0  0  0999 V3000
M  V30 BEGIN CTAB
M  V30 COUNTS 81 87 0 0 0
M  V30 BEGIN ATOM
M  V30 1 C -1.013260 -1.692352 -6.188625 0
M  V30 2 C -0.566519 -2.884118 -6.938131 0
M  V30 3 C -1.087583 -3.014664 -8.350642 0
M  V30 4 C 0.228656 -3.861039 -6.544566 0
M  V30 5 C 0.644946 -5.037469 -7.343371 0
M  V30 6 O 0.312521 -5.311366 -8.540470 0
M  V30 7 N 1.495331 -5.817999 -6.520424 0
M  V30 8 C 1.652286 -5.218183 -5.242595 0
M  V30 9 C 2.375967 -5.621699 -4.145553 0
M  V30 10 C 2.356112 -4.852848 -3.025150 0
M  V30 11 C 1.623020 -3.660689 -2.944583 0
M  V30 12 N 1.667869 -2.920069 -1.762879 0
M  V30 13 C 1.033323 -1.704615 -1.294151 0 CFG=2
M  V30 14 C 1.578664 -1.163258 -0.023484 0
M  V30 15 O 1.035990 -0.006427 0.470453 0
M  V30 16 C 0.965629 1.263748 -0.027515 0
M  V30 17 C 1.385576 1.915973 -1.164394 0
M  V30 18 N 1.149957 3.221961 -1.365601 0
M  V30 19 C 0.490619 3.989574 -0.479251 0
M  V30 20 C 0.033740 3.416029 0.689677 0
M  V30 21 C -0.676983 4.294312 1.613535 0
M  V30 22 C -1.412505 5.326360 1.038227 0
M  V30 23 C -2.107297 6.190155 1.857862 0
M  V30 24 C -2.096777 6.063979 3.230814 0
M  V30 25 C -1.372406 5.047506 3.804291 0
M  V30 26 C -0.673476 4.177331 2.988024 0
M  V30 27 C -1.442410 5.023343 5.254624 0
M  V30 28 C -0.948788 4.285225 6.225629 0
M  V30 29 C -0.061304 3.118127 6.001995 0
M  V30 30 C -1.306262 4.649346 7.635193 0
M  V30 31 C -2.327838 6.189035 5.492682 0
M  V30 32 O -2.767432 6.689237 6.584648 0
M  V30 33 N -2.707563 6.797331 4.269591 0
M  V30 34 C 0.275735 2.051662 0.907853 0
M  V30 35 C -0.448153 -2.007627 -1.229418 0
M  V30 36 C -0.806123 -3.136180 -0.345152 0
M  V30 37 C -0.978706 -4.380730 -0.971307 0
M  V30 38 N -1.270335 -5.347478 -0.092734 0
M  V30 39 C -1.301150 -4.784809 1.128204 0
M  V30 40 C -1.540932 -5.203501 2.426761 0
M  V30 41 C -1.492381 -4.293205 3.486488 0
M  V30 42 C -1.202968 -2.941534 3.273386 0
M  V30 43 C -0.962156 -2.511876 1.987706 0
M  V30 44 C -1.020334 -3.444991 0.975472 0
M  V30 45 C 0.935923 -3.347544 -4.094603 0
M  V30 46 C 0.899945 -4.064329 -5.268854 0
M  V30 47 H -1.580722 -1.903671 -5.279445 0
M  V30 48 H -1.586735 -1.006128 -6.879918 0
M  V30 49 H -0.139236 -1.043261 -5.885310 0
M  V30 50 H -1.758231 -2.200426 -8.629599 0
M  V30 51 H -0.258179 -3.018541 -9.085737 0
M  V30 52 H -1.611702 -3.994923 -8.438970 0
M  V30 53 H 1.930625 -6.710245 -6.845743 0
M  V30 54 H 2.939382 -6.526216 -4.188587 0
M  V30 55 H 2.935597 -5.203344 -2.188558 0
M  V30 56 H 2.294461 -3.288841 -0.999246 0
M  V30 57 H 1.159932 -0.957371 -2.101755 0
M  V30 58 H 1.575455 -1.938662 0.799621 0
M  V30 59 H 2.689199 -0.960067 -0.174894 0
M  V30 60 H 1.908868 1.236232 -1.818018 0
M  V30 61 H 0.381833 5.019673 -0.784696 0
M  V30 62 H -1.470039 5.490594 -0.032650 0
M  V30 63 H -2.682566 6.996194 1.424879 0
M  V30 64 H -0.095212 3.371037 3.383557 0
M  V30 65 H -0.574135 2.329216 5.441431 0
M  V30 66 H 0.198657 2.716917 7.028548 0
M  V30 67 H 0.900355 3.389515 5.519096 0
M  V30 68 H -1.055403 5.695154 7.885607 0
M  V30 69 H -0.746831 4.015453 8.355371 0
M  V30 70 H -2.372598 4.515468 7.848421 0
M  V30 71 H -3.307627 7.616090 4.086400 0
M  V30 72 H -0.153150 1.762626 1.880889 0
M  V30 73 H -0.948851 -2.054965 -2.209095 0
M  V30 74 H -0.893246 -1.100634 -0.731432 0
M  V30 75 H -0.920048 -4.695256 -2.025409 0
M  V30 76 H -1.457152 -6.365941 -0.206569 0
M  V30 77 H -1.767625 -6.252345 2.597188 0
M  V30 78 H -1.674423 -4.599018 4.496575 0
M  V30 79 H -1.177228 -2.276596 4.126808 0
M  V30 80 H -0.745992 -1.468660 1.829915 0
M  V30 81 H 0.381491 -2.440719 -4.062417 0
M  V30 END ATOM
M  V30 BEGIN BOND
M  V30 1 1 1 2
M  V30 2 1 2 3
M  V30 3 2 2 4 CFG=2
M  V30 4 1 4 5
M  V30 5 2 5 6
M  V30 6 1 5 7
M  V30 7 1 7 8
M  V30 8 2 8 9
M  V30 9 1 9 10
M  V30 10 2 10 11
M  V30 11 1 11 12
M  V30 12 1 12 13
M  V30 13 1 13 14
M  V30 14 1 14 15
M  V30 15 1 15 16
M  V30 16 2 16 17
M  V30 17 1 17 18
M  V30 18 2 18 19
M  V30 19 1 19 20
M  V30 20 1 20 21
M  V30 21 2 21 22
M  V30 22 1 22 23
M  V30 23 2 23 24
M  V30 24 1 24 25
M  V30 25 2 25 26
M  V30 26 1 25 27
M  V30 27 2 27 28 CFG=2
M  V30 28 1 28 29
M  V30 29 1 28 30
M  V30 30 1 27 31
M  V30 31 2 31 32
M  V30 32 1 31 33
M  V30 33 2 20 34
M  V30 34 1 13 35
M  V30 35 1 35 36
M  V30 36 2 36 37
M  V30 37 1 37 38
M  V30 38 1 38 39
M  V30 39 2 39 40
M  V30 40 1 40 41
M  V30 41 2 41 42
M  V30 42 1 42 43
M  V30 43 2 43 44
M  V30 44 1 11 45
M  V30 45 2 45 46
M  V30 46 1 46 4
M  V30 47 1 46 8
M  V30 48 1 34 16
M  V30 49 1 44 36
M  V30 50 1 26 21
M  V30 51 1 44 39
M  V30 52 1 33 24
M  V30 53 1 1 47
M  V30 54 1 1 48
M  V30 55 1 1 49
M  V30 56 1 3 50
M  V30 57 1 3 51
M  V30 58 1 3 52
M  V30 59 1 7 53
M  V30 60 1 9 54
M  V30 61 1 10 55
M  V30 62 1 12 56
M  V30 63 1 13 57 CFG=3
M  V30 64 1 14 58
M  V30 65 1 14 59
M  V30 66 1 17 60
M  V30 67 1 19 61
M  V30 68 1 22 62
M  V30 69 1 23 63
M  V30 70 1 26 64
M  V30 71 1 29 65
M  V30 72 1 29 66
M  V30 73 1 29 67
M  V30 74 1 30 68
M  V30 75 1 30 69
M  V30 76 1 30 70
M  V30 77 1 33 71
M  V30 78 1 34 72
M  V30 79 1 35 73
M  V30 80 1 35 74
M  V30 81 1 37 75
M  V30 82 1 38 76
M  V30 83 1 40 77
M  V30 84 1 41 78
M  V30 85 1 42 79
M  V30 86 1 43 80
M  V30 87 1 45 81
M  V30 END BOND
M  V30 END CTAB
M  END
>  <Dataset>  (256) 
ChEMBL_Kinases

>  <Ligand_Instance>  (256) 
nan

>  <PDB_ID>  (256) 
nan

>  <Standardized_SMILES>  (256) 
CC(C)=C1C(=O)Nc2ccc(N[C@H](COc3cncc(-c4ccc5c(c4)C(=C(C)C)C(=O)N5)c3)Cc3c[nH]c4ccccc34)cc21

>  <Name>  (256) 
nan

>  <Pocket>  (256) 
nan

>  <ATP_Site>  (256) 
nan

>  <Peripheral>  (256) 
nan

>  <Num_H_Atoms_ProtBoundConf>  (256) 
nan

>  <Num_Resolved_Atoms>  (256) 
nan

>  <Num_Not_Resolved_Atoms>  (256) 
nan

$$$$
CHEMBL211944
     RDKit          3D

  0  0  0  0  0  0  0  0  0  0999 V3000
M  V30 BEGIN CTAB
M  V30 COUNTS 54 57 0 0 0
M  V30 BEGIN ATOM
M  V30 1 C -0.577353 -3.459014 4.637486 0
M  V30 2 C -0.087804 -2.895147 3.322749 0 CFG=2
M  V30 3 N 1.303792 -2.561364 3.362167 0
M  V30 4 C 1.915572 -2.012962 2.184044 0
M  V30 5 N 3.218234 -1.687834 2.183076 0
M  V30 6 C 3.833048 -1.171540 1.102713 0
M  V30 7 C 3.119489 -0.959286 -0.058515 0
M  V30 8 C 1.779355 -1.289507 -0.070187 0
M  V30 9 N 0.811585 -1.179080 -1.117108 0
M  V30 10 C 0.017428 -0.021375 -1.311228 0
M  V30 11 O -0.784372 -0.042026 -2.248440 0
M  V30 12 N 0.022599 1.162420 -0.567598 0
M  V30 13 C -0.608523 2.394282 -0.527471 0
M  V30 14 C -0.192226 3.237440 0.475324 0
M  V30 15 C -0.720706 4.490308 0.646636 0
M  V30 16 C -1.700107 4.945273 -0.196516 0
M  V30 17 C -2.155592 4.157134 -1.210151 0
M  V30 18 C -1.589811 2.914302 -1.332337 0
M  V30 19 Cl -2.243559 2.004300 -2.649313 0
M  V30 20 C 0.678331 -2.302283 -1.970673 0
M  V30 21 C -0.224615 -3.291426 -1.649480 0
M  V30 22 C -0.373773 -4.406375 -2.473676 0
M  V30 23 C 0.366046 -4.566018 -3.631186 0
M  V30 24 F 0.239309 -5.641561 -4.449661 0
M  V30 25 C 1.260233 -3.554911 -3.920175 0
M  V30 26 C 1.432548 -2.425008 -3.113814 0
M  V30 27 N 1.217072 -1.809030 1.058764 0
M  V30 28 C -0.939132 -1.751161 2.892636 0
M  V30 29 C -0.673877 -0.505686 3.464726 0
M  V30 30 C -1.420893 0.601777 3.115658 0
M  V30 31 C -2.440167 0.515134 2.202434 0
M  V30 32 C -2.704250 -0.728572 1.631850 0
M  V30 33 C -1.964685 -1.841184 1.973009 0
M  V30 34 H -0.948345 -2.665978 5.322437 0
M  V30 35 H -1.428861 -4.157557 4.445479 0
M  V30 36 H 0.202633 -4.065534 5.126551 0
M  V30 37 H -0.218720 -3.709094 2.579816 0
M  V30 38 H 1.870573 -2.702185 4.201941 0
M  V30 39 H 4.879113 -0.890581 1.042795 0
M  V30 40 H 3.444964 -0.560729 -1.003175 0
M  V30 41 H 0.765121 0.948522 0.155176 0
M  V30 42 H 0.582854 2.982257 1.207768 0
M  V30 43 H -0.380739 5.121177 1.429690 0
M  V30 44 H -2.085875 5.934541 -0.025017 0
M  V30 45 H -2.920565 4.566201 -1.835308 0
M  V30 46 H -0.837237 -3.221067 -0.747984 0
M  V30 47 H -1.082524 -5.203538 -2.240697 0
M  V30 48 H 1.875198 -3.597421 -4.799207 0
M  V30 49 H 2.133508 -1.667095 -3.372338 0
M  V30 50 H 0.104254 -0.348178 4.186884 0
M  V30 51 H -1.209802 1.579849 3.567349 0
M  V30 52 H -2.999653 1.414659 1.960153 0
M  V30 53 H -3.501843 -0.783781 0.920687 0
M  V30 54 H -2.166288 -2.817941 1.529958 0
M  V30 END ATOM
M  V30 BEGIN BOND
M  V30 1 1 1 2
M  V30 2 1 2 3
M  V30 3 1 3 4
M  V30 4 2 4 5
M  V30 5 1 5 6
M  V30 6 2 6 7
M  V30 7 1 7 8
M  V30 8 1 8 9
M  V30 9 1 9 10
M  V30 10 2 10 11
M  V30 11 1 10 12
M  V30 12 1 12 13
M  V30 13 2 13 14
M  V30 14 1 14 15
M  V30 15 2 15 16
M  V30 16 1 16 17
M  V30 17 2 17 18
M  V30 18 1 18 19
M  V30 19 1 9 20
M  V30 20 2 20 21
M  V30 21 1 21 22
M  V30 22 2 22 23
M  V30 23 1 23 24
M  V30 24 1 23 25
M  V30 25 2 25 26
M  V30 26 2 8 27
M  V30 27 1 2 28
M  V30 28 2 28 29
M  V30 29 1 29 30
M  V30 30 2 30 31
M  V30 31 1 31 32
M  V30 32 2 32 33
M  V30 33 1 27 4
M  V30 34 1 33 28
M  V30 35 1 18 13
M  V30 36 1 26 20
M  V30 37 1 1 34
M  V30 38 1 1 35
M  V30 39 1 1 36
M  V30 40 1 2 37 CFG=3
M  V30 41 1 3 38
M  V30 42 1 6 39
M  V30 43 1 7 40
M  V30 44 1 12 41
M  V30 45 1 14 42
M  V30 46 1 15 43
M  V30 47 1 16 44
M  V30 48 1 17 45
M  V30 49 1 21 46
M  V30 50 1 22 47
M  V30 51 1 25 48
M  V30 52 1 26 49
M  V30 53 1 29 50
M  V30 54 1 30 51
M  V30 55 1 31 52
M  V30 56 1 32 53
M  V30 57 1 33 54
M  V30 END BOND
M  V30 END CTAB
M  END
>  <Dataset>  (257) 
ChEMBL_Kinases

>  <Ligand_Instance>  (257) 
nan

>  <PDB_ID>  (257) 
nan

>  <Standardized_SMILES>  (257) 
C[C@H](Nc1nccc(N(C(=O)Nc2ccccc2Cl)c2ccc(F)cc2)n1)c1ccccc1

>  <Name>  (257) 
nan

>  <Pocket>  (257) 
nan

>  <ATP_Site>  (257) 
nan

>  <Peripheral>  (257) 
nan

>  <Num_H_Atoms_ProtBoundConf>  (257) 
nan

>  <Num_Resolved_Atoms>  (257) 
nan

>  <Num_Not_Resolved_Atoms>  (257) 
nan

$$$$
CHEMBL212038
     RDKit          3D

  0  0  0  0  0  0  0  0  0  0999 V3000
M  V30 BEGIN CTAB
M  V30 COUNTS 39 42 0 0 0
M  V30 BEGIN ATOM
M  V30 1 C 1.521653 -4.230186 2.578121 0
M  V30 2 C 0.585653 -3.276370 1.873000 0
M  V30 3 C -0.790355 -3.928795 1.685271 0
M  V30 4 C 1.104838 -3.017945 0.509851 0
M  V30 5 N 1.395390 -3.882821 -0.480546 0
M  V30 6 N 1.836722 -3.247007 -1.546190 0
M  V30 7 C 1.847731 -1.944031 -1.283222 0
M  V30 8 C 2.218274 -0.839055 -2.050256 0
M  V30 9 C 2.102588 0.404048 -1.454639 0
M  V30 10 C 1.640376 0.533154 -0.159567 0
M  V30 11 C 1.562688 1.900912 0.358731 0
M  V30 12 O 2.557313 2.752672 0.495001 0
M  V30 13 C 2.153484 3.897059 0.988941 0
M  V30 14 N 0.820427 3.788879 1.187359 0
M  V30 15 C 0.411076 2.544264 0.801737 0
M  V30 16 C -0.923080 1.992855 0.837635 0
M  V30 17 C -1.717714 1.560948 -0.192082 0
M  V30 18 F -1.149624 1.677000 -1.418134 0
M  V30 19 C -2.981471 1.055263 0.022204 0
M  V30 20 C -3.434249 0.994688 1.331806 0
M  V30 21 C -2.676142 1.416744 2.415200 0
M  V30 22 C -1.410377 1.918352 2.150292 0
M  V30 23 F -0.742800 2.306649 3.276495 0
M  V30 24 C 1.285473 -0.598078 0.559108 0
M  V30 25 N 1.396256 -1.810948 -0.016885 0
M  V30 26 H 0.913096 -5.049008 3.027631 0
M  V30 27 H 2.257798 -4.666489 1.889707 0
M  V30 28 H 2.081905 -3.708015 3.393803 0
M  V30 29 H 0.459239 -2.323984 2.436565 0
M  V30 30 H -1.317101 -3.307120 0.918648 0
M  V30 31 H -0.612999 -4.919903 1.231572 0
M  V30 32 H -1.358761 -3.963172 2.635228 0
M  V30 33 H 2.582475 -0.954885 -3.073439 0
M  V30 34 H 2.389548 1.287881 -2.042353 0
M  V30 35 H 2.748519 4.775681 1.206394 0
M  V30 36 H -3.570152 0.727165 -0.822673 0
M  V30 37 H -4.425045 0.599227 1.521453 0
M  V30 38 H -3.108517 1.331923 3.392322 0
M  V30 39 H 0.932830 -0.438357 1.562024 0
M  V30 END ATOM
M  V30 BEGIN BOND
M  V30 1 1 1 2
M  V30 2 1 2 3
M  V30 3 1 2 4
M  V30 4 2 4 5
M  V30 5 1 5 6
M  V30 6 2 6 7
M  V30 7 1 7 8
M  V30 8 2 8 9
M  V30 9 1 9 10
M  V30 10 1 10 11
M  V30 11 1 11 12
M  V30 12 1 12 13
M  V30 13 2 13 14
M  V30 14 1 14 15
M  V30 15 1 15 16
M  V30 16 2 16 17
M  V30 17 1 17 18
M  V30 18 1 17 19
M  V30 19 2 19 20
M  V30 20 1 20 21
M  V30 21 2 21 22
M  V30 22 1 22 23
M  V30 23 2 10 24
M  V30 24 1 24 25
M  V30 25 1 25 4
M  V30 26 1 25 7
M  V30 27 2 15 11
M  V30 28 1 22 16
M  V30 29 1 1 26
M  V30 30 1 1 27
M  V30 31 1 1 28
M  V30 32 1 2 29
M  V30 33 1 3 30
M  V30 34 1 3 31
M  V30 35 1 3 32
M  V30 36 1 8 33
M  V30 37 1 9 34
M  V30 38 1 13 35
M  V30 39 1 19 36
M  V30 40 1 20 37
M  V30 41 1 21 38
M  V30 42 1 24 39
M  V30 END BOND
M  V30 END CTAB
M  END
>  <Dataset>  (258) 
ChEMBL_Kinases

>  <Ligand_Instance>  (258) 
nan

>  <PDB_ID>  (258) 
nan

>  <Standardized_SMILES>  (258) 
CC(C)c1nnc2ccc(-c3ocnc3-c3c(F)cccc3F)cn12

>  <Name>  (258) 
nan

>  <Pocket>  (258) 
nan

>  <ATP_Site>  (258) 
nan

>  <Peripheral>  (258) 
nan

>  <Num_H_Atoms_ProtBoundConf>  (258) 
nan

>  <Num_Resolved_Atoms>  (258) 
nan

>  <Num_Not_Resolved_Atoms>  (258) 
nan

$$$$
CHEMBL212067
     RDKit          3D

  0  0  0  0  0  0  0  0  0  0999 V3000
M  V30 BEGIN CTAB
M  V30 COUNTS 67 73 0 0 0
M  V30 BEGIN ATOM
M  V30 1 O 5.261888 -3.501026 5.900597 0
M  V30 2 C 4.465290 -2.989861 5.079522 0
M  V30 3 N 3.068310 -3.208637 5.044885 0
M  V30 4 C 2.543253 -2.444796 3.964206 0
M  V30 5 C 1.245072 -2.319241 3.517251 0
M  V30 6 C 1.014300 -1.504543 2.437464 0
M  V30 7 C 1.956553 -0.795091 1.751820 0
M  V30 8 N 1.711757 0.049493 0.646056 0
M  V30 9 C 0.445386 0.366971 0.041857 0 CFG=2
M  V30 10 C 0.646860 0.967725 -1.351546 0
M  V30 11 O -0.542045 1.295384 -1.973800 0
M  V30 12 C -1.607981 0.574375 -2.364945 0
M  V30 13 C -2.531426 1.471524 -2.935516 0
M  V30 14 N -3.735319 1.075331 -3.441475 0
M  V30 15 C -4.076148 -0.229495 -3.402828 0
M  V30 16 C -3.227355 -1.164462 -2.861903 0
M  V30 17 C -3.482164 -2.594519 -2.760438 0
M  V30 18 C -4.240232 -3.303526 -3.685025 0
M  V30 19 C -4.433261 -4.672776 -3.512178 0
M  V30 20 C -3.902122 -5.377402 -2.451444 0
M  V30 21 C -3.138169 -4.689183 -1.511212 0
M  V30 22 C -2.973572 -3.342151 -1.719862 0
M  V30 23 C -2.625376 -5.589116 -0.424815 0
M  V30 24 F -3.105229 -5.175552 0.800412 0
M  V30 25 F -1.244746 -5.616155 -0.443886 0
M  V30 26 C -3.202634 -6.896137 -0.836839 0
M  V30 27 O -2.972700 -7.888473 -0.117371 0
M  V30 28 N -3.945257 -6.740946 -2.040515 0
M  V30 29 C -2.023830 -0.734381 -2.361837 0
M  V30 30 C -0.407698 1.316173 0.863426 0
M  V30 31 C 0.226794 2.633177 1.089702 0
M  V30 32 C -0.118065 3.685392 0.225121 0
M  V30 33 N 0.586919 4.806006 0.560683 0
M  V30 34 C 1.378409 4.527462 1.611040 0
M  V30 35 C 2.292285 5.224051 2.389664 0
M  V30 36 C 2.948344 4.602920 3.444703 0
M  V30 37 C 2.689343 3.268201 3.728387 0
M  V30 38 C 1.781793 2.584192 2.951285 0
M  V30 39 C 1.149996 3.221981 1.915666 0
M  V30 40 C 3.237296 -0.953813 2.236976 0
M  V30 41 C 3.539624 -1.754568 3.314402 0
M  V30 42 C 4.830235 -2.056238 3.983437 0
M  V30 43 F 5.382764 -0.921567 4.567017 0
M  V30 44 F 5.728859 -2.689986 3.173270 0
M  V30 45 H 2.569344 -3.820776 5.707397 0
M  V30 46 H 0.461086 -2.861017 4.027432 0
M  V30 47 H -0.019737 -1.459631 2.136465 0
M  V30 48 H 2.537501 0.508622 0.200879 0
M  V30 49 H -0.122294 -0.559371 -0.082010 0
M  V30 50 H 1.090068 0.114136 -1.945743 0
M  V30 51 H 1.405087 1.751705 -1.378822 0
M  V30 52 H -2.473689 2.563570 -3.074674 0
M  V30 53 H -5.018311 -0.606108 -3.788365 0
M  V30 54 H -4.667567 -2.783229 -4.522069 0
M  V30 55 H -5.029796 -5.239796 -4.237453 0
M  V30 56 H -2.375049 -2.800158 -0.983642 0
M  V30 57 H -4.434363 -7.529306 -2.521525 0
M  V30 58 H -1.279932 -1.367222 -1.926902 0
M  V30 59 H -1.400957 1.396769 0.396684 0
M  V30 60 H -0.602161 0.787066 1.836559 0
M  V30 61 H -0.806914 3.751399 -0.610500 0
M  V30 62 H 0.563292 5.750297 0.119550 0
M  V30 63 H 2.482725 6.281173 2.148502 0
M  V30 64 H 3.664677 5.178065 4.043115 0
M  V30 65 H 3.200650 2.773784 4.555957 0
M  V30 66 H 1.609174 1.572229 3.216482 0
M  V30 67 H 4.061928 -0.419135 1.746043 0
M  V30 END ATOM
M  V30 BEGIN BOND
M  V30 1 2 1 2
M  V30 2 1 2 3
M  V30 3 1 3 4
M  V30 4 2 4 5
M  V30 5 1 5 6
M  V30 6 2 6 7
M  V30 7 1 7 8
M  V30 8 1 8 9
M  V30 9 1 9 10
M  V30 10 1 10 11
M  V30 11 1 11 12
M  V30 12 2 12 13
M  V30 13 1 13 14
M  V30 14 2 14 15
M  V30 15 1 15 16
M  V30 16 1 16 17
M  V30 17 2 17 18
M  V30 18 1 18 19
M  V30 19 2 19 20
M  V30 20 1 20 21
M  V30 21 2 21 22
M  V30 22 1 21 23
M  V30 23 1 23 24
M  V30 24 1 23 25
M  V30 25 1 23 26
M  V30 26 2 26 27
M  V30 27 1 26 28
M  V30 28 2 16 29
M  V30 29 1 9 30
M  V30 30 1 30 31
M  V30 31 2 31 32
M  V30 32 1 32 33
M  V30 33 1 33 34
M  V30 34 2 34 35
M  V30 35 1 35 36
M  V30 36 2 36 37
M  V30 37 1 37 38
M  V30 38 2 38 39
M  V30 39 1 7 40
M  V30 40 2 40 41
M  V30 41 1 41 42
M  V30 42 1 42 43
M  V30 43 1 42 44
M  V30 44 1 42 2
M  V30 45 1 41 4
M  V30 46 1 29 12
M  V30 47 1 39 31
M  V30 48 1 22 17
M  V30 49 1 39 34
M  V30 50 1 28 20
M  V30 51 1 3 45
M  V30 52 1 5 46
M  V30 53 1 6 47
M  V30 54 1 8 48
M  V30 55 1 9 49 CFG=3
M  V30 56 1 10 50
M  V30 57 1 10 51
M  V30 58 1 13 52
M  V30 59 1 15 53
M  V30 60 1 18 54
M  V30 61 1 19 55
M  V30 62 1 22 56
M  V30 63 1 28 57
M  V30 64 1 29 58
M  V30 65 1 30 59
M  V30 66 1 30 60
M  V30 67 1 32 61
M  V30 68 1 33 62
M  V30 69 1 35 63
M  V30 70 1 36 64
M  V30 71 1 37 65
M  V30 72 1 38 66
M  V30 73 1 40 67
M  V30 END BOND
M  V30 END CTAB
M  END
>  <Dataset>  (259) 
ChEMBL_Kinases

>  <Ligand_Instance>  (259) 
nan

>  <PDB_ID>  (259) 
nan

>  <Standardized_SMILES>  (259) 
O=C1Nc2ccc(N[C@H](COc3cncc(-c4ccc5c(c4)C(F)(F)C(=O)N5)c3)Cc3c[nH]c4ccccc34)cc2C1(F)F

>  <Name>  (259) 
nan

>  <Pocket>  (259) 
nan

>  <ATP_Site>  (259) 
nan

>  <Peripheral>  (259) 
nan

>  <Num_H_Atoms_ProtBoundConf>  (259) 
nan

>  <Num_Resolved_Atoms>  (259) 
nan

>  <Num_Not_Resolved_Atoms>  (259) 
nan

$$$$
CHEMBL212091
     RDKit          3D

  0  0  0  0  0  0  0  0  0  0999 V3000
M  V30 BEGIN CTAB
M  V30 COUNTS 58 63 0 0 0
M  V30 BEGIN ATOM
M  V30 1 O 3.335995 -4.393664 -1.035605 0
M  V30 2 C 3.066018 -3.285963 -0.524076 0
M  V30 3 N 4.086358 -2.544405 0.147282 0
M  V30 4 C 4.019711 -1.245321 0.789325 0
M  V30 5 C 2.658076 -0.723219 0.716855 0
M  V30 6 C 2.368914 0.488053 1.305680 0
M  V30 7 C 3.286437 1.343922 2.032985 0
M  V30 8 C 4.452367 1.946721 1.610994 0
M  V30 9 C 5.143178 2.733088 2.502992 0
M  V30 10 C 4.785194 2.989677 3.806408 0
M  V30 11 C 3.607647 2.371845 4.206601 0
M  V30 12 C 2.879429 1.568307 3.334433 0
M  V30 13 Cl 1.429397 0.884060 4.041701 0
M  V30 14 N 1.109441 0.987412 1.250870 0
M  V30 15 C 0.091742 0.345412 0.632357 0
M  V30 16 N -1.215691 0.892946 0.597791 0
M  V30 17 C -2.320488 0.270458 -0.060152 0
M  V30 18 C -2.656141 -1.110430 0.396944 0
M  V30 19 N -4.045433 -1.369587 0.007916 0
M  V30 20 C -4.308520 -0.752638 -1.264595 0
M  V30 21 C -4.478140 0.747074 -1.042729 0
M  V30 22 C -3.595197 1.099571 0.134642 0
M  V30 23 C -4.334956 0.614093 1.389122 0
M  V30 24 C -4.860346 -0.769872 1.067534 0
M  V30 25 N 0.343773 -0.840960 0.047668 0
M  V30 26 C 1.602680 -1.360923 0.092033 0
M  V30 27 N 1.801823 -2.629109 -0.523134 0
M  V30 28 C 0.734644 -3.330191 -1.181134 0
M  V30 29 C 0.026590 -4.167805 -0.352178 0
M  V30 30 Cl 0.322876 -4.420886 1.351245 0
M  V30 31 C -1.029506 -4.893182 -0.895111 0
M  V30 32 C -1.323917 -4.743749 -2.243032 0
M  V30 33 C -0.591109 -3.885528 -3.073072 0
M  V30 34 C 0.462815 -3.163937 -2.521737 0
M  V30 35 Cl 1.430282 -2.067877 -3.481123 0
M  V30 36 H 5.046814 -2.979461 0.203562 0
M  V30 37 H 4.815682 -0.577247 0.478734 0
M  V30 38 H 4.215912 -1.459964 1.880514 0
M  V30 39 H 4.734675 1.758549 0.589276 0
M  V30 40 H 6.061970 3.201340 2.150261 0
M  V30 41 H 5.354831 3.611914 4.473399 0
M  V30 42 H 3.298197 2.557665 5.241349 0
M  V30 43 H -1.372553 1.821680 1.093132 0
M  V30 44 H -2.073100 0.258761 -1.152531 0
M  V30 45 H -2.616699 -1.213817 1.498100 0
M  V30 46 H -2.048914 -1.917244 -0.040799 0
M  V30 47 H -5.219677 -1.161585 -1.757639 0
M  V30 48 H -3.476751 -0.969258 -1.959255 0
M  V30 49 H -5.544272 0.892317 -0.735666 0
M  V30 50 H -4.238159 1.326467 -1.957191 0
M  V30 51 H -3.368560 2.166488 0.189950 0
M  V30 52 H -5.206282 1.264397 1.525759 0
M  V30 53 H -3.662093 0.587361 2.278943 0
M  V30 54 H -5.933958 -0.749392 0.796478 0
M  V30 55 H -4.710692 -1.403964 1.960024 0
M  V30 56 H -1.632913 -5.579318 -0.284737 0
M  V30 57 H -2.123440 -5.268786 -2.732361 0
M  V30 58 H -0.841351 -3.788148 -4.117737 0
M  V30 END ATOM
M  V30 BEGIN BOND
M  V30 1 2 1 2
M  V30 2 1 2 3
M  V30 3 1 3 4
M  V30 4 1 4 5
M  V30 5 2 5 6
M  V30 6 1 6 7
M  V30 7 2 7 8
M  V30 8 1 8 9
M  V30 9 2 9 10
M  V30 10 1 10 11
M  V30 11 2 11 12
M  V30 12 1 12 13
M  V30 13 1 6 14
M  V30 14 2 14 15
M  V30 15 1 15 16
M  V30 16 1 16 17
M  V30 17 1 17 18
M  V30 18 1 18 19
M  V30 19 1 19 20
M  V30 20 1 20 21
M  V30 21 1 21 22
M  V30 22 1 22 23
M  V30 23 1 23 24
M  V30 24 1 15 25
M  V30 25 2 25 26
M  V30 26 1 26 27
M  V30 27 1 27 28
M  V30 28 2 28 29
M  V30 29 1 29 30
M  V30 30 1 29 31
M  V30 31 2 31 32
M  V30 32 1 32 33
M  V30 33 2 33 34
M  V30 34 1 34 35
M  V30 35 1 27 2
M  V30 36 1 34 28
M  V30 37 1 26 5
M  V30 38 1 12 7
M  V30 39 1 22 17
M  V30 40 1 24 19
M  V30 41 1 3 36
M  V30 42 1 4 37
M  V30 43 1 4 38
M  V30 44 1 8 39
M  V30 45 1 9 40
M  V30 46 1 10 41
M  V30 47 1 11 42
M  V30 48 1 16 43
M  V30 49 1 17 44
M  V30 50 1 18 45
M  V30 51 1 18 46
M  V30 52 1 20 47
M  V30 53 1 20 48
M  V30 54 1 21 49
M  V30 55 1 21 50
M  V30 56 1 22 51
M  V30 57 1 23 52
M  V30 58 1 23 53
M  V30 59 1 24 54
M  V30 60 1 24 55
M  V30 61 1 31 56
M  V30 62 1 32 57
M  V30 63 1 33 58
M  V30 END BOND
M  V30 END CTAB
M  END
>  <Dataset>  (260) 
ChEMBL_Kinases

>  <Ligand_Instance>  (260) 
nan

>  <PDB_ID>  (260) 
nan

>  <Standardized_SMILES>  (260) 
O=C1NCc2c(-c3ccccc3Cl)nc(NC3CN4CCC3CC4)nc2N1c1c(Cl)cccc1Cl

>  <Name>  (260) 
nan

>  <Pocket>  (260) 
nan

>  <ATP_Site>  (260) 
nan

>  <Peripheral>  (260) 
nan

>  <Num_H_Atoms_ProtBoundConf>  (260) 
nan

>  <Num_Resolved_Atoms>  (260) 
nan

>  <Num_Not_Resolved_Atoms>  (260) 
nan

$$$$
CHEMBL212098
     RDKit          3D

  0  0  0  0  0  0  0  0  0  0999 V3000
M  V30 BEGIN CTAB
M  V30 COUNTS 55 58 0 0 0
M  V30 BEGIN ATOM
M  V30 1 C 1.278064 -3.351027 3.365953 0
M  V30 2 C 2.738455 -3.014303 3.348798 0
M  V30 3 N 3.671806 -3.702140 4.007695 0
M  V30 4 N 4.838735 -3.137411 3.775286 0
M  V30 5 C 4.703838 -2.063089 2.957269 0
M  V30 6 C 5.564056 -1.134307 2.405288 0
M  V30 7 C 5.072548 -0.134742 1.585123 0
M  V30 8 C 3.719465 -0.029336 1.290989 0
M  V30 9 C 3.238087 1.038725 0.419755 0
M  V30 10 C 3.977902 1.565475 -0.617786 0
M  V30 11 N 3.407385 2.562468 -1.356856 0
M  V30 12 C 2.152631 2.997040 -1.053871 0
M  V30 13 C 1.378068 2.475527 -0.000807 0
M  V30 14 O 0.197924 3.169651 -0.028361 0
M  V30 15 C -0.874382 2.993038 0.816575 0
M  V30 16 C -1.543907 1.664003 0.813491 0
M  V30 17 C -2.097382 1.293546 -0.548392 0
M  V30 18 C -2.759729 -0.077152 -0.445172 0 CFG=1
M  V30 19 N -3.830517 -0.068037 0.506378 0
M  V30 20 C -3.192176 -0.580966 -1.803587 0
M  V30 21 C -3.837675 -1.927250 -1.659107 0
M  V30 22 C -2.989130 -3.021973 -1.744555 0
M  V30 23 C -3.434804 -4.336096 -1.631318 0
M  V30 24 C -4.798932 -4.521986 -1.423553 0
M  V30 25 C -5.646925 -3.438806 -1.337763 0
M  V30 26 C -5.184153 -2.130116 -1.453315 0
M  V30 27 C 1.968981 1.469997 0.735464 0
M  V30 28 C 2.885552 -0.972403 1.857768 0
M  V30 29 C 3.348282 -1.974602 2.675304 0
M  V30 30 H 0.955136 -3.150788 4.412643 0
M  V30 31 H 0.703523 -2.649962 2.722516 0
M  V30 32 H 1.093358 -4.383744 3.041499 0
M  V30 33 H 5.772109 -3.445139 4.152396 0
M  V30 34 H 6.621643 -1.204866 2.626323 0
M  V30 35 H 5.780479 0.571851 1.173795 0
M  V30 36 H 4.959287 1.149328 -0.771268 0
M  V30 37 H 1.942921 3.788998 -1.792310 0
M  V30 38 H -1.673332 3.754862 0.580899 0
M  V30 39 H -0.635625 3.218140 1.896456 0
M  V30 40 H -0.999387 0.829054 1.234755 0
M  V30 41 H -2.467062 1.788876 1.462502 0
M  V30 42 H -1.279484 1.225894 -1.274179 0
M  V30 43 H -2.841460 2.029020 -0.911937 0
M  V30 44 H -1.946717 -0.760553 -0.111644 0
M  V30 45 H -3.816205 -0.821160 1.199050 0
M  V30 46 H -4.738559 0.232796 0.142531 0
M  V30 47 H -2.300357 -0.654561 -2.457885 0
M  V30 48 H -3.892212 0.118961 -2.311574 0
M  V30 49 H -1.927560 -2.879142 -1.906097 0
M  V30 50 H -2.733209 -5.170173 -1.704140 0
M  V30 51 H -5.181390 -5.535616 -1.330286 0
M  V30 52 H -6.698991 -3.602666 -1.176356 0
M  V30 53 H -5.822094 -1.258645 -1.390978 0
M  V30 54 H 1.295412 1.160346 1.504905 0
M  V30 55 H 1.822791 -0.905773 1.638938 0
M  V30 END ATOM
M  V30 BEGIN BOND
M  V30 1 1 1 2
M  V30 2 2 2 3
M  V30 3 1 3 4
M  V30 4 1 4 5
M  V30 5 2 5 6
M  V30 6 1 6 7
M  V30 7 2 7 8
M  V30 8 1 8 9
M  V30 9 2 9 10
M  V30 10 1 10 11
M  V30 11 2 11 12
M  V30 12 1 12 13
M  V30 13 1 13 14
M  V30 14 1 14 15
M  V30 15 1 15 16
M  V30 16 1 16 17
M  V30 17 1 17 18
M  V30 18 1 18 19
M  V30 19 1 18 20
M  V30 20 1 20 21
M  V30 21 2 21 22
M  V30 22 1 22 23
M  V30 23 2 23 24
M  V30 24 1 24 25
M  V30 25 2 25 26
M  V30 26 2 13 27
M  V30 27 1 8 28
M  V30 28 2 28 29
M  V30 29 1 29 2
M  V30 30 1 29 5
M  V30 31 1 27 9
M  V30 32 1 26 21
M  V30 33 1 1 30
M  V30 34 1 1 31
M  V30 35 1 1 32
M  V30 36 1 4 33
M  V30 37 1 6 34
M  V30 38 1 7 35
M  V30 39 1 10 36
M  V30 40 1 12 37
M  V30 41 1 15 38
M  V30 42 1 15 39
M  V30 43 1 16 40
M  V30 44 1 16 41
M  V30 45 1 17 42
M  V30 46 1 17 43
M  V30 47 1 18 44 CFG=1
M  V30 48 1 19 45
M  V30 49 1 19 46
M  V30 50 1 20 47
M  V30 51 1 20 48
M  V30 52 1 22 49
M  V30 53 1 23 50
M  V30 54 1 24 51
M  V30 55 1 25 52
M  V30 56 1 26 53
M  V30 57 1 27 54
M  V30 58 1 28 55
M  V30 END BOND
M  V30 END CTAB
M  END
>  <Dataset>  (261) 
ChEMBL_Kinases

>  <Ligand_Instance>  (261) 
nan

>  <PDB_ID>  (261) 
nan

>  <Standardized_SMILES>  (261) 
Cc1n[nH]c2ccc(-c3cncc(OCCC[C@@H](N)Cc4ccccc4)c3)cc12

>  <Name>  (261) 
nan

>  <Pocket>  (261) 
nan

>  <ATP_Site>  (261) 
nan

>  <Peripheral>  (261) 
nan

>  <Num_H_Atoms_ProtBoundConf>  (261) 
nan

>  <Num_Resolved_Atoms>  (261) 
nan

>  <Num_Not_Resolved_Atoms>  (261) 
nan

$$$$
CHEMBL212099
     RDKit          3D

  0  0  0  0  0  0  0  0  0  0999 V3000
M  V30 BEGIN CTAB
M  V30 COUNTS 62 65 0 0 0
M  V30 BEGIN ATOM
M  V30 1 C 2.455013 -2.280542 7.396196 0
M  V30 2 C 3.443460 -1.308623 6.811074 0
M  V30 3 O 2.738038 -0.490154 5.876598 0
M  V30 4 C 2.122001 -1.113149 4.801455 0
M  V30 5 O 2.142664 -2.373095 4.589429 0
M  V30 6 N 1.452104 -0.170890 3.946011 0
M  V30 7 C 1.290563 1.278391 3.976239 0
M  V30 8 C 2.036095 1.795838 2.759368 0
M  V30 9 C 1.357202 1.289582 1.508210 0
M  V30 10 N 0.833414 2.410747 0.764024 0
M  V30 11 C 0.131427 2.302595 -0.470121 0
M  V30 12 N -0.352520 3.372316 -1.152513 0
M  V30 13 C -1.010742 3.226689 -2.316355 0
M  V30 14 C -1.225473 1.986025 -2.871753 0
M  V30 15 C -0.737588 0.893195 -2.185935 0
M  V30 16 N -0.849672 -0.470654 -2.581412 0
M  V30 17 C -1.876344 -1.438517 -2.289139 0
M  V30 18 O -1.933095 -2.651167 -2.666690 0
M  V30 19 N -3.001210 -1.103384 -1.494902 0
M  V30 20 C -4.017975 -2.080171 -1.211650 0
M  V30 21 C -3.771420 -2.808875 -0.054886 0
M  V30 22 C -4.631933 -3.792587 0.384129 0
M  V30 23 C -5.775336 -4.046258 -0.369497 0
M  V30 24 C -6.019793 -3.327946 -1.511094 0
M  V30 25 C -5.158234 -2.344332 -1.949000 0
M  V30 26 Cl -5.357276 -1.359228 -3.386485 0
M  V30 27 C 0.191443 -1.010176 -3.394464 0
M  V30 28 C 1.240618 -1.581918 -2.665929 0
M  V30 29 C 2.334205 -2.152586 -3.298435 0
M  V30 30 C 2.350005 -2.135899 -4.680369 0
M  V30 31 F 3.418683 -2.693669 -5.291426 0
M  V30 32 C 1.321394 -1.574824 -5.424254 0
M  V30 33 C 0.244781 -1.013517 -4.774008 0
M  V30 34 N -0.098553 1.109144 -1.045034 0
M  V30 35 C 0.284025 0.272230 1.820137 0
M  V30 36 C 0.780493 -0.743355 2.794803 0
M  V30 37 H 2.696523 -2.552152 8.444471 0
M  V30 38 H 2.443400 -3.200864 6.754200 0
M  V30 39 H 1.453531 -1.815064 7.368861 0
M  V30 40 H 4.259458 -1.867487 6.287623 0
M  V30 41 H 3.854912 -0.697527 7.639656 0
M  V30 42 H 0.221319 1.538248 3.840323 0
M  V30 43 H 1.711546 1.714641 4.902752 0
M  V30 44 H 3.091931 1.469272 2.844103 0
M  V30 45 H 2.015483 2.908521 2.786347 0
M  V30 46 H 2.134977 0.749991 0.923660 0
M  V30 47 H 0.958240 3.402265 1.126424 0
M  V30 48 H -1.391288 4.083784 -2.850560 0
M  V30 49 H -1.742755 1.775728 -3.800479 0
M  V30 50 H -3.118713 -0.134498 -1.094739 0
M  V30 51 H -2.899857 -2.681675 0.603513 0
M  V30 52 H -4.462430 -4.379026 1.287869 0
M  V30 53 H -6.459604 -4.799298 -0.057432 0
M  V30 54 H -6.880899 -3.482618 -2.124792 0
M  V30 55 H 1.243815 -1.603597 -1.566825 0
M  V30 56 H 3.149676 -2.596913 -2.736793 0
M  V30 57 H 1.348736 -1.569662 -6.509677 0
M  V30 58 H -0.596704 -0.556563 -5.269346 0
M  V30 59 H -0.652400 0.705708 2.195642 0
M  V30 60 H 0.039946 -0.280314 0.881868 0
M  V30 61 H -0.079338 -1.365320 3.137949 0
M  V30 62 H 1.508850 -1.459054 2.326767 0
M  V30 END ATOM
M  V30 BEGIN BOND
M  V30 1 1 1 2
M  V30 2 1 2 3
M  V30 3 1 3 4
M  V30 4 2 4 5
M  V30 5 1 4 6
M  V30 6 1 6 7
M  V30 7 1 7 8
M  V30 8 1 8 9
M  V30 9 1 9 10
M  V30 10 1 10 11
M  V30 11 2 11 12
M  V30 12 1 12 13
M  V30 13 2 13 14
M  V30 14 1 14 15
M  V30 15 1 15 16
M  V30 16 1 16 17
M  V30 17 2 17 18
M  V30 18 1 17 19
M  V30 19 1 19 20
M  V30 20 2 20 21
M  V30 21 1 21 22
M  V30 22 2 22 23
M  V30 23 1 23 24
M  V30 24 2 24 25
M  V30 25 1 25 26
M  V30 26 1 16 27
M  V30 27 2 27 28
M  V30 28 1 28 29
M  V30 29 2 29 30
M  V30 30 1 30 31
M  V30 31 1 30 32
M  V30 32 2 32 33
M  V30 33 2 15 34
M  V30 34 1 9 35
M  V30 35 1 35 36
M  V30 36 1 36 6
M  V30 37 1 34 11
M  V30 38 1 25 20
M  V30 39 1 33 27
M  V30 40 1 1 37
M  V30 41 1 1 38
M  V30 42 1 1 39
M  V30 43 1 2 40
M  V30 44 1 2 41
M  V30 45 1 7 42
M  V30 46 1 7 43
M  V30 47 1 8 44
M  V30 48 1 8 45
M  V30 49 1 9 46
M  V30 50 1 10 47
M  V30 51 1 13 48
M  V30 52 1 14 49
M  V30 53 1 19 50
M  V30 54 1 21 51
M  V30 55 1 22 52
M  V30 56 1 23 53
M  V30 57 1 24 54
M  V30 58 1 28 55
M  V30 59 1 29 56
M  V30 60 1 32 57
M  V30 61 1 33 58
M  V30 62 1 35 59
M  V30 63 1 35 60
M  V30 64 1 36 61
M  V30 65 1 36 62
M  V30 END BOND
M  V30 END CTAB
M  END
>  <Dataset>  (262) 
ChEMBL_Kinases

>  <Ligand_Instance>  (262) 
nan

>  <PDB_ID>  (262) 
nan

>  <Standardized_SMILES>  (262) 
CCOC(=O)N1CCC(Nc2nccc(N(C(=O)Nc3ccccc3Cl)c3ccc(F)cc3)n2)CC1

>  <Name>  (262) 
nan

>  <Pocket>  (262) 
nan

>  <ATP_Site>  (262) 
nan

>  <Peripheral>  (262) 
nan

>  <Num_H_Atoms_ProtBoundConf>  (262) 
nan

>  <Num_Resolved_Atoms>  (262) 
nan

>  <Num_Not_Resolved_Atoms>  (262) 
nan

$$$$
CHEMBL212214
     RDKit          3D

  0  0  0  0  0  0  0  0  0  0999 V3000
M  V30 BEGIN CTAB
M  V30 COUNTS 22 23 0 0 0
M  V30 BEGIN ATOM
M  V30 1 N -0.990274 -1.473424 3.178586 0
M  V30 2 C 0.092698 -1.364287 2.720495 0
M  V30 3 C 1.427825 -1.252169 2.152137 0
M  V30 4 C 2.461552 -1.154931 3.058076 0
M  V30 5 O 2.536989 -1.145716 4.465497 0
M  V30 6 N 3.764921 -1.034343 2.672140 0
M  V30 7 S 3.562339 -1.056556 0.806816 0
M  V30 8 C 1.849170 -1.215916 0.869016 0
M  V30 9 N 0.752568 -1.329686 -0.145264 0
M  V30 10 C 0.000758 -0.103532 -0.245163 0
M  V30 11 C -1.166642 -0.033358 -0.975484 0
M  V30 12 C -1.891905 1.139789 -1.067031 0
M  V30 13 C -1.485195 2.275794 -0.439999 0
M  V30 14 C -0.323273 2.259085 0.303447 0
M  V30 15 Br 0.341786 3.814649 1.225705 0
M  V30 16 C 0.354117 1.087529 0.364143 0
M  V30 17 H 2.201900 -0.335441 4.993074 0
M  V30 18 H 0.457585 -2.103662 -0.759101 0
M  V30 19 H -1.496390 -0.943088 -1.474136 0
M  V30 20 H -2.813331 1.170570 -1.647958 0
M  V30 21 H -2.035071 3.207063 -0.493351 0
M  V30 22 H 1.284400 1.084049 0.954612 0
M  V30 END ATOM
M  V30 BEGIN BOND
M  V30 1 3 1 2
M  V30 2 1 2 3
M  V30 3 1 3 4
M  V30 4 1 4 5
M  V30 5 2 4 6
M  V30 6 1 6 7
M  V30 7 1 7 8
M  V30 8 1 8 9
M  V30 9 1 9 10
M  V30 10 2 10 11
M  V30 11 1 11 12
M  V30 12 2 12 13
M  V30 13 1 13 14
M  V30 14 1 14 15
M  V30 15 2 14 16
M  V30 16 2 8 3
M  V30 17 1 16 10
M  V30 18 1 5 17
M  V30 19 1 9 18
M  V30 20 1 11 19
M  V30 21 1 12 20
M  V30 22 1 13 21
M  V30 23 1 16 22
M  V30 END BOND
M  V30 END CTAB
M  END
>  <Dataset>  (263) 
ChEMBL_Kinases

>  <Ligand_Instance>  (263) 
nan

>  <PDB_ID>  (263) 
nan

>  <Standardized_SMILES>  (263) 
N#Cc1c(O)nsc1Nc1cccc(Br)c1

>  <Name>  (263) 
nan

>  <Pocket>  (263) 
nan

>  <ATP_Site>  (263) 
nan

>  <Peripheral>  (263) 
nan

>  <Num_H_Atoms_ProtBoundConf>  (263) 
nan

>  <Num_Resolved_Atoms>  (263) 
nan

>  <Num_Not_Resolved_Atoms>  (263) 
nan

$$$$
CHEMBL212128
     RDKit          3D

  0  0  0  0  0  0  0  0  0  0999 V3000
M  V30 BEGIN CTAB
M  V30 COUNTS 51 54 0 0 0
M  V30 BEGIN ATOM
M  V30 1 C 0.345831 7.074970 -3.993613 0
M  V30 2 N 1.141005 5.913478 -3.613385 0
M  V30 3 C 1.008086 5.031323 -2.508610 0
M  V30 4 N 1.675864 5.355281 -1.367237 0
M  V30 5 C 1.580771 4.545224 -0.285320 0
M  V30 6 C 0.786913 3.403244 -0.409257 0
M  V30 7 C 0.742431 2.633037 0.734219 0
M  V30 8 C -0.003339 1.482489 0.744549 0
M  V30 9 C -0.223147 0.500730 1.798882 0
M  V30 10 C -0.146803 -0.851722 1.544422 0
M  V30 11 C -0.338547 -1.836676 2.479158 0
M  V30 12 N -0.271959 -3.233673 2.272069 0
M  V30 13 C -0.000228 -3.956710 1.090579 0
M  V30 14 O 0.224124 -3.320659 0.031687 0
M  V30 15 C 0.045120 -5.404540 0.983219 0
M  V30 16 C 0.324179 -5.968467 -0.242528 0
M  V30 17 C 0.385989 -7.353709 -0.428561 0
M  V30 18 C 0.166266 -8.213014 0.624919 0
M  V30 19 C -0.114598 -7.670461 1.860293 0
M  V30 20 C -0.362589 -8.539981 3.042595 0
M  V30 21 F 0.519382 -8.256083 4.073718 0
M  V30 22 F -1.653652 -8.440770 3.519040 0
M  V30 23 F -0.144892 -9.860442 2.706681 0
M  V30 24 C -0.167505 -6.301477 2.007108 0
M  V30 25 C -0.625165 -1.387151 3.746728 0
M  V30 26 C -0.710801 -0.046204 4.043914 0
M  V30 27 C -0.512398 0.917014 3.080383 0
M  V30 28 C -0.619394 2.349160 3.461545 0
M  V30 29 C -0.700741 1.123442 -0.413767 0
M  V30 30 C -0.642746 1.915654 -1.559389 0
M  V30 31 C 0.111010 3.068964 -1.554125 0
M  V30 32 N 0.248862 3.920224 -2.596289 0
M  V30 33 H 0.014503 6.958272 -5.030420 0
M  V30 34 H -0.501783 7.221261 -3.274171 0
M  V30 35 H 0.989882 7.985890 -3.827477 0
M  V30 36 H 1.916896 5.741703 -4.286132 0
M  V30 37 H 2.110507 4.798389 0.626348 0
M  V30 38 H 1.233615 2.809792 1.671438 0
M  V30 39 H 0.078191 -1.115524 0.543317 0
M  V30 40 H -0.438489 -3.881932 3.069859 0
M  V30 41 H 0.513302 -5.417263 -1.136534 0
M  V30 42 H 0.604280 -7.806150 -1.386633 0
M  V30 43 H 0.216895 -9.280598 0.467976 0
M  V30 44 H -0.389748 -5.903547 2.986737 0
M  V30 45 H -0.794066 -2.109947 4.560422 0
M  V30 46 H -0.939627 0.229264 5.061549 0
M  V30 47 H -1.344282 2.482767 4.313360 0
M  V30 48 H -0.958251 2.992657 2.624002 0
M  V30 49 H 0.357372 2.645643 3.896871 0
M  V30 50 H -1.324484 0.251738 -0.552804 0
M  V30 51 H -1.164341 1.678383 -2.476671 0
M  V30 END ATOM
M  V30 BEGIN BOND
M  V30 1 1 1 2
M  V30 2 1 2 3
M  V30 3 2 3 4
M  V30 4 1 4 5
M  V30 5 2 5 6
M  V30 6 1 6 7
M  V30 7 2 7 8
M  V30 8 1 8 9
M  V30 9 2 9 10
M  V30 10 1 10 11
M  V30 11 1 11 12
M  V30 12 1 12 13
M  V30 13 2 13 14
M  V30 14 1 13 15
M  V30 15 2 15 16
M  V30 16 1 16 17
M  V30 17 2 17 18
M  V30 18 1 18 19
M  V30 19 1 19 20
M  V30 20 1 20 21
M  V30 21 1 20 22
M  V30 22 1 20 23
M  V30 23 2 19 24
M  V30 24 2 11 25
M  V30 25 1 25 26
M  V30 26 2 26 27
M  V30 27 1 27 28
M  V30 28 1 8 29
M  V30 29 2 29 30
M  V30 30 1 30 31
M  V30 31 2 31 32
M  V30 32 1 32 3
M  V30 33 1 31 6
M  V30 34 1 27 9
M  V30 35 1 24 15
M  V30 36 1 1 33
M  V30 37 1 1 34
M  V30 38 1 1 35
M  V30 39 1 2 36
M  V30 40 1 5 37
M  V30 41 1 7 38
M  V30 42 1 10 39
M  V30 43 1 12 40
M  V30 44 1 16 41
M  V30 45 1 17 42
M  V30 46 1 18 43
M  V30 47 1 24 44
M  V30 48 1 25 45
M  V30 49 1 26 46
M  V30 50 1 28 47
M  V30 51 1 28 48
M  V30 52 1 28 49
M  V30 53 1 29 50
M  V30 54 1 30 51
M  V30 END BOND
M  V30 END CTAB
M  END
>  <Dataset>  (264) 
ChEMBL_Kinases

>  <Ligand_Instance>  (264) 
nan

>  <PDB_ID>  (264) 
nan

>  <Standardized_SMILES>  (264) 
CNc1ncc2cc(-c3cc(NC(=O)c4cccc(C(F)(F)F)c4)ccc3C)ccc2n1

>  <Name>  (264) 
nan

>  <Pocket>  (264) 
nan

>  <ATP_Site>  (264) 
nan

>  <Peripheral>  (264) 
nan

>  <Num_H_Atoms_ProtBoundConf>  (264) 
nan

>  <Num_Resolved_Atoms>  (264) 
nan

>  <Num_Not_Resolved_Atoms>  (264) 
nan

$$$$
CHEMBL212143
     RDKit          3D

  0  0  0  0  0  0  0  0  0  0999 V3000
M  V30 BEGIN CTAB
M  V30 COUNTS 93 97 0 0 0
M  V30 BEGIN ATOM
M  V30 1 C -4.746500 -6.393872 4.015316 0
M  V30 2 O -5.518699 -5.296218 3.579205 0
M  V30 3 C -4.940061 -4.067624 3.289761 0
M  V30 4 C -3.577103 -3.923279 3.435668 0
M  V30 5 C -2.992452 -2.706786 3.149058 0
M  V30 6 C -3.702822 -1.605869 2.716936 0
M  V30 7 N -3.000548 -0.410716 2.431320 0
M  V30 8 C -3.599834 0.777376 1.984907 0
M  V30 9 O -4.519051 1.536821 1.620425 0
M  V30 10 O -2.934753 1.962758 1.733702 0
M  V30 11 C -3.525025 3.133947 1.297005 0
M  V30 12 C -3.523734 3.608113 -0.007562 0
M  V30 13 C -2.808098 2.774272 -1.010987 0
M  V30 14 C -4.134566 4.783190 -0.371513 0
M  V30 15 C -4.791994 5.569189 0.546854 0
M  V30 16 C -4.817446 5.131587 1.868050 0
M  V30 17 C -4.191141 3.937343 2.210087 0
M  V30 18 C -4.298555 3.577851 3.664602 0
M  V30 19 C -1.569274 -0.364546 2.548423 0
M  V30 20 C -0.842243 0.180501 3.564833 0
M  V30 21 C 0.534264 0.124692 3.557965 0
M  V30 22 N 1.165529 -0.479817 2.528515 0
M  V30 23 C 0.425007 -1.023204 1.516601 0
M  V30 24 N 0.950796 -1.691967 0.379328 0
M  V30 25 C 1.184459 -1.555303 -0.991199 0
M  V30 26 C 0.725835 -0.457498 -1.682305 0
M  V30 27 C 0.970917 -0.376783 -3.059106 0
M  V30 28 O 0.545680 0.690964 -3.839854 0
M  V30 29 C -0.170582 1.741972 -3.225075 0
M  V30 30 C 1.673240 -1.428517 -3.642865 0
M  V30 31 O 1.896196 -1.322256 -4.991452 0
M  V30 32 C 2.986766 -0.674562 -5.589606 0
M  V30 33 C 4.332890 -1.185993 -5.248278 0
M  V30 34 N 4.718386 -1.125715 -3.865665 0
M  V30 35 C 6.032216 -1.716399 -3.729393 0
M  V30 36 C 6.851197 -1.235093 -2.599163 0
M  V30 37 N 6.225377 -0.473654 -1.585075 0
M  V30 38 C 6.423440 -0.904714 -0.236656 0
M  V30 39 C 4.951036 0.083283 -1.844011 0
M  V30 40 C 4.676992 0.215824 -3.324138 0
M  V30 41 C 2.130246 -2.527949 -2.933545 0
M  V30 42 O 2.831325 -3.568828 -3.542885 0
M  V30 43 C 3.255857 -4.639774 -2.733480 0
M  V30 44 C 1.878530 -2.586896 -1.584580 0
M  V30 45 N -0.922509 -0.960682 1.535670 0
M  V30 46 C -5.066371 -1.740572 2.569057 0
M  V30 47 O -5.825791 -0.665141 2.138896 0
M  V30 48 C -7.220741 -0.855864 2.001251 0
M  V30 49 C -5.647603 -2.968987 2.859677 0
M  V30 50 H -3.829982 -6.510752 3.376313 0
M  V30 51 H -5.388694 -7.293828 3.968553 0
M  V30 52 H -4.449457 -6.193852 5.065353 0
M  V30 53 H -2.913358 -4.710774 3.766695 0
M  V30 54 H -1.938495 -2.578682 3.257516 0
M  V30 55 H -2.106789 3.435191 -1.598789 0
M  V30 56 H -3.516425 2.371674 -1.751366 0
M  V30 57 H -2.256892 1.937911 -0.566560 0
M  V30 58 H -4.082101 5.086565 -1.427101 0
M  V30 59 H -5.257412 6.483747 0.208801 0
M  V30 60 H -5.329818 5.736466 2.610625 0
M  V30 61 H -3.481401 2.857954 3.917171 0
M  V30 62 H -4.277561 4.458472 4.322784 0
M  V30 63 H -5.295748 3.067053 3.765211 0
M  V30 64 H -1.404092 0.645702 4.348414 0
M  V30 65 H 1.105945 0.559276 4.366598 0
M  V30 66 H 1.208337 -2.573566 0.914825 0
M  V30 67 H 0.182990 0.345792 -1.197756 0
M  V30 68 H -1.242735 1.454819 -3.057356 0
M  V30 69 H 0.271522 2.076353 -2.280014 0
M  V30 70 H -0.241693 2.635147 -3.899163 0
M  V30 71 H 2.854691 -0.866670 -6.701580 0
M  V30 72 H 2.902006 0.439963 -5.526570 0
M  V30 73 H 4.345847 -2.286705 -5.513213 0
M  V30 74 H 5.096134 -0.709694 -5.870400 0
M  V30 75 H 5.947343 -2.822586 -3.765786 0
M  V30 76 H 6.599095 -1.455974 -4.673861 0
M  V30 77 H 7.791724 -0.703056 -2.934443 0
M  V30 78 H 7.278624 -2.151025 -2.086787 0
M  V30 79 H 5.482488 -0.964040 0.360295 0
M  V30 80 H 7.136532 -0.205596 0.290398 0
M  V30 81 H 6.923557 -1.891366 -0.199239 0
M  V30 82 H 4.961596 1.141647 -1.444584 0
M  V30 83 H 4.112785 -0.418178 -1.313305 0
M  V30 84 H 3.660477 0.640297 -3.424924 0
M  V30 85 H 5.453037 0.871008 -3.764179 0
M  V30 86 H 3.935577 -4.309532 -1.906974 0
M  V30 87 H 3.796293 -5.384064 -3.361767 0
M  V30 88 H 2.420220 -5.165838 -2.247014 0
M  V30 89 H 2.229928 -3.441165 -1.016623 0
M  V30 90 H -7.747569 0.044193 1.629398 0
M  V30 91 H -7.362333 -1.725312 1.296803 0
M  V30 92 H -7.604533 -1.198324 2.984260 0
M  V30 93 H -6.729920 -3.122400 2.754439 0
M  V30 END ATOM
M  V30 BEGIN BOND
M  V30 1 1 1 2
M  V30 2 1 2 3
M  V30 3 2 3 4
M  V30 4 1 4 5
M  V30 5 2 5 6
M  V30 6 1 6 7
M  V30 7 1 7 8
M  V30 8 2 8 9
M  V30 9 1 8 10
M  V30 10 1 10 11
M  V30 11 2 11 12
M  V30 12 1 12 13
M  V30 13 1 12 14
M  V30 14 2 14 15
M  V30 15 1 15 16
M  V30 16 2 16 17
M  V30 17 1 17 18
M  V30 18 1 7 19
M  V30 19 2 19 20
M  V30 20 1 20 21
M  V30 21 2 21 22
M  V30 22 1 22 23
M  V30 23 1 23 24
M  V30 24 1 24 25
M  V30 25 2 25 26
M  V30 26 1 26 27
M  V30 27 1 27 28
M  V30 28 1 28 29
M  V30 29 2 27 30
M  V30 30 1 30 31
M  V30 31 1 31 32
M  V30 32 1 32 33
M  V30 33 1 33 34
M  V30 34 1 34 35
M  V30 35 1 35 36
M  V30 36 1 36 37
M  V30 37 1 37 38
M  V30 38 1 37 39
M  V30 39 1 39 40
M  V30 40 1 30 41
M  V30 41 1 41 42
M  V30 42 1 42 43
M  V30 43 2 41 44
M  V30 44 2 23 45
M  V30 45 1 6 46
M  V30 46 1 46 47
M  V30 47 1 47 48
M  V30 48 2 46 49
M  V30 49 1 49 3
M  V30 50 1 17 11
M  V30 51 1 45 19
M  V30 52 1 44 25
M  V30 53 1 40 34
M  V30 54 1 1 50
M  V30 55 1 1 51
M  V30 56 1 1 52
M  V30 57 1 4 53
M  V30 58 1 5 54
M  V30 59 1 13 55
M  V30 60 1 13 56
M  V30 61 1 13 57
M  V30 62 1 14 58
M  V30 63 1 15 59
M  V30 64 1 16 60
M  V30 65 1 18 61
M  V30 66 1 18 62
M  V30 67 1 18 63
M  V30 68 1 20 64
M  V30 69 1 21 65
M  V30 70 1 24 66
M  V30 71 1 26 67
M  V30 72 1 29 68
M  V30 73 1 29 69
M  V30 74 1 29 70
M  V30 75 1 32 71
M  V30 76 1 32 72
M  V30 77 1 33 73
M  V30 78 1 33 74
M  V30 79 1 35 75
M  V30 80 1 35 76
M  V30 81 1 36 77
M  V30 82 1 36 78
M  V30 83 1 38 79
M  V30 84 1 38 80
M  V30 85 1 38 81
M  V30 86 1 39 82
M  V30 87 1 39 83
M  V30 88 1 40 84
M  V30 89 1 40 85
M  V30 90 1 43 86
M  V30 91 1 43 87
M  V30 92 1 43 88
M  V30 93 1 44 89
M  V30 94 1 48 90
M  V30 95 1 48 91
M  V30 96 1 48 92
M  V30 97 1 49 93
M  V30 END BOND
M  V30 END CTAB
M  END
>  <Dataset>  (265) 
ChEMBL_Kinases

>  <Ligand_Instance>  (265) 
nan

>  <PDB_ID>  (265) 
nan

>  <Standardized_SMILES>  (265) 
COc1ccc(N(C(=O)Oc2c(C)cccc2C)c2ccnc(Nc3cc(OC)c(OCCN4CCN(C)CC4)c(OC)c3)n2)c(OC)c1

>  <Name>  (265) 
nan

>  <Pocket>  (265) 
nan

>  <ATP_Site>  (265) 
nan

>  <Peripheral>  (265) 
nan

>  <Num_H_Atoms_ProtBoundConf>  (265) 
nan

>  <Num_Resolved_Atoms>  (265) 
nan

>  <Num_Not_Resolved_Atoms>  (265) 
nan

$$$$
CHEMBL212148
     RDKit          3D

  0  0  0  0  0  0  0  0  0  0999 V3000
M  V30 BEGIN CTAB
M  V30 COUNTS 54 56 0 0 0
M  V30 BEGIN ATOM
M  V30 1 C 0.202986 -3.074527 3.429884 0
M  V30 2 O 1.554330 -2.702287 3.431953 0
M  V30 3 C 1.652277 -1.296544 3.547991 0
M  V30 4 C 3.111248 -0.865733 3.535838 0 CFG=2
M  V30 5 C 3.141163 0.628619 3.650594 0
M  V30 6 N 3.672962 -1.285996 2.279479 0
M  V30 7 C 3.102121 -0.695838 1.099405 0
M  V30 8 N 3.962618 0.249453 0.595384 0
M  V30 9 C 3.566377 0.915628 -0.520483 0
M  V30 10 C 2.366723 0.686213 -1.148249 0
M  V30 11 C 1.539269 -0.262826 -0.612636 0
M  V30 12 N 0.224970 -0.737227 -0.983347 0
M  V30 13 C -1.095910 -0.325461 -0.566431 0
M  V30 14 O -2.124790 -0.933667 -1.047649 0
M  V30 15 N -1.495752 0.686151 0.338018 0
M  V30 16 C -2.924619 0.752309 0.475393 0
M  V30 17 C -3.268945 -0.183493 1.438281 0
M  V30 18 C -4.607524 -0.371090 1.821120 0
M  V30 19 C -5.555746 0.433963 1.177762 0
M  V30 20 C -5.189530 1.365114 0.216429 0
M  V30 21 C -3.871229 1.530573 -0.141178 0
M  V30 22 C -3.352560 2.485663 -1.135183 0
M  V30 23 C 0.307758 -1.798071 -1.925868 0
M  V30 24 C 0.416171 -3.031549 -1.286172 0
M  V30 25 C 0.505197 -4.229523 -1.995879 0
M  V30 26 C 0.478053 -4.114850 -3.388869 0
M  V30 27 C 0.371485 -2.898183 -4.016816 0
M  V30 28 C 0.285703 -1.728730 -3.300161 0
M  V30 29 N 1.912881 -0.944886 0.503144 0
M  V30 30 H -0.259421 -2.596710 2.555087 0
M  V30 31 H 0.084142 -4.163238 3.358461 0
M  V30 32 H -0.276120 -2.728354 4.388683 0
M  V30 33 H 1.241764 -1.061292 4.533838 0
M  V30 34 H 1.074503 -0.794387 2.772048 0
M  V30 35 H 3.600814 -1.366737 4.402946 0
M  V30 36 H 3.601095 0.918643 4.622640 0
M  V30 37 H 2.114873 1.053478 3.525129 0
M  V30 38 H 3.740461 1.036322 2.805090 0
M  V30 39 H 4.442134 -1.971003 2.138751 0
M  V30 40 H 4.188628 1.676293 -0.980068 0
M  V30 41 H 1.938429 1.130449 -2.016502 0
M  V30 42 H -0.657207 1.210008 0.743201 0
M  V30 43 H -2.643110 -0.876250 2.020312 0
M  V30 44 H -4.955599 -1.084549 2.563493 0
M  V30 45 H -6.618419 0.318038 1.447963 0
M  V30 46 H -5.899097 1.997712 -0.294083 0
M  V30 47 H -3.924031 3.452983 -0.952258 0
M  V30 48 H -3.626592 2.232065 -2.185796 0
M  V30 49 H -2.295670 2.714463 -1.017676 0
M  V30 50 H 0.448732 -3.197004 -0.208084 0
M  V30 51 H 0.594931 -5.193765 -1.526044 0
M  V30 52 H 0.546548 -5.016504 -3.978546 0
M  V30 53 H 0.342520 -2.757518 -5.088992 0
M  V30 54 H 0.198965 -0.709798 -3.692649 0
M  V30 END ATOM
M  V30 BEGIN BOND
M  V30 1 1 1 2
M  V30 2 1 2 3
M  V30 3 1 3 4
M  V30 4 1 4 5
M  V30 5 1 4 6
M  V30 6 1 6 7
M  V30 7 2 7 8
M  V30 8 1 8 9
M  V30 9 2 9 10
M  V30 10 1 10 11
M  V30 11 1 11 12
M  V30 12 1 12 13
M  V30 13 2 13 14
M  V30 14 1 13 15
M  V30 15 1 15 16
M  V30 16 2 16 17
M  V30 17 1 17 18
M  V30 18 2 18 19
M  V30 19 1 19 20
M  V30 20 2 20 21
M  V30 21 1 21 22
M  V30 22 1 12 23
M  V30 23 2 23 24
M  V30 24 1 24 25
M  V30 25 2 25 26
M  V30 26 1 26 27
M  V30 27 2 27 28
M  V30 28 2 11 29
M  V30 29 1 29 7
M  V30 30 1 21 16
M  V30 31 1 28 23
M  V30 32 1 1 30
M  V30 33 1 1 31
M  V30 34 1 1 32
M  V30 35 1 3 33
M  V30 36 1 3 34
M  V30 37 1 4 35 CFG=1
M  V30 38 1 5 36
M  V30 39 1 5 37
M  V30 40 1 5 38
M  V30 41 1 6 39
M  V30 42 1 9 40
M  V30 43 1 10 41
M  V30 44 1 15 42
M  V30 45 1 17 43
M  V30 46 1 18 44
M  V30 47 1 19 45
M  V30 48 1 20 46
M  V30 49 1 22 47
M  V30 50 1 22 48
M  V30 51 1 22 49
M  V30 52 1 24 50
M  V30 53 1 25 51
M  V30 54 1 26 52
M  V30 55 1 27 53
M  V30 56 1 28 54
M  V30 END BOND
M  V30 END CTAB
M  END
>  <Dataset>  (266) 
ChEMBL_Kinases

>  <Ligand_Instance>  (266) 
nan

>  <PDB_ID>  (266) 
nan

>  <Standardized_SMILES>  (266) 
COC[C@H](C)Nc1nccc(N(C(=O)Nc2ccccc2C)c2ccccc2)n1

>  <Name>  (266) 
nan

>  <Pocket>  (266) 
nan

>  <ATP_Site>  (266) 
nan

>  <Peripheral>  (266) 
nan

>  <Num_H_Atoms_ProtBoundConf>  (266) 
nan

>  <Num_Resolved_Atoms>  (266) 
nan

>  <Num_Not_Resolved_Atoms>  (266) 
nan

$$$$
CHEMBL212150
     RDKit          3D

  0  0  0  0  0  0  0  0  0  0999 V3000
M  V30 BEGIN CTAB
M  V30 COUNTS 65 68 0 0 0
M  V30 BEGIN ATOM
M  V30 1 C 2.833324 -0.529103 4.055471 0
M  V30 2 C 4.206700 -0.983896 4.413328 0
M  V30 3 C 5.110522 -1.286392 3.269081 0
M  V30 4 S 5.406285 0.083344 2.190852 0
M  V30 5 O 5.911970 1.220340 3.067132 0
M  V30 6 O 6.483879 -0.228025 1.229112 0
M  V30 7 N 3.945474 0.626499 1.502501 0
M  V30 8 C 3.280699 -0.354347 0.694292 0
M  V30 9 C 1.839423 0.109907 0.568612 0
M  V30 10 C 1.788982 1.438693 -0.104722 0
M  V30 11 N 0.833583 2.279844 0.557475 0
M  V30 12 C -0.546124 2.077257 0.696041 0
M  V30 13 N -1.303460 2.988421 1.374472 0
M  V30 14 C -2.624607 2.826200 1.521273 0
M  V30 15 C -3.246926 1.722927 0.982609 0
M  V30 16 C -2.498509 0.776619 0.284826 0
M  V30 17 N -3.157197 -0.355417 -0.264398 0
M  V30 18 C -2.470425 -1.344542 -0.994249 0
M  V30 19 O -1.321384 -0.881642 -0.947290 0
M  V30 20 N -3.118060 -2.481376 -1.545275 0
M  V30 21 C -2.222952 -3.355448 -2.248116 0
M  V30 22 C -2.124050 -3.012036 -3.587381 0
M  V30 23 C -1.291336 -3.768323 -4.404245 0
M  V30 24 C -0.582566 -4.838263 -3.877367 0
M  V30 25 C -0.694320 -5.169305 -2.527503 0
M  V30 26 C -1.520758 -4.417984 -1.718958 0
M  V30 27 Cl -1.766413 -4.706871 -0.009379 0
M  V30 28 C -4.554219 -0.519373 -0.085727 0
M  V30 29 C -4.832617 -1.238887 1.078806 0
M  V30 30 C -6.166513 -1.494766 1.412120 0
M  V30 31 C -7.189517 -1.043642 0.603646 0
M  V30 32 F -8.491321 -1.284624 0.914434 0
M  V30 33 C -6.897508 -0.333056 -0.545302 0
M  V30 34 C -5.584450 -0.073054 -0.886791 0
M  V30 35 N -1.179209 1.008109 0.179513 0
M  V30 36 C 3.119543 2.083116 -0.306216 0
M  V30 37 C 4.054597 1.913568 0.863416 0
M  V30 38 H 2.356073 -1.297465 3.409430 0
M  V30 39 H 2.214974 -0.508356 4.990464 0
M  V30 40 H 2.828937 0.482375 3.593195 0
M  V30 41 H 4.689375 -0.238196 5.094852 0
M  V30 42 H 4.124700 -1.907526 5.022081 0
M  V30 43 H 6.079485 -1.650949 3.699901 0
M  V30 44 H 4.694942 -2.168290 2.710063 0
M  V30 45 H 3.285065 -1.315694 1.204982 0
M  V30 46 H 3.751298 -0.488479 -0.302099 0
M  V30 47 H 1.478003 0.249499 1.625811 0
M  V30 48 H 1.218620 -0.638253 0.034469 0
M  V30 49 H 1.372662 1.271164 -1.142250 0
M  V30 50 H 1.257722 3.156394 0.985226 0
M  V30 51 H -3.119529 3.619531 2.081769 0
M  V30 52 H -4.313868 1.631123 1.124449 0
M  V30 53 H -4.145084 -2.524904 -1.365622 0
M  V30 54 H -2.644546 -2.191845 -4.072881 0
M  V30 55 H -1.173538 -3.543785 -5.470684 0
M  V30 56 H 0.068809 -5.431819 -4.510723 0
M  V30 57 H -0.162966 -5.993030 -2.070957 0
M  V30 58 H -4.162406 -1.650483 1.799221 0
M  V30 59 H -6.482167 -2.048960 2.302273 0
M  V30 60 H -7.652616 0.051555 -1.226969 0
M  V30 61 H -5.236476 0.468710 -1.754558 0
M  V30 62 H 2.984120 3.183402 -0.453869 0
M  V30 63 H 3.629275 1.706654 -1.224577 0
M  V30 64 H 5.094752 2.026484 0.499925 0
M  V30 65 H 3.852779 2.688869 1.615776 0
M  V30 END ATOM
M  V30 BEGIN BOND
M  V30 1 1 1 2
M  V30 2 1 2 3
M  V30 3 1 3 4
M  V30 4 2 4 5
M  V30 5 2 4 6
M  V30 6 1 4 7
M  V30 7 1 7 8
M  V30 8 1 8 9
M  V30 9 1 9 10
M  V30 10 1 10 11
M  V30 11 1 11 12
M  V30 12 2 12 13
M  V30 13 1 13 14
M  V30 14 2 14 15
M  V30 15 1 15 16
M  V30 16 1 16 17
M  V30 17 1 17 18
M  V30 18 2 18 19
M  V30 19 1 18 20
M  V30 20 1 20 21
M  V30 21 2 21 22
M  V30 22 1 22 23
M  V30 23 2 23 24
M  V30 24 1 24 25
M  V30 25 2 25 26
M  V30 26 1 26 27
M  V30 27 1 17 28
M  V30 28 2 28 29
M  V30 29 1 29 30
M  V30 30 2 30 31
M  V30 31 1 31 32
M  V30 32 1 31 33
M  V30 33 2 33 34
M  V30 34 2 16 35
M  V30 35 1 10 36
M  V30 36 1 36 37
M  V30 37 1 37 7
M  V30 38 1 35 12
M  V30 39 1 26 21
M  V30 40 1 34 28
M  V30 41 1 1 38
M  V30 42 1 1 39
M  V30 43 1 1 40
M  V30 44 1 2 41
M  V30 45 1 2 42
M  V30 46 1 3 43
M  V30 47 1 3 44
M  V30 48 1 8 45
M  V30 49 1 8 46
M  V30 50 1 9 47
M  V30 51 1 9 48
M  V30 52 1 10 49
M  V30 53 1 11 50
M  V30 54 1 14 51
M  V30 55 1 15 52
M  V30 56 1 20 53
M  V30 57 1 22 54
M  V30 58 1 23 55
M  V30 59 1 24 56
M  V30 60 1 25 57
M  V30 61 1 29 58
M  V30 62 1 30 59
M  V30 63 1 33 60
M  V30 64 1 34 61
M  V30 65 1 36 62
M  V30 66 1 36 63
M  V30 67 1 37 64
M  V30 68 1 37 65
M  V30 END BOND
M  V30 END CTAB
M  END
>  <Dataset>  (267) 
ChEMBL_Kinases

>  <Ligand_Instance>  (267) 
nan

>  <PDB_ID>  (267) 
nan

>  <Standardized_SMILES>  (267) 
CCCS(=O)(=O)N1CCC(Nc2nccc(N(C(=O)Nc3ccccc3Cl)c3ccc(F)cc3)n2)CC1

>  <Name>  (267) 
nan

>  <Pocket>  (267) 
nan

>  <ATP_Site>  (267) 
nan

>  <Peripheral>  (267) 
nan

>  <Num_H_Atoms_ProtBoundConf>  (267) 
nan

>  <Num_Resolved_Atoms>  (267) 
nan

>  <Num_Not_Resolved_Atoms>  (267) 
nan

$$$$
CHEMBL212157
     RDKit          3D

  0  0  0  0  0  0  0  0  0  0999 V3000
M  V30 BEGIN CTAB
M  V30 COUNTS 49 52 0 0 0
M  V30 BEGIN ATOM
M  V30 1 C -0.614862 -4.279079 0.279921 0
M  V30 2 C 0.486165 -4.556352 -0.672310 0
M  V30 3 N 0.971027 -5.699908 -1.199075 0
M  V30 4 N 1.977997 -5.448353 -2.017260 0
M  V30 5 C 2.185601 -4.124434 -2.052421 0
M  V30 6 C 3.078241 -3.299788 -2.715116 0
M  V30 7 C 3.094144 -1.916047 -2.583614 0
M  V30 8 C 2.162857 -1.342992 -1.741988 0
M  V30 9 C 2.128355 0.104643 -1.564173 0
M  V30 10 C 2.458980 1.037162 -2.523834 0
M  V30 11 N 2.390040 2.370988 -2.244429 0
M  V30 12 C 1.986882 2.755264 -0.995310 0
M  V30 13 C 1.636071 1.854169 0.027226 0
M  V30 14 O 1.299829 2.603329 1.094037 0
M  V30 15 C 0.867448 2.287206 2.366348 0
M  V30 16 C -0.422461 1.559113 2.352564 0 CFG=2
M  V30 17 N -1.502943 2.304564 1.737967 0
M  V30 18 C -0.920445 1.240881 3.771439 0
M  V30 19 C -2.207062 0.517285 3.584048 0
M  V30 20 C -3.466279 1.074212 3.502664 0
M  V30 21 C -4.569920 0.267496 3.327045 0
M  V30 22 C -4.483092 -1.114713 3.224488 0
M  V30 23 C -3.200649 -1.641700 3.310596 0
M  V30 24 C -2.062033 -0.870830 3.486828 0
M  V30 25 C 1.726447 0.524741 -0.316684 0
M  V30 26 C 1.272005 -2.167922 -1.080776 0
M  V30 27 C 1.257342 -3.541201 -1.212462 0
M  V30 28 H -0.823465 -5.209449 0.832226 0
M  V30 29 H -0.354813 -3.459116 0.986603 0
M  V30 30 H -1.516609 -3.967202 -0.291057 0
M  V30 31 H 2.508759 -6.183821 -2.540059 0
M  V30 32 H 3.774548 -3.829115 -3.355164 0
M  V30 33 H 3.825808 -1.328275 -3.136344 0
M  V30 34 H 2.760124 0.615296 -3.463863 0
M  V30 35 H 2.012303 3.849765 -1.015593 0
M  V30 36 H 1.620010 1.603123 2.850185 0
M  V30 37 H 0.829258 3.163678 3.051509 0
M  V30 38 H -0.348349 0.609441 1.814682 0
M  V30 39 H -1.473543 2.309998 0.712981 0
M  V30 40 H -1.735273 3.189649 2.209192 0
M  V30 41 H -1.189944 2.203819 4.281791 0
M  V30 42 H -0.203844 0.648887 4.343865 0
M  V30 43 H -3.498429 2.147785 3.585943 0
M  V30 44 H -5.539293 0.719292 3.266060 0
M  V30 45 H -5.348405 -1.749472 3.086591 0
M  V30 46 H -3.109166 -2.733186 3.232295 0
M  V30 47 H -1.110720 -1.387761 3.540756 0
M  V30 48 H 1.449798 -0.093332 0.522386 0
M  V30 49 H 0.534460 -1.725194 -0.415102 0
M  V30 END ATOM
M  V30 BEGIN BOND
M  V30 1 1 1 2
M  V30 2 2 2 3
M  V30 3 1 3 4
M  V30 4 1 4 5
M  V30 5 2 5 6
M  V30 6 1 6 7
M  V30 7 2 7 8
M  V30 8 1 8 9
M  V30 9 2 9 10
M  V30 10 1 10 11
M  V30 11 2 11 12
M  V30 12 1 12 13
M  V30 13 1 13 14
M  V30 14 1 14 15
M  V30 15 1 15 16
M  V30 16 1 16 17
M  V30 17 1 16 18
M  V30 18 1 18 19
M  V30 19 2 19 20
M  V30 20 1 20 21
M  V30 21 2 21 22
M  V30 22 1 22 23
M  V30 23 2 23 24
M  V30 24 2 13 25
M  V30 25 1 8 26
M  V30 26 2 26 27
M  V30 27 1 27 2
M  V30 28 1 27 5
M  V30 29 1 25 9
M  V30 30 1 24 19
M  V30 31 1 1 28
M  V30 32 1 1 29
M  V30 33 1 1 30
M  V30 34 1 4 31
M  V30 35 1 6 32
M  V30 36 1 7 33
M  V30 37 1 10 34
M  V30 38 1 12 35
M  V30 39 1 15 36
M  V30 40 1 15 37
M  V30 41 1 16 38 CFG=3
M  V30 42 1 17 39
M  V30 43 1 17 40
M  V30 44 1 18 41
M  V30 45 1 18 42
M  V30 46 1 20 43
M  V30 47 1 21 44
M  V30 48 1 22 45
M  V30 49 1 23 46
M  V30 50 1 24 47
M  V30 51 1 25 48
M  V30 52 1 26 49
M  V30 END BOND
M  V30 END CTAB
M  END
>  <Dataset>  (268) 
ChEMBL_Kinases

>  <Ligand_Instance>  (268) 
nan

>  <PDB_ID>  (268) 
nan

>  <Standardized_SMILES>  (268) 
Cc1n[nH]c2ccc(-c3cncc(OC[C@H](N)Cc4ccccc4)c3)cc12

>  <Name>  (268) 
nan

>  <Pocket>  (268) 
nan

>  <ATP_Site>  (268) 
nan

>  <Peripheral>  (268) 
nan

>  <Num_H_Atoms_ProtBoundConf>  (268) 
nan

>  <Num_Resolved_Atoms>  (268) 
nan

>  <Num_Not_Resolved_Atoms>  (268) 
nan

$$$$
CHEMBL212181
     RDKit          3D

  0  0  0  0  0  0  0  0  0  0999 V3000
M  V30 BEGIN CTAB
M  V30 COUNTS 58 62 0 0 0
M  V30 BEGIN ATOM
M  V30 1 C 2.320681 -5.000711 2.109951 0
M  V30 2 C 2.431007 -3.520122 2.100925 0
M  V30 3 C 3.300572 -2.938711 3.004586 0
M  V30 4 C 3.401750 -1.541792 2.995466 0
M  V30 5 C 2.664828 -0.770062 2.120925 0
M  V30 6 C 2.827521 0.681690 2.174088 0
M  V30 7 O 3.643159 1.121702 3.025972 0
M  V30 8 N 2.106119 1.551159 1.312758 0
M  V30 9 C 2.181340 2.963728 1.273569 0
M  V30 10 C 3.143274 3.424689 0.402186 0
M  V30 11 C 3.345269 4.798473 0.245989 0
M  V30 12 C 2.545930 5.635476 0.995684 0
M  V30 13 C 1.581789 5.177446 1.869173 0
M  V30 14 C 0.706992 6.055465 2.689962 0
M  V30 15 F -0.646613 5.862874 2.409878 0
M  V30 16 F 0.949193 5.833140 4.030971 0
M  V30 17 F 1.039859 7.367445 2.409410 0
M  V30 18 C 1.377887 3.821068 2.027439 0
M  V30 19 C 0.393150 3.151244 2.914263 0
M  V30 20 C 1.816857 -1.416688 1.246476 0
M  V30 21 C 1.673175 -2.791652 1.207095 0
M  V30 22 C 0.751263 -3.389222 0.244717 0
M  V30 23 C 0.928176 -4.467582 -0.596668 0
M  V30 24 C -0.098570 -4.857805 -1.428886 0
M  V30 25 C -1.304578 -4.190676 -1.439060 0
M  V30 26 N -2.258074 -4.627843 -2.276315 0
M  V30 27 C -3.470846 -4.002539 -2.325823 0
M  V30 28 N -4.548313 -4.368238 -3.163347 0
M  V30 29 C -5.832250 -3.768216 -3.267085 0
M  V30 30 C -5.759625 -2.278718 -3.681268 0
M  V30 31 C -6.385765 -2.757898 -2.382803 0
M  V30 32 N -3.693103 -2.956859 -1.534556 0
M  V30 33 C -2.728629 -2.530292 -0.701115 0
M  V30 34 C -1.486842 -3.125059 -0.611377 0
M  V30 35 C -0.480888 -2.723306 0.220767 0
M  V30 36 H 3.116937 -5.436532 1.478350 0
M  V30 37 H 2.502714 -5.367280 3.146480 0
M  V30 38 H 1.338332 -5.378086 1.772308 0
M  V30 39 H 3.881359 -3.542657 3.693489 0
M  V30 40 H 4.105671 -1.146595 3.733652 0
M  V30 41 H 1.430564 1.180590 0.607868 0
M  V30 42 H 3.785244 2.810403 -0.198584 0
M  V30 43 H 4.077312 5.229788 -0.415565 0
M  V30 44 H 2.622386 6.717570 0.948167 0
M  V30 45 H -0.370822 2.595678 2.296491 0
M  V30 46 H 0.894679 2.339363 3.495659 0
M  V30 47 H -0.116909 3.857759 3.569046 0
M  V30 48 H 1.238636 -0.846558 0.563210 0
M  V30 49 H 1.890982 -4.908237 -0.511114 0
M  V30 50 H 0.118587 -5.707981 -2.054542 0
M  V30 51 H -4.311060 -5.207998 -3.773911 0
M  V30 52 H -6.576437 -4.351364 -3.887077 0
M  V30 53 H -6.373105 -1.957229 -4.523602 0
M  V30 54 H -4.781058 -1.768744 -3.634325 0
M  V30 55 H -5.993918 -2.433870 -1.413347 0
M  V30 56 H -7.505854 -2.608994 -2.411381 0
M  V30 57 H -2.929860 -1.672437 -0.060969 0
M  V30 58 H -0.735465 -1.856050 0.843010 0
M  V30 END ATOM
M  V30 BEGIN BOND
M  V30 1 1 1 2
M  V30 2 2 2 3
M  V30 3 1 3 4
M  V30 4 2 4 5
M  V30 5 1 5 6
M  V30 6 2 6 7
M  V30 7 1 6 8
M  V30 8 1 8 9
M  V30 9 2 9 10
M  V30 10 1 10 11
M  V30 11 2 11 12
M  V30 12 1 12 13
M  V30 13 1 13 14
M  V30 14 1 14 15
M  V30 15 1 14 16
M  V30 16 1 14 17
M  V30 17 2 13 18
M  V30 18 1 18 19
M  V30 19 1 5 20
M  V30 20 2 20 21
M  V30 21 1 21 22
M  V30 22 2 22 23
M  V30 23 1 23 24
M  V30 24 2 24 25
M  V30 25 1 25 26
M  V30 26 2 26 27
M  V30 27 1 27 28
M  V30 28 1 28 29
M  V30 29 1 29 30
M  V30 30 1 30 31
M  V30 31 1 27 32
M  V30 32 2 32 33
M  V30 33 1 33 34
M  V30 34 2 34 35
M  V30 35 1 21 2
M  V30 36 1 35 22
M  V30 37 1 18 9
M  V30 38 1 34 25
M  V30 39 1 31 29
M  V30 40 1 1 36
M  V30 41 1 1 37
M  V30 42 1 1 38
M  V30 43 1 3 39
M  V30 44 1 4 40
M  V30 45 1 8 41
M  V30 46 1 10 42
M  V30 47 1 11 43
M  V30 48 1 12 44
M  V30 49 1 19 45
M  V30 50 1 19 46
M  V30 51 1 19 47
M  V30 52 1 20 48
M  V30 53 1 23 49
M  V30 54 1 24 50
M  V30 55 1 28 51
M  V30 56 1 29 52
M  V30 57 1 30 53
M  V30 58 1 30 54
M  V30 59 1 31 55
M  V30 60 1 31 56
M  V30 61 1 33 57
M  V30 62 1 35 58
M  V30 END BOND
M  V30 END CTAB
M  END
>  <Dataset>  (269) 
ChEMBL_Kinases

>  <Ligand_Instance>  (269) 
nan

>  <PDB_ID>  (269) 
nan

>  <Standardized_SMILES>  (269) 
Cc1ccc(C(=O)Nc2cccc(C(F)(F)F)c2C)cc1-c1ccc2nc(NC3CC3)ncc2c1

>  <Name>  (269) 
nan

>  <Pocket>  (269) 
nan

>  <ATP_Site>  (269) 
nan

>  <Peripheral>  (269) 
nan

>  <Num_H_Atoms_ProtBoundConf>  (269) 
nan

>  <Num_Resolved_Atoms>  (269) 
nan

>  <Num_Not_Resolved_Atoms>  (269) 
nan

$$$$
CHEMBL212183
     RDKit          3D

  0  0  0  0  0  0  0  0  0  0999 V3000
M  V30 BEGIN CTAB
M  V30 COUNTS 54 57 0 0 0
M  V30 BEGIN ATOM
M  V30 1 C 6.046395 -5.388478 4.660958 0
M  V30 2 N 5.369010 -5.676919 3.414903 0
M  V30 3 C 4.612399 -4.705656 2.732869 0
M  V30 4 N 4.491755 -3.459675 3.222563 0
M  V30 5 C 3.760171 -2.511328 2.567843 0
M  V30 6 C 3.132454 -2.836638 1.381257 0
M  V30 7 C 2.373432 -1.918073 0.665735 0
M  V30 8 C 1.740743 -2.253197 -0.534536 0
M  V30 9 C 0.949497 -1.258699 -1.256497 0
M  V30 10 C 0.053734 -0.474076 -0.562964 0
M  V30 11 C -0.705570 0.468931 -1.223510 0
M  V30 12 C -1.624673 1.249655 -0.400665 0
M  V30 13 O -1.680751 1.043782 0.837166 0
M  V30 14 N -2.502937 2.263406 -0.869595 0
M  V30 15 C -3.240260 2.794857 0.235013 0
M  V30 16 C -2.776435 3.867937 0.967681 0
M  V30 17 C -3.560212 4.305702 2.012386 0
M  V30 18 C -4.777975 3.684206 2.315550 0
M  V30 19 Cl -5.603621 4.409519 3.683900 0
M  V30 20 C -5.225063 2.597446 1.556205 0
M  V30 21 C -6.527482 2.125264 2.075427 0
M  V30 22 F -7.443246 3.155738 1.992652 0
M  V30 23 F -6.456024 1.797647 3.423929 0
M  V30 24 F -6.973613 1.097042 1.311035 0
M  V30 25 C -4.435834 2.166962 0.514710 0
M  V30 26 C -5.011242 1.013618 -0.214064 0
M  V30 27 C -0.612742 0.674152 -2.582390 0
M  V30 28 C 0.279287 -0.104235 -3.286077 0
M  V30 29 C 1.046035 -1.056647 -2.618135 0
M  V30 30 C 1.982858 -1.857958 -3.416243 0
M  V30 31 C 1.915018 -3.550481 -0.966097 0
M  V30 32 C 2.656776 -4.497458 -0.293969 0
M  V30 33 C 3.262872 -4.118037 0.887838 0
M  V30 34 N 4.002999 -5.032872 1.574703 0
M  V30 35 H 5.638617 -4.546591 5.222954 0
M  V30 36 H 7.103632 -5.144814 4.420447 0
M  V30 37 H 6.043699 -6.268187 5.346390 0
M  V30 38 H 5.468915 -6.646476 3.043076 0
M  V30 39 H 3.643470 -1.491948 2.939676 0
M  V30 40 H 2.267823 -0.910643 1.048545 0
M  V30 41 H -0.018985 -0.637269 0.512343 0
M  V30 42 H -2.484922 2.464709 -1.906668 0
M  V30 43 H -1.836637 4.338815 0.724794 0
M  V30 44 H -3.157266 5.148544 2.558292 0
M  V30 45 H -5.136490 0.104432 0.416142 0
M  V30 46 H -5.949311 1.345423 -0.702478 0
M  V30 47 H -4.356663 0.683537 -1.049368 0
M  V30 48 H -1.209390 1.413886 -3.096583 0
M  V30 49 H 0.361186 0.046065 -4.346696 0
M  V30 50 H 2.873219 -2.178526 -2.807589 0
M  V30 51 H 2.398028 -1.178950 -4.210892 0
M  V30 52 H 1.501455 -2.690319 -3.958420 0
M  V30 53 H 1.458519 -3.871537 -1.873263 0
M  V30 54 H 2.764306 -5.519046 -0.681582 0
M  V30 END ATOM
M  V30 BEGIN BOND
M  V30 1 1 1 2
M  V30 2 1 2 3
M  V30 3 2 3 4
M  V30 4 1 4 5
M  V30 5 2 5 6
M  V30 6 1 6 7
M  V30 7 2 7 8
M  V30 8 1 8 9
M  V30 9 2 9 10
M  V30 10 1 10 11
M  V30 11 1 11 12
M  V30 12 2 12 13
M  V30 13 1 12 14
M  V30 14 1 14 15
M  V30 15 2 15 16
M  V30 16 1 16 17
M  V30 17 2 17 18
M  V30 18 1 18 19
M  V30 19 1 18 20
M  V30 20 1 20 21
M  V30 21 1 21 22
M  V30 22 1 21 23
M  V30 23 1 21 24
M  V30 24 2 20 25
M  V30 25 1 25 26
M  V30 26 2 11 27
M  V30 27 1 27 28
M  V30 28 2 28 29
M  V30 29 1 29 30
M  V30 30 1 8 31
M  V30 31 2 31 32
M  V30 32 1 32 33
M  V30 33 2 33 34
M  V30 34 1 34 3
M  V30 35 1 33 6
M  V30 36 1 29 9
M  V30 37 1 25 15
M  V30 38 1 1 35
M  V30 39 1 1 36
M  V30 40 1 1 37
M  V30 41 1 2 38
M  V30 42 1 5 39
M  V30 43 1 7 40
M  V30 44 1 10 41
M  V30 45 1 14 42
M  V30 46 1 16 43
M  V30 47 1 17 44
M  V30 48 1 26 45
M  V30 49 1 26 46
M  V30 50 1 26 47
M  V30 51 1 27 48
M  V30 52 1 28 49
M  V30 53 1 30 50
M  V30 54 1 30 51
M  V30 55 1 30 52
M  V30 56 1 31 53
M  V30 57 1 32 54
M  V30 END BOND
M  V30 END CTAB
M  END
>  <Dataset>  (270) 
ChEMBL_Kinases

>  <Ligand_Instance>  (270) 
nan

>  <PDB_ID>  (270) 
nan

>  <Standardized_SMILES>  (270) 
CNc1ncc2cc(-c3cc(C(=O)Nc4ccc(Cl)c(C(F)(F)F)c4C)ccc3C)ccc2n1

>  <Name>  (270) 
nan

>  <Pocket>  (270) 
nan

>  <ATP_Site>  (270) 
nan

>  <Peripheral>  (270) 
nan

>  <Num_H_Atoms_ProtBoundConf>  (270) 
nan

>  <Num_Resolved_Atoms>  (270) 
nan

>  <Num_Not_Resolved_Atoms>  (270) 
nan

$$$$
CHEMBL212195
     RDKit          3D

  0  0  0  0  0  0  0  0  0  0999 V3000
M  V30 BEGIN CTAB
M  V30 COUNTS 76 80 0 0 0
M  V30 BEGIN ATOM
M  V30 1 C -0.808255 -6.344287 1.735158 0
M  V30 2 C -0.297663 -5.966889 0.401036 0
M  V30 3 C -0.269049 -6.774036 -0.753212 0
M  V30 4 C 0.260423 -6.314368 -1.961091 0
M  V30 5 C 0.777547 -5.019695 -2.030208 0
M  V30 6 C 1.277387 -4.598716 -3.330619 0
M  V30 7 O 1.046971 -5.286384 -4.357495 0
M  V30 8 N 2.021970 -3.403081 -3.400970 0
M  V30 9 C 2.669337 -2.613318 -4.384086 0
M  V30 10 C 3.961117 -2.850037 -4.797903 0
M  V30 11 C 4.616840 -2.080437 -5.752156 0
M  V30 12 C 3.891672 -1.022994 -6.292009 0
M  V30 13 C 2.596603 -0.704278 -5.943393 0
M  V30 14 C 1.910807 0.441030 -6.569645 0
M  V30 15 F 2.774017 1.056010 -7.487887 0
M  V30 16 F 1.586994 1.440040 -5.645507 0
M  V30 17 F 0.803761 0.064636 -7.310376 0
M  V30 18 C 2.004712 -1.528006 -4.975181 0
M  V30 19 C 0.623680 -1.216769 -4.567880 0
M  V30 20 C 0.733293 -4.266359 -0.888360 0
M  V30 21 C 0.209634 -4.700854 0.326453 0
M  V30 22 C 0.283201 -3.592331 1.272218 0
M  V30 23 C 1.488726 -3.029214 1.644792 0
M  V30 24 C 1.619920 -1.938541 2.482205 0
M  V30 25 C 0.441905 -1.386253 2.970250 0
M  V30 26 N 0.477793 -0.302779 3.785355 0
M  V30 27 C -0.680577 0.246946 4.250164 0
M  V30 28 N -0.422131 1.371445 5.082836 0
M  V30 29 C -0.504514 1.482348 6.545236 0
M  V30 30 C 0.002470 2.594563 4.434952 0
M  V30 31 C -1.002136 3.710295 4.509314 0
M  V30 32 C -2.324407 3.406494 3.887699 0
M  V30 33 N -2.288927 3.081547 2.489937 0
M  V30 34 C -3.676256 2.837117 2.093316 0
M  V30 35 C -4.083613 3.958524 1.192617 0
M  V30 36 O -3.360584 3.810743 -0.000757 0
M  V30 37 C -2.009777 4.023363 0.231981 0
M  V30 38 C -1.667437 4.118441 1.705039 0
M  V30 39 N -1.880488 -0.290761 3.897493 0
M  V30 40 C -1.951092 -1.367429 3.090038 0
M  V30 41 C -0.770039 -1.937309 2.608557 0
M  V30 42 C -0.899476 -3.026587 1.773665 0
M  V30 43 H -1.401284 -5.580977 2.228275 0
M  V30 44 H -1.518911 -7.203974 1.559776 0
M  V30 45 H -0.019179 -6.787474 2.378423 0
M  V30 46 H -0.685511 -7.761850 -0.625120 0
M  V30 47 H 0.252084 -6.985743 -2.806292 0
M  V30 48 H 2.295604 -2.760451 -2.628123 0
M  V30 49 H 4.502267 -3.696993 -4.345597 0
M  V30 50 H 5.625712 -2.252293 -6.089934 0
M  V30 51 H 4.376088 -0.418364 -7.030057 0
M  V30 52 H 0.215447 -2.050183 -3.966082 0
M  V30 53 H 0.587059 -0.253365 -4.041397 0
M  V30 54 H 0.004515 -1.147286 -5.503419 0
M  V30 55 H 1.169994 -3.277946 -1.086709 0
M  V30 56 H 2.404222 -3.491983 1.241931 0
M  V30 57 H 2.597552 -1.534757 2.743997 0
M  V30 58 H 0.481722 1.820135 6.907036 0
M  V30 59 H -0.742898 0.528915 7.011204 0
M  V30 60 H -1.216093 2.280835 6.840920 0
M  V30 61 H 0.974933 2.928978 4.903356 0
M  V30 62 H 0.265924 2.399351 3.374358 0
M  V30 63 H -1.202701 3.973114 5.574549 0
M  V30 64 H -0.598926 4.608522 3.999903 0
M  V30 65 H -2.891021 2.602660 4.421893 0
M  V30 66 H -2.920216 4.366501 3.960866 0
M  V30 67 H -4.354498 2.755075 2.955047 0
M  V30 68 H -3.676854 1.892048 1.497922 0
M  V30 69 H -3.880315 4.961612 1.627054 0
M  V30 70 H -5.154218 3.881523 0.960251 0
M  V30 71 H -1.454505 3.213348 -0.287435 0
M  V30 72 H -1.697418 4.978853 -0.233343 0
M  V30 73 H -0.553509 3.931089 1.746058 0
M  V30 74 H -1.885247 5.141903 2.041810 0
M  V30 75 H -2.964767 -1.730348 2.861184 0
M  V30 76 H -1.886805 -3.392129 1.533575 0
M  V30 END ATOM
M  V30 BEGIN BOND
M  V30 1 1 1 2
M  V30 2 2 2 3
M  V30 3 1 3 4
M  V30 4 2 4 5
M  V30 5 1 5 6
M  V30 6 2 6 7
M  V30 7 1 6 8
M  V30 8 1 8 9
M  V30 9 2 9 10
M  V30 10 1 10 11
M  V30 11 2 11 12
M  V30 12 1 12 13
M  V30 13 1 13 14
M  V30 14 1 14 15
M  V30 15 1 14 16
M  V30 16 1 14 17
M  V30 17 2 13 18
M  V30 18 1 18 19
M  V30 19 1 5 20
M  V30 20 2 20 21
M  V30 21 1 21 22
M  V30 22 2 22 23
M  V30 23 1 23 24
M  V30 24 2 24 25
M  V30 25 1 25 26
M  V30 26 2 26 27
M  V30 27 1 27 28
M  V30 28 1 28 29
M  V30 29 1 28 30
M  V30 30 1 30 31
M  V30 31 1 31 32
M  V30 32 1 32 33
M  V30 33 1 33 34
M  V30 34 1 34 35
M  V30 35 1 35 36
M  V30 36 1 36 37
M  V30 37 1 37 38
M  V30 38 1 27 39
M  V30 39 2 39 40
M  V30 40 1 40 41
M  V30 41 2 41 42
M  V30 42 1 21 2
M  V30 43 1 42 22
M  V30 44 1 18 9
M  V30 45 1 41 25
M  V30 46 1 38 33
M  V30 47 1 1 43
M  V30 48 1 1 44
M  V30 49 1 1 45
M  V30 50 1 3 46
M  V30 51 1 4 47
M  V30 52 1 8 48
M  V30 53 1 10 49
M  V30 54 1 11 50
M  V30 55 1 12 51
M  V30 56 1 19 52
M  V30 57 1 19 53
M  V30 58 1 19 54
M  V30 59 1 20 55
M  V30 60 1 23 56
M  V30 61 1 24 57
M  V30 62 1 29 58
M  V30 63 1 29 59
M  V30 64 1 29 60
M  V30 65 1 30 61
M  V30 66 1 30 62
M  V30 67 1 31 63
M  V30 68 1 31 64
M  V30 69 1 32 65
M  V30 70 1 32 66
M  V30 71 1 34 67
M  V30 72 1 34 68
M  V30 73 1 35 69
M  V30 74 1 35 70
M  V30 75 1 37 71
M  V30 76 1 37 72
M  V30 77 1 38 73
M  V30 78 1 38 74
M  V30 79 1 40 75
M  V30 80 1 42 76
M  V30 END BOND
M  V30 END CTAB
M  END
>  <Dataset>  (271) 
ChEMBL_Kinases

>  <Ligand_Instance>  (271) 
nan

>  <PDB_ID>  (271) 
nan

>  <Standardized_SMILES>  (271) 
Cc1ccc(C(=O)Nc2cccc(C(F)(F)F)c2C)cc1-c1ccc2nc(N(C)CCCN3CCOCC3)ncc2c1

>  <Name>  (271) 
nan

>  <Pocket>  (271) 
nan

>  <ATP_Site>  (271) 
nan

>  <Peripheral>  (271) 
nan

>  <Num_H_Atoms_ProtBoundConf>  (271) 
nan

>  <Num_Resolved_Atoms>  (271) 
nan

>  <Num_Not_Resolved_Atoms>  (271) 
nan

$$$$
CHEMBL212110
     RDKit          3D

  0  0  0  0  0  0  0  0  0  0999 V3000
M  V30 BEGIN CTAB
M  V30 COUNTS 45 47 0 0 0
M  V30 BEGIN ATOM
M  V30 1 N -0.216394 -1.543362 1.521448 0
M  V30 2 C -0.088444 -0.174522 1.711365 0
M  V30 3 N 0.924834 0.114419 2.427576 0
M  V30 4 C 1.831680 -0.875524 2.975505 0
M  V30 5 C 3.185541 -0.562892 2.324273 0
M  V30 6 C 3.117709 -0.669200 0.837651 0
M  V30 7 C 4.320220 0.102363 0.293754 0
M  V30 8 C 5.401702 0.205808 1.323996 0
M  V30 9 C 5.522706 -1.118016 2.044714 0
M  V30 10 C 4.279270 -1.473486 2.826208 0
M  V30 11 C -1.002673 0.790282 1.156308 0
M  V30 12 C -0.753984 2.083716 1.422178 0
M  V30 13 O 0.210744 2.758160 2.132455 0
M  V30 14 N -1.519246 3.143877 0.976662 0
M  V30 15 S -2.834307 2.223272 0.008347 0
M  V30 16 C -2.161460 0.633509 0.351417 0
M  V30 17 N -2.662324 -0.628173 -0.070364 0
M  V30 18 C -3.783438 -0.843060 -0.899114 0
M  V30 19 C -4.327437 -2.131532 -0.944717 0
M  V30 20 C -5.410089 -2.476244 -1.711360 0
M  V30 21 C -6.014002 -1.514856 -2.490297 0
M  V30 22 Br -7.519810 -1.969623 -3.563381 0
M  V30 23 C -5.527219 -0.229037 -2.490455 0
M  V30 24 C -4.438385 0.054269 -1.700292 0
M  V30 25 H -0.708234 -2.370734 1.970253 0
M  V30 26 H -0.665665 -2.383211 1.909115 0
M  V30 27 H 1.605135 -1.907156 2.720291 0
M  V30 28 H 1.912524 -0.792476 4.077997 0
M  V30 29 H 3.467580 0.502801 2.565425 0
M  V30 30 H 2.213396 -0.273328 0.366939 0
M  V30 31 H 3.283579 -1.752610 0.573215 0
M  V30 32 H 3.999088 1.080728 -0.117575 0
M  V30 33 H 4.731987 -0.463713 -0.577704 0
M  V30 34 H 5.340206 1.076908 1.990890 0
M  V30 35 H 6.378377 0.327444 0.777780 0
M  V30 36 H 5.712928 -1.886209 1.270540 0
M  V30 37 H 6.415947 -1.038547 2.705465 0
M  V30 38 H 4.424941 -1.284300 3.908830 0
M  V30 39 H 3.985653 -2.524776 2.614034 0
M  V30 40 H 0.153227 2.721799 3.162260 0
M  V30 41 H -2.159092 -1.478718 0.257709 0
M  V30 42 H -3.899045 -2.940620 -0.353090 0
M  V30 43 H -5.802520 -3.469737 -1.724734 0
M  V30 44 H -5.998085 0.527665 -3.099934 0
M  V30 45 H -4.098286 1.055640 -1.741437 0
M  V30 END ATOM
M  V30 BEGIN BOND
M  V30 1 1 1 2
M  V30 2 2 2 3
M  V30 3 1 3 4
M  V30 4 1 4 5
M  V30 5 1 5 6
M  V30 6 1 6 7
M  V30 7 1 7 8
M  V30 8 1 8 9
M  V30 9 1 9 10
M  V30 10 1 2 11
M  V30 11 1 11 12
M  V30 12 1 12 13
M  V30 13 2 12 14
M  V30 14 1 14 15
M  V30 15 1 15 16
M  V30 16 1 16 17
M  V30 17 1 17 18
M  V30 18 2 18 19
M  V30 19 1 19 20
M  V30 20 2 20 21
M  V30 21 1 21 22
M  V30 22 1 21 23
M  V30 23 2 23 24
M  V30 24 1 10 5
M  V30 25 2 16 11
M  V30 26 1 24 18
M  V30 27 1 1 25
M  V30 28 1 1 26
M  V30 29 1 4 27
M  V30 30 1 4 28
M  V30 31 1 5 29
M  V30 32 1 6 30
M  V30 33 1 6 31
M  V30 34 1 7 32
M  V30 35 1 7 33
M  V30 36 1 8 34
M  V30 37 1 8 35
M  V30 38 1 9 36
M  V30 39 1 9 37
M  V30 40 1 10 38
M  V30 41 1 10 39
M  V30 42 1 13 40
M  V30 43 1 17 41
M  V30 44 1 19 42
M  V30 45 1 20 43
M  V30 46 1 23 44
M  V30 47 1 24 45
M  V30 END BOND
M  V30 END CTAB
M  END
>  <Dataset>  (272) 
ChEMBL_Kinases

>  <Ligand_Instance>  (272) 
nan

>  <PDB_ID>  (272) 
nan

>  <Standardized_SMILES>  (272) 
N/C(=N\CC1CCCCC1)c1c(O)nsc1Nc1ccc(Br)cc1

>  <Name>  (272) 
nan

>  <Pocket>  (272) 
nan

>  <ATP_Site>  (272) 
nan

>  <Peripheral>  (272) 
nan

>  <Num_H_Atoms_ProtBoundConf>  (272) 
nan

>  <Num_Resolved_Atoms>  (272) 
nan

>  <Num_Not_Resolved_Atoms>  (272) 
nan

$$$$
CHEMBL210209
     RDKit          3D

  0  0  0  0  0  0  0  0  0  0999 V3000
M  V30 BEGIN CTAB
M  V30 COUNTS 71 76 0 0 0
M  V30 BEGIN ATOM
M  V30 1 C 2.874578 0.507301 4.092535 0
M  V30 2 C 1.637480 0.486438 3.229349 0
M  V30 3 C 1.244410 -0.942375 3.030439 0
M  V30 4 C 1.794252 1.265354 1.951277 0
M  V30 5 C 2.910625 0.704871 1.132646 0
M  V30 6 N 2.766558 -0.266445 0.207919 0
M  V30 7 C 3.938049 -0.568471 -0.368406 0
M  V30 8 C 4.836413 0.282408 0.258121 0
M  V30 9 N 4.218245 1.059337 1.171946 0
M  V30 10 C 0.531177 1.177513 4.015657 0
M  V30 11 C 1.014882 2.562330 4.271265 0
M  V30 12 O 2.061452 2.871026 4.932674 0
M  V30 13 N 0.111543 3.493424 3.652021 0
M  V30 14 C -0.922270 2.736652 3.021523 0
M  V30 15 C -1.986940 3.249178 2.321159 0
M  V30 16 C -2.896777 2.396719 1.778816 0
M  V30 17 C -2.726115 1.017685 1.947547 0
M  V30 18 C -3.731534 0.149573 1.348757 0
M  V30 19 C -5.065563 0.445260 1.188540 0
M  V30 20 N -5.897368 -0.467323 0.604376 0
M  V30 21 C -5.364488 -1.662240 0.192565 0
M  V30 22 C -4.004731 -2.030082 0.326166 0
M  V30 23 O -3.974037 -3.255698 -0.206665 0
M  V30 24 C -3.021405 -4.195375 -0.439934 0
M  V30 25 C -1.918233 -3.934706 -1.400656 0 CFG=1
M  V30 26 N -2.480099 -3.684850 -2.739762 0
M  V30 27 C -0.924757 -2.885825 -1.063867 0
M  V30 28 C 0.114313 -2.801438 -2.163573 0
M  V30 29 C 1.360955 -3.425439 -2.137543 0
M  V30 30 N 2.009744 -3.157127 -3.301905 0
M  V30 31 C 1.235636 -2.382037 -4.085983 0
M  V30 32 C 1.395682 -1.818199 -5.342209 0
M  V30 33 C 0.409684 -1.034809 -5.915200 0
M  V30 34 C -0.752990 -0.822413 -5.201073 0
M  V30 35 C -0.887923 -1.391981 -3.958190 0
M  V30 36 C 0.070599 -2.164182 -3.383177 0
M  V30 37 C -3.254024 -1.064735 0.916926 0
M  V30 38 C -1.647584 0.577766 2.653509 0
M  V30 39 C -0.691377 1.402434 3.226470 0
M  V30 40 H 3.543964 1.348757 3.910779 0
M  V30 41 H 3.442133 -0.427905 3.936703 0
M  V30 42 H 2.532153 0.459399 5.167046 0
M  V30 43 H 0.715585 -1.025392 2.055769 0
M  V30 44 H 2.140709 -1.613761 3.020890 0
M  V30 45 H 0.601581 -1.250554 3.873879 0
M  V30 46 H 0.845551 1.186360 1.405086 0
M  V30 47 H 2.032024 2.304101 2.202664 0
M  V30 48 H 4.219587 -1.275425 -1.133306 0
M  V30 49 H 5.913355 0.331847 0.051225 0
M  V30 50 H 4.626616 1.780651 1.786966 0
M  V30 51 H 0.311809 0.634909 4.958641 0
M  V30 52 H 0.276525 4.523796 3.713000 0
M  V30 53 H -2.143000 4.325586 2.174932 0
M  V30 54 H -3.749419 2.782197 1.218506 0
M  V30 55 H -5.325873 1.420878 1.562586 0
M  V30 56 H -6.253524 -2.166447 -0.224112 0
M  V30 57 H -2.513322 -4.510018 0.543802 0
M  V30 58 H -3.512152 -5.183341 -0.733066 0
M  V30 59 H -1.356720 -4.927600 -1.483668 0
M  V30 60 H -3.515779 -3.718736 -2.723554 0
M  V30 61 H -2.072067 -4.355399 -3.448864 0
M  V30 62 H -0.451440 -2.981631 -0.093564 0
M  V30 63 H -1.446613 -1.879494 -1.127852 0
M  V30 64 H 1.737374 -4.022057 -1.317870 0
M  V30 65 H 2.970909 -3.477651 -3.603446 0
M  V30 66 H 2.309278 -1.983291 -5.906589 0
M  V30 67 H 0.504562 -0.573946 -6.908984 0
M  V30 68 H -1.524252 -0.201337 -5.664549 0
M  V30 69 H -1.825218 -1.155054 -3.477777 0
M  V30 70 H -2.244793 -1.419509 1.002005 0
M  V30 71 H -1.540330 -0.508877 2.768266 0
M  V30 END ATOM
M  V30 BEGIN BOND
M  V30 1 1 1 2
M  V30 2 1 2 3
M  V30 3 1 2 4
M  V30 4 1 4 5
M  V30 5 2 5 6
M  V30 6 1 6 7
M  V30 7 2 7 8
M  V30 8 1 8 9
M  V30 9 1 2 10
M  V30 10 1 10 11
M  V30 11 2 11 12
M  V30 12 1 11 13
M  V30 13 1 13 14
M  V30 14 2 14 15
M  V30 15 1 15 16
M  V30 16 2 16 17
M  V30 17 1 17 18
M  V30 18 2 18 19
M  V30 19 1 19 20
M  V30 20 2 20 21
M  V30 21 1 21 22
M  V30 22 1 22 23
M  V30 23 1 23 24
M  V30 24 1 24 25
M  V30 25 1 25 26
M  V30 26 1 25 27
M  V30 27 1 27 28
M  V30 28 2 28 29
M  V30 29 1 29 30
M  V30 30 1 30 31
M  V30 31 2 31 32
M  V30 32 1 32 33
M  V30 33 2 33 34
M  V30 34 1 34 35
M  V30 35 2 35 36
M  V30 36 2 22 37
M  V30 37 1 17 38
M  V30 38 2 38 39
M  V30 39 1 9 5
M  V30 40 1 39 10
M  V30 41 1 39 14
M  V30 42 1 37 18
M  V30 43 1 36 28
M  V30 44 1 36 31
M  V30 45 1 1 40
M  V30 46 1 1 41
M  V30 47 1 1 42
M  V30 48 1 3 43
M  V30 49 1 3 44
M  V30 50 1 3 45
M  V30 51 1 4 46
M  V30 52 1 4 47
M  V30 53 1 7 48
M  V30 54 1 8 49
M  V30 55 1 9 50
M  V30 56 1 10 51
M  V30 57 1 13 52
M  V30 58 1 15 53
M  V30 59 1 16 54
M  V30 60 1 19 55
M  V30 61 1 21 56
M  V30 62 1 24 57
M  V30 63 1 24 58
M  V30 64 1 25 59 CFG=3
M  V30 65 1 26 60
M  V30 66 1 26 61
M  V30 67 1 27 62
M  V30 68 1 27 63
M  V30 69 1 29 64
M  V30 70 1 30 65
M  V30 71 1 32 66
M  V30 72 1 33 67
M  V30 73 1 34 68
M  V30 74 1 35 69
M  V30 75 1 37 70
M  V30 76 1 38 71
M  V30 END BOND
M  V30 END CTAB
M  END
>  <Dataset>  (273) 
ChEMBL_Kinases

>  <Ligand_Instance>  (273) 
nan

>  <PDB_ID>  (273) 
nan

>  <Standardized_SMILES>  (273) 
CC(C)(Cc1ncc[nH]1)C1C(=O)Nc2ccc(-c3cncc(OC[C@@H](N)Cc4c[nH]c5ccccc45)c3)cc21

>  <Name>  (273) 
nan

>  <Pocket>  (273) 
nan

>  <ATP_Site>  (273) 
nan

>  <Peripheral>  (273) 
nan

>  <Num_H_Atoms_ProtBoundConf>  (273) 
nan

>  <Num_Resolved_Atoms>  (273) 
nan

>  <Num_Not_Resolved_Atoms>  (273) 
nan

$$$$
CHEMBL210196
     RDKit          3D

  0  0  0  0  0  0  0  0  0  0999 V3000
M  V30 BEGIN CTAB
M  V30 COUNTS 61 62 0 0 0
M  V30 BEGIN ATOM
M  V30 1 C -0.026031 -3.841655 7.184023 0
M  V30 2 O 0.993147 -4.483296 6.428933 0
M  V30 3 C 1.481751 -3.860848 5.292923 0
M  V30 4 C 0.961124 -2.636212 4.932161 0
M  V30 5 C 1.458175 -2.027772 3.797177 0
M  V30 6 C 2.457087 -2.623214 3.029426 0
M  V30 7 C 2.998424 -1.995099 1.821880 0
M  V30 8 O 3.911710 -2.551162 1.129520 0
M  V30 9 O 2.509914 -0.778967 1.427516 0
M  V30 10 C 2.937416 -0.051690 0.281382 0
M  V30 11 C 2.178665 1.251657 0.156262 0
M  V30 12 C 2.572246 2.086594 1.380371 0
M  V30 13 O 1.983047 3.354627 1.279219 0
M  V30 14 C 0.703584 1.062843 0.058336 0
M  V30 15 C 0.358661 1.549633 -1.288396 0
M  V30 16 C -0.880455 1.435388 -1.773524 0
M  V30 17 C -1.993152 0.837559 -1.051930 0
M  V30 18 C -2.652285 -0.350229 -1.661383 0
M  V30 19 C -3.244031 -0.070799 -3.025513 0
M  V30 20 C -3.905558 -1.293866 -3.618318 0
M  V30 21 C -4.246525 1.057912 -3.010953 0
M  V30 22 C -1.849172 -1.597642 -1.737518 0
M  V30 23 C -0.586018 -1.541061 -2.517051 0
M  V30 24 C -1.569344 -2.212212 -0.378712 0
M  V30 25 C 1.573586 2.110671 -1.862002 0
M  V30 26 O 1.606920 2.677198 -2.986683 0
M  V30 27 O 2.640518 1.914665 -0.979905 0
M  V30 28 C 2.951292 -3.853063 3.427952 0
M  V30 29 C 2.481001 -4.509327 4.568870 0
M  V30 30 H 0.323797 -2.842896 7.495875 0
M  V30 31 H -0.918885 -3.645236 6.532601 0
M  V30 32 H -0.356559 -4.475186 8.017073 0
M  V30 33 H 0.180698 -2.149866 5.514370 0
M  V30 34 H 1.093726 -1.074633 3.464785 0
M  V30 35 H 4.020095 0.192324 0.324134 0
M  V30 36 H 2.798221 -0.699557 -0.605422 0
M  V30 37 H 2.296163 1.569453 2.299267 0
M  V30 38 H 3.667741 2.228060 1.340577 0
M  V30 39 H 2.094320 3.714122 0.373324 0
M  V30 40 H 0.394176 0.031722 0.278494 0
M  V30 41 H 0.238970 1.697537 0.864525 0
M  V30 42 H -1.049260 1.819192 -2.772642 0
M  V30 43 H -1.744677 0.593025 -0.001482 0
M  V30 44 H -2.779400 1.624219 -0.974111 0
M  V30 45 H -3.522127 -0.586767 -1.009645 0
M  V30 46 H -2.424817 0.218192 -3.712441 0
M  V30 47 H -4.708036 -1.031117 -4.333896 0
M  V30 48 H -4.421555 -1.851112 -2.782849 0
M  V30 49 H -3.223164 -1.975428 -4.129147 0
M  V30 50 H -3.747847 2.048759 -3.096820 0
M  V30 51 H -4.862973 0.944365 -3.926612 0
M  V30 52 H -4.935600 0.985380 -2.151523 0
M  V30 53 H -2.515190 -2.343230 -2.250404 0
M  V30 54 H 0.311031 -1.281069 -1.915278 0
M  V30 55 H -0.690706 -0.927646 -3.445057 0
M  V30 56 H -0.367087 -2.562936 -2.896041 0
M  V30 57 H -0.583826 -2.687326 -0.385694 0
M  V30 58 H -2.290564 -3.011390 -0.108604 0
M  V30 59 H -1.705911 -1.419885 0.383581 0
M  V30 60 H 3.729624 -4.344916 2.852898 0
M  V30 61 H 2.866108 -5.477404 4.887528 0
M  V30 END ATOM
M  V30 BEGIN BOND
M  V30 1 1 1 2
M  V30 2 1 2 3
M  V30 3 2 3 4
M  V30 4 1 4 5
M  V30 5 2 5 6
M  V30 6 1 6 7
M  V30 7 2 7 8
M  V30 8 1 7 9
M  V30 9 1 9 10
M  V30 10 1 10 11
M  V30 11 1 11 12
M  V30 12 1 12 13
M  V30 13 1 11 14
M  V30 14 1 14 15
M  V30 15 2 15 16
M  V30 16 1 16 17
M  V30 17 1 17 18
M  V30 18 1 18 19
M  V30 19 1 19 20
M  V30 20 1 19 21
M  V30 21 1 18 22
M  V30 22 1 22 23
M  V30 23 1 22 24
M  V30 24 1 15 25
M  V30 25 2 25 26
M  V30 26 1 25 27
M  V30 27 1 6 28
M  V30 28 2 28 29
M  V30 29 1 29 3
M  V30 30 1 27 11
M  V30 31 1 1 30
M  V30 32 1 1 31
M  V30 33 1 1 32
M  V30 34 1 4 33
M  V30 35 1 5 34
M  V30 36 1 10 35
M  V30 37 1 10 36
M  V30 38 1 12 37
M  V30 39 1 12 38
M  V30 40 1 13 39
M  V30 41 1 14 40
M  V30 42 1 14 41
M  V30 43 1 16 42
M  V30 44 1 17 43
M  V30 45 1 17 44
M  V30 46 1 18 45
M  V30 47 1 19 46
M  V30 48 1 20 47
M  V30 49 1 20 48
M  V30 50 1 20 49
M  V30 51 1 21 50
M  V30 52 1 21 51
M  V30 53 1 21 52
M  V30 54 1 22 53
M  V30 55 1 23 54
M  V30 56 1 23 55
M  V30 57 1 23 56
M  V30 58 1 24 57
M  V30 59 1 24 58
M  V30 60 1 24 59
M  V30 61 1 28 60
M  V30 62 1 29 61
M  V30 END BOND
M  V30 END CTAB
M  END
>  <Dataset>  (274) 
ChEMBL_Kinases

>  <Ligand_Instance>  (274) 
nan

>  <PDB_ID>  (274) 
nan

>  <Standardized_SMILES>  (274) 
COc1ccc(C(=O)OCC2(CO)C/C(=C\CC(C(C)C)C(C)C)C(=O)O2)cc1

>  <Name>  (274) 
nan

>  <Pocket>  (274) 
nan

>  <ATP_Site>  (274) 
nan

>  <Peripheral>  (274) 
nan

>  <Num_H_Atoms_ProtBoundConf>  (274) 
nan

>  <Num_Resolved_Atoms>  (274) 
nan

>  <Num_Not_Resolved_Atoms>  (274) 
nan

$$$$
CHEMBL210194
     RDKit          3D

  0  0  0  0  0  0  0  0  0  0999 V3000
M  V30 BEGIN CTAB
M  V30 COUNTS 43 45 0 0 0
M  V30 BEGIN ATOM
M  V30 1 C -0.889089 -3.330855 5.583445 0
M  V30 2 C 0.267396 -3.203033 4.601246 0
M  V30 3 O -0.230685 -2.776944 3.334344 0
M  V30 4 C 0.658438 -2.594457 2.283383 0
M  V30 5 O 1.846686 -2.827762 2.554915 0
M  V30 6 C 0.014109 -2.152852 1.029407 0
M  V30 7 N 0.943721 -1.962759 -0.067114 0
M  V30 8 C 1.572557 -0.782476 -0.333782 0
M  V30 9 N 1.423431 0.445187 0.410444 0
M  V30 10 C 0.384501 1.267206 -0.074297 0
M  V30 11 O -0.226069 0.779833 -1.070907 0
M  V30 12 C 0.033609 2.574267 0.516954 0
M  V30 13 C 0.685189 3.124567 1.602701 0
M  V30 14 C 0.304106 4.353160 2.104832 0
M  V30 15 C -0.746757 5.024814 1.497295 0
M  V30 16 C -1.404325 4.482623 0.411230 0
M  V30 17 N -2.487693 5.186449 -0.206710 0 CHG=1 VAL=4
M  V30 18 O -2.827825 6.294036 0.249496 0
M  V30 19 O -3.087914 4.593401 -1.269970 0 CHG=-1 VAL=1
M  V30 20 C -1.011171 3.253516 -0.078643 0
M  V30 21 N 2.362601 -0.954443 -1.416335 0
M  V30 22 C 2.260267 -2.226593 -1.860834 0
M  V30 23 C 2.821022 -2.947278 -2.899615 0
M  V30 24 C 2.449105 -4.269190 -3.023697 0
M  V30 25 C 1.568701 -4.933966 -2.204186 0
M  V30 26 C 1.029339 -4.172818 -1.174338 0
M  V30 27 C 1.362570 -2.844239 -0.998039 0
M  V30 28 H -0.510909 -3.066441 6.580696 0
M  V30 29 H -1.688902 -2.622418 5.221676 0
M  V30 30 H -1.239647 -4.379712 5.488457 0
M  V30 31 H 0.757756 -4.186075 4.398179 0
M  V30 32 H 1.031714 -2.486985 4.909159 0
M  V30 33 H -0.739713 -2.890721 0.701150 0
M  V30 34 H -0.522506 -1.189055 1.171622 0
M  V30 35 H 1.986082 0.764492 1.233609 0
M  V30 36 H 1.499518 2.570144 2.048596 0
M  V30 37 H 0.818153 4.780121 2.956138 0
M  V30 38 H -1.050158 5.998221 1.893586 0
M  V30 39 H -1.527794 2.849744 -0.915648 0
M  V30 40 H 3.518716 -2.466209 -3.569722 0
M  V30 41 H 2.910080 -4.810545 -3.854565 0
M  V30 42 H 1.336111 -5.967917 -2.375398 0
M  V30 43 H 0.320644 -4.675423 -0.499969 0
M  V30 END ATOM
M  V30 BEGIN BOND
M  V30 1 1 1 2
M  V30 2 1 2 3
M  V30 3 1 3 4
M  V30 4 2 4 5
M  V30 5 1 4 6
M  V30 6 1 6 7
M  V30 7 1 7 8
M  V30 8 1 8 9
M  V30 9 1 9 10
M  V30 10 2 10 11
M  V30 11 1 10 12
M  V30 12 2 12 13
M  V30 13 1 13 14
M  V30 14 2 14 15
M  V30 15 1 15 16
M  V30 16 1 16 17
M  V30 17 2 17 18
M  V30 18 1 17 19
M  V30 19 2 16 20
M  V30 20 2 8 21
M  V30 21 1 21 22
M  V30 22 2 22 23
M  V30 23 1 23 24
M  V30 24 2 24 25
M  V30 25 1 25 26
M  V30 26 2 26 27
M  V30 27 1 27 7
M  V30 28 1 20 12
M  V30 29 1 27 22
M  V30 30 1 1 28
M  V30 31 1 1 29
M  V30 32 1 1 30
M  V30 33 1 2 31
M  V30 34 1 2 32
M  V30 35 1 6 33
M  V30 36 1 6 34
M  V30 37 1 9 35
M  V30 38 1 13 36
M  V30 39 1 14 37
M  V30 40 1 15 38
M  V30 41 1 20 39
M  V30 42 1 23 40
M  V30 43 1 24 41
M  V30 44 1 25 42
M  V30 45 1 26 43
M  V30 END BOND
M  V30 END CTAB
M  END
>  <Dataset>  (275) 
ChEMBL_Kinases

>  <Ligand_Instance>  (275) 
nan

>  <PDB_ID>  (275) 
nan

>  <Standardized_SMILES>  (275) 
CCOC(=O)Cn1c(NC(=O)c2cccc([N+](=O)[O-])c2)nc2ccccc21

>  <Name>  (275) 
nan

>  <Pocket>  (275) 
nan

>  <ATP_Site>  (275) 
nan

>  <Peripheral>  (275) 
nan

>  <Num_H_Atoms_ProtBoundConf>  (275) 
nan

>  <Num_Resolved_Atoms>  (275) 
nan

>  <Num_Not_Resolved_Atoms>  (275) 
nan

$$$$
CHEMBL210115
     RDKit          3D

  0  0  0  0  0  0  0  0  0  0999 V3000
M  V30 BEGIN CTAB
M  V30 COUNTS 48 50 0 0 0
M  V30 BEGIN ATOM
M  V30 1 C 5.757968 -3.186149 5.277128 0
M  V30 2 N 6.434291 -1.913008 5.226201 0
M  V30 3 C 5.952517 -0.798650 4.478333 0
M  V30 4 N 6.629267 0.384973 4.469472 0
M  V30 5 C 6.150275 1.416826 3.755236 0
M  V30 6 C 4.987098 1.320655 3.023322 0
M  V30 7 C 4.308346 0.128546 3.034125 0
M  V30 8 C 3.044430 -0.158695 2.308712 0
M  V30 9 C 2.416817 0.726519 1.553870 0
M  V30 10 C 1.251300 0.373567 0.919946 0
M  V30 11 C 0.791703 -0.898640 1.105708 0
M  V30 12 C -0.361281 -1.703911 0.652352 0
M  V30 13 O -0.454580 -2.877205 1.040224 0
M  V30 14 N -1.254619 -1.044050 -0.190921 0
M  V30 15 C -2.392798 -1.734459 -0.680230 0 CFG=1
M  V30 16 C -3.737205 -1.229845 -0.334329 0
M  V30 17 C -4.105683 0.115156 -0.754745 0
M  V30 18 C -3.518337 0.952198 -1.653546 0
M  V30 19 C -3.996435 2.214599 -1.955391 0
M  V30 20 C -5.131117 2.673504 -1.323227 0
M  V30 21 Cl -5.787874 4.275496 -1.667115 0
M  V30 22 C -5.766954 1.856358 -0.397996 0
M  V30 23 C -5.260474 0.608811 -0.125763 0
M  V30 24 Cl -6.172061 -0.306150 1.064173 0
M  V30 25 C -2.252076 -1.992809 -2.152724 0
M  V30 26 O -1.278199 -1.670428 -2.906108 0
M  V30 27 O -3.319450 -2.660623 -2.735537 0
M  V30 28 C -3.240530 -2.930953 -4.125780 0
M  V30 29 S 2.103664 -1.633358 2.254457 0
M  V30 30 N 4.810721 -0.886834 3.757709 0
M  V30 31 H 6.343244 -4.015629 4.815846 0
M  V30 32 H 4.725173 -3.106648 4.857801 0
M  V30 33 H 5.600554 -3.504927 6.348235 0
M  V30 34 H 7.311433 -1.803483 5.758207 0
M  V30 35 H 6.625388 2.392090 3.693691 0
M  V30 36 H 4.521491 2.091742 2.418101 0
M  V30 37 H 2.745877 1.765270 1.372565 0
M  V30 38 H 0.585170 0.923096 0.269130 0
M  V30 39 H -1.088699 -0.042065 -0.463165 0
M  V30 40 H -2.327127 -2.782141 -0.260823 0
M  V30 41 H -3.994598 -1.383083 0.756526 0
M  V30 42 H -4.501025 -1.901915 -0.816537 0
M  V30 43 H -2.647789 0.570754 -2.131102 0
M  V30 44 H -3.478563 2.828762 -2.681384 0
M  V30 45 H -6.646114 2.258911 0.066437 0
M  V30 46 H -3.871185 -3.799066 -4.409847 0
M  V30 47 H -3.594257 -2.001363 -4.632731 0
M  V30 48 H -2.173668 -3.078958 -4.383777 0
M  V30 END ATOM
M  V30 BEGIN BOND
M  V30 1 1 1 2
M  V30 2 1 2 3
M  V30 3 2 3 4
M  V30 4 1 4 5
M  V30 5 2 5 6
M  V30 6 1 6 7
M  V30 7 1 7 8
M  V30 8 2 8 9
M  V30 9 1 9 10
M  V30 10 2 10 11
M  V30 11 1 11 12
M  V30 12 2 12 13
M  V30 13 1 12 14
M  V30 14 1 14 15
M  V30 15 1 15 16
M  V30 16 1 16 17
M  V30 17 2 17 18
M  V30 18 1 18 19
M  V30 19 2 19 20
M  V30 20 1 20 21
M  V30 21 1 20 22
M  V30 22 2 22 23
M  V30 23 1 23 24
M  V30 24 1 15 25
M  V30 25 2 25 26
M  V30 26 1 25 27
M  V30 27 1 27 28
M  V30 28 1 11 29
M  V30 29 2 7 30
M  V30 30 1 30 3
M  V30 31 1 29 8
M  V30 32 1 23 17
M  V30 33 1 1 31
M  V30 34 1 1 32
M  V30 35 1 1 33
M  V30 36 1 2 34
M  V30 37 1 5 35
M  V30 38 1 6 36
M  V30 39 1 9 37
M  V30 40 1 10 38
M  V30 41 1 14 39
M  V30 42 1 15 40 CFG=1
M  V30 43 1 16 41
M  V30 44 1 16 42
M  V30 45 1 18 43
M  V30 46 1 19 44
M  V30 47 1 22 45
M  V30 48 1 28 46
M  V30 49 1 28 47
M  V30 50 1 28 48
M  V30 END BOND
M  V30 END CTAB
M  END
>  <Dataset>  (276) 
ChEMBL_Kinases

>  <Ligand_Instance>  (276) 
nan

>  <PDB_ID>  (276) 
nan

>  <Standardized_SMILES>  (276) 
CNc1nccc(-c2ccc(C(=O)N[C@@H](Cc3ccc(Cl)cc3Cl)C(=O)OC)s2)n1

>  <Name>  (276) 
nan

>  <Pocket>  (276) 
nan

>  <ATP_Site>  (276) 
nan

>  <Peripheral>  (276) 
nan

>  <Num_H_Atoms_ProtBoundConf>  (276) 
nan

>  <Num_Resolved_Atoms>  (276) 
nan

>  <Num_Not_Resolved_Atoms>  (276) 
nan

$$$$
CHEMBL210110
     RDKit          3D

  0  0  0  0  0  0  0  0  0  0999 V3000
M  V30 BEGIN CTAB
M  V30 COUNTS 40 43 0 0 0
M  V30 BEGIN ATOM
M  V30 1 O -0.955175 -3.937522 1.810644 0
M  V30 2 C -0.474183 -2.879864 1.350748 0
M  V30 3 N 0.350020 -2.959315 0.193153 0
M  V30 4 C 0.989036 -1.840385 -0.473827 0
M  V30 5 C 0.675113 -0.582756 0.206906 0
M  V30 6 C 1.265659 0.529391 -0.394125 0
M  V30 7 C 2.113349 0.462517 -1.581818 0
M  V30 8 C 1.372385 0.585839 -2.760760 0
M  V30 9 C 1.999004 0.546862 -3.995695 0
M  V30 10 C 3.384133 0.382582 -4.055696 0
M  V30 11 C 4.102110 0.262233 -2.884203 0
M  V30 12 C 3.483072 0.300372 -1.651831 0
M  V30 13 Cl 4.283064 0.159068 -0.100954 0
M  V30 14 C 1.053890 1.797570 0.147074 0
M  V30 15 C 0.253361 1.942914 1.284737 0
M  V30 16 O 0.075408 3.209552 1.778768 0
M  V30 17 C -0.335007 0.828682 1.882340 0
M  V30 18 C -0.106939 -0.402600 1.325771 0
M  V30 19 N -0.678664 -1.577776 1.888437 0
M  V30 20 C -1.513428 -1.520247 3.056359 0
M  V30 21 C -1.038920 -1.619414 4.348867 0
M  V30 22 Cl 0.702381 -1.829011 4.549050 0
M  V30 23 C -1.929866 -1.551621 5.407684 0
M  V30 24 C -3.289352 -1.384608 5.151951 0
M  V30 25 C -3.757650 -1.285425 3.837674 0
M  V30 26 C -2.855385 -1.354297 2.771839 0
M  V30 27 Cl -3.537636 -1.220470 1.171404 0
M  V30 28 H 0.579977 -3.854106 -0.300192 0
M  V30 29 H 0.703014 -1.861642 -1.535070 0
M  V30 30 H 2.100533 -1.998742 -0.424557 0
M  V30 31 H 0.295352 0.716448 -2.812176 0
M  V30 32 H 1.479416 0.636811 -4.940880 0
M  V30 33 H 3.905002 0.347375 -4.986507 0
M  V30 34 H 5.185476 0.131642 -2.859216 0
M  V30 35 H 1.516388 2.669143 -0.323514 0
M  V30 36 H 0.097666 3.491065 2.731282 0
M  V30 37 H -0.957746 0.933916 2.765817 0
M  V30 38 H -1.514762 -1.633711 6.401270 0
M  V30 39 H -3.975386 -1.333767 6.007321 0
M  V30 40 H -4.841228 -1.155151 3.717754 0
M  V30 END ATOM
M  V30 BEGIN BOND
M  V30 1 2 1 2
M  V30 2 1 2 3
M  V30 3 1 3 4
M  V30 4 1 4 5
M  V30 5 2 5 6
M  V30 6 1 6 7
M  V30 7 2 7 8
M  V30 8 1 8 9
M  V30 9 2 9 10
M  V30 10 1 10 11
M  V30 11 2 11 12
M  V30 12 1 12 13
M  V30 13 1 6 14
M  V30 14 2 14 15
M  V30 15 1 15 16
M  V30 16 1 15 17
M  V30 17 2 17 18
M  V30 18 1 18 19
M  V30 19 1 19 20
M  V30 20 2 20 21
M  V30 21 1 21 22
M  V30 22 1 21 23
M  V30 23 2 23 24
M  V30 24 1 24 25
M  V30 25 2 25 26
M  V30 26 1 26 27
M  V30 27 1 19 2
M  V30 28 1 26 20
M  V30 29 1 18 5
M  V30 30 1 12 7
M  V30 31 1 3 28
M  V30 32 1 4 29
M  V30 33 1 4 30
M  V30 34 1 8 31
M  V30 35 1 9 32
M  V30 36 1 10 33
M  V30 37 1 11 34
M  V30 38 1 14 35
M  V30 39 1 16 36
M  V30 40 1 17 37
M  V30 41 1 23 38
M  V30 42 1 24 39
M  V30 43 1 25 40
M  V30 END BOND
M  V30 END CTAB
M  END
>  <Dataset>  (277) 
ChEMBL_Kinases

>  <Ligand_Instance>  (277) 
nan

>  <PDB_ID>  (277) 
nan

>  <Standardized_SMILES>  (277) 
O=C1NCc2c(-c3ccccc3Cl)cc(O)cc2N1c1c(Cl)cccc1Cl

>  <Name>  (277) 
nan

>  <Pocket>  (277) 
nan

>  <ATP_Site>  (277) 
nan

>  <Peripheral>  (277) 
nan

>  <Num_H_Atoms_ProtBoundConf>  (277) 
nan

>  <Num_Resolved_Atoms>  (277) 
nan

>  <Num_Not_Resolved_Atoms>  (277) 
nan

$$$$
CHEMBL210093
     RDKit          3D

  0  0  0  0  0  0  0  0  0  0999 V3000
M  V30 BEGIN CTAB
M  V30 COUNTS 52 56 0 0 0
M  V30 BEGIN ATOM
M  V30 1 N 1.154087 -2.893216 4.451360 0
M  V30 2 C 0.873404 -3.644869 3.223568 0 CFG=2
M  V30 3 C 1.827288 -3.078229 2.204820 0
M  V30 4 O 1.652087 -1.776758 2.012184 0
M  V30 5 C 1.648002 -0.541205 2.429572 0
M  V30 6 C 1.906695 0.162124 3.582676 0
M  V30 7 N 1.816025 1.491359 3.740593 0
M  V30 8 C 1.435954 2.237798 2.678641 0
M  V30 9 C 1.144848 1.665941 1.456956 0
M  V30 10 C 0.748822 2.596549 0.404036 0
M  V30 11 C 1.308499 3.864114 0.436018 0
M  V30 12 C 0.976501 4.808784 -0.538428 0
M  V30 13 C 0.090400 4.467201 -1.526286 0
M  V30 14 C -0.271403 5.376206 -2.521909 0
M  V30 15 F 0.302348 6.603018 -2.452131 0
M  V30 16 N -1.138103 5.074717 -3.508184 0
M  V30 17 C -1.685157 3.837656 -3.539928 0
M  V30 18 C -1.375049 2.867856 -2.579316 0
M  V30 19 C -0.484142 3.211530 -1.584602 0
M  V30 20 C -0.140514 2.287664 -0.606760 0
M  V30 21 C 1.255574 0.268856 1.346467 0
M  V30 22 C -0.563972 -3.398867 2.879261 0
M  V30 23 C -1.087707 -4.075770 1.699005 0
M  V30 24 C -1.750692 -5.305168 1.883289 0
M  V30 25 N -2.148447 -5.835362 0.713953 0
M  V30 26 C -1.784543 -5.016329 -0.272047 0
M  V30 27 C -1.910965 -5.004520 -1.638298 0
M  V30 28 C -1.412122 -3.957897 -2.392970 0
M  V30 29 C -0.772411 -2.900012 -1.757458 0
M  V30 30 C -0.638715 -2.900207 -0.387776 0
M  V30 31 C -1.145686 -3.958054 0.334673 0
M  V30 32 H 1.399738 -3.494191 5.248565 0
M  V30 33 H 0.460512 -2.152520 4.639521 0
M  V30 34 H 1.043640 -4.734047 3.391288 0
M  V30 35 H 2.888933 -3.379907 2.480028 0
M  V30 36 H 1.566785 -3.634313 1.242588 0
M  V30 37 H 2.219357 -0.442774 4.408260 0
M  V30 38 H 1.385041 3.280169 2.873623 0
M  V30 39 H 2.009251 4.228996 1.163706 0
M  V30 40 H 1.399152 5.820098 -0.545169 0
M  V30 41 H -2.396124 3.515162 -4.305897 0
M  V30 42 H -1.809506 1.876850 -2.602243 0
M  V30 43 H -0.545458 1.295107 -0.588626 0
M  V30 44 H 0.991028 0.005794 0.323785 0
M  V30 45 H -0.774693 -2.289188 2.798477 0
M  V30 46 H -1.141655 -3.672964 3.812932 0
M  V30 47 H -1.978613 -5.863306 2.795084 0
M  V30 48 H -2.656003 -6.720814 0.513468 0
M  V30 49 H -2.422007 -5.857678 -2.096385 0
M  V30 50 H -1.557720 -4.038759 -3.444234 0
M  V30 51 H -0.397119 -2.097658 -2.374336 0
M  V30 52 H -0.151105 -2.075510 0.078277 0
M  V30 END ATOM
M  V30 BEGIN BOND
M  V30 1 1 1 2
M  V30 2 1 2 3
M  V30 3 1 3 4
M  V30 4 1 4 5
M  V30 5 2 5 6
M  V30 6 1 6 7
M  V30 7 2 7 8
M  V30 8 1 8 9
M  V30 9 1 9 10
M  V30 10 2 10 11
M  V30 11 1 11 12
M  V30 12 2 12 13
M  V30 13 1 13 14
M  V30 14 1 14 15
M  V30 15 2 14 16
M  V30 16 1 16 17
M  V30 17 2 17 18
M  V30 18 1 18 19
M  V30 19 2 19 20
M  V30 20 2 9 21
M  V30 21 1 2 22
M  V30 22 1 22 23
M  V30 23 2 23 24
M  V30 24 1 24 25
M  V30 25 1 25 26
M  V30 26 2 26 27
M  V30 27 1 27 28
M  V30 28 2 28 29
M  V30 29 1 29 30
M  V30 30 2 30 31
M  V30 31 1 21 5
M  V30 32 1 31 23
M  V30 33 1 20 10
M  V30 34 1 31 26
M  V30 35 1 19 13
M  V30 36 1 1 32
M  V30 37 1 1 33
M  V30 38 1 2 34 CFG=1
M  V30 39 1 3 35
M  V30 40 1 3 36
M  V30 41 1 6 37
M  V30 42 1 8 38
M  V30 43 1 11 39
M  V30 44 1 12 40
M  V30 45 1 17 41
M  V30 46 1 18 42
M  V30 47 1 20 43
M  V30 48 1 21 44
M  V30 49 1 22 45
M  V30 50 1 22 46
M  V30 51 1 24 47
M  V30 52 1 25 48
M  V30 53 1 27 49
M  V30 54 1 28 50
M  V30 55 1 29 51
M  V30 56 1 30 52
M  V30 END BOND
M  V30 END CTAB
M  END
>  <Dataset>  (278) 
ChEMBL_Kinases

>  <Ligand_Instance>  (278) 
nan

>  <PDB_ID>  (278) 
nan

>  <Standardized_SMILES>  (278) 
N[C@H](COc1cncc(-c2ccc3c(F)nccc3c2)c1)Cc1c[nH]c2ccccc12

>  <Name>  (278) 
nan

>  <Pocket>  (278) 
nan

>  <ATP_Site>  (278) 
nan

>  <Peripheral>  (278) 
nan

>  <Num_H_Atoms_ProtBoundConf>  (278) 
nan

>  <Num_Resolved_Atoms>  (278) 
nan

>  <Num_Not_Resolved_Atoms>  (278) 
nan

$$$$
CHEMBL210089
     RDKit          3D

  0  0  0  0  0  0  0  0  0  0999 V3000
M  V30 BEGIN CTAB
M  V30 COUNTS 52 56 0 0 0
M  V30 BEGIN ATOM
M  V30 1 N -3.849087 -1.932358 3.269364 0
M  V30 2 C -2.726210 -2.671923 2.648655 0 CFG=2
M  V30 3 C -1.777651 -1.599870 2.175311 0
M  V30 4 O -2.365424 -0.717872 1.265387 0
M  V30 5 C -1.791267 0.355915 0.647332 0
M  V30 6 C -0.503200 0.821830 0.773496 0
M  V30 7 C -0.104792 1.930299 0.061663 0
M  V30 8 C 1.234609 2.434848 0.176785 0
M  V30 9 C 1.810767 3.058964 -0.923167 0
M  V30 10 C 3.090128 3.602522 -0.987609 0
M  V30 11 C 3.856565 3.505870 0.166077 0
M  V30 12 C 5.110878 4.040947 0.096471 0
M  V30 13 N 5.885292 3.966239 1.197137 0
M  V30 14 C 5.404936 3.372974 2.320161 0
M  V30 15 C 4.135147 2.829879 2.394611 0
M  V30 16 C 3.330388 2.898246 1.277022 0
M  V30 17 C 2.046922 2.371143 1.290237 0
M  V30 18 C -0.984304 2.587140 -0.783552 0
M  V30 19 N -2.257590 2.117364 -0.901091 0
M  V30 20 C -2.651434 1.023586 -0.199006 0
M  V30 21 Cl -4.334233 0.544220 -0.464381 0
M  V30 22 C -3.240362 -3.579411 1.602422 0
M  V30 23 C -2.252459 -4.410824 0.891689 0
M  V30 24 C -2.011742 -5.731651 1.311205 0
M  V30 25 N -1.063382 -6.328017 0.578090 0
M  V30 26 C -0.639335 -5.450844 -0.343145 0
M  V30 27 C 0.291638 -5.488919 -1.360661 0
M  V30 28 C 0.478087 -4.375041 -2.159048 0
M  V30 29 C -0.252738 -3.222238 -1.955863 0
M  V30 30 C -1.175706 -3.197186 -0.939594 0
M  V30 31 C -1.358491 -4.307263 -0.145859 0
M  V30 32 H -4.086895 -1.166031 2.583046 0
M  V30 33 H -3.528816 -1.476216 4.145424 0
M  V30 34 H -2.301499 -3.249193 3.504806 0
M  V30 35 H -1.347201 -1.029474 3.033311 0
M  V30 36 H -0.918100 -2.093468 1.680542 0
M  V30 37 H 0.126509 0.279761 1.434552 0
M  V30 38 H 1.212701 3.139536 -1.837942 0
M  V30 39 H 3.428622 4.062480 -1.897056 0
M  V30 40 H 5.491341 4.516303 -0.808785 0
M  V30 41 H 6.088308 3.358776 3.145651 0
M  V30 42 H 3.777048 2.365288 3.294925 0
M  V30 43 H 1.632097 1.891746 2.167274 0
M  V30 44 H -0.748267 3.467770 -1.379609 0
M  V30 45 H -3.832501 -2.948511 0.887625 0
M  V30 46 H -4.036656 -4.251579 2.045874 0
M  V30 47 H -2.497312 -6.274272 2.125492 0
M  V30 48 H -0.693862 -7.298034 0.675185 0
M  V30 49 H 0.829626 -6.419724 -1.466659 0
M  V30 50 H 1.228041 -4.523664 -2.915851 0
M  V30 51 H -0.051874 -2.403909 -2.614206 0
M  V30 52 H -1.742919 -2.292699 -0.800047 0
M  V30 END ATOM
M  V30 BEGIN BOND
M  V30 1 1 1 2
M  V30 2 1 2 3
M  V30 3 1 3 4
M  V30 4 1 4 5
M  V30 5 2 5 6
M  V30 6 1 6 7
M  V30 7 1 7 8
M  V30 8 2 8 9
M  V30 9 1 9 10
M  V30 10 2 10 11
M  V30 11 1 11 12
M  V30 12 2 12 13
M  V30 13 1 13 14
M  V30 14 2 14 15
M  V30 15 1 15 16
M  V30 16 2 16 17
M  V30 17 2 7 18
M  V30 18 1 18 19
M  V30 19 2 19 20
M  V30 20 1 20 21
M  V30 21 1 2 22
M  V30 22 1 22 23
M  V30 23 2 23 24
M  V30 24 1 24 25
M  V30 25 1 25 26
M  V30 26 2 26 27
M  V30 27 1 27 28
M  V30 28 2 28 29
M  V30 29 1 29 30
M  V30 30 2 30 31
M  V30 31 1 20 5
M  V30 32 1 31 23
M  V30 33 1 17 8
M  V30 34 1 31 26
M  V30 35 1 16 11
M  V30 36 1 1 32
M  V30 37 1 1 33
M  V30 38 1 2 34 CFG=1
M  V30 39 1 3 35
M  V30 40 1 3 36
M  V30 41 1 6 37
M  V30 42 1 9 38
M  V30 43 1 10 39
M  V30 44 1 12 40
M  V30 45 1 14 41
M  V30 46 1 15 42
M  V30 47 1 17 43
M  V30 48 1 18 44
M  V30 49 1 22 45
M  V30 50 1 22 46
M  V30 51 1 24 47
M  V30 52 1 25 48
M  V30 53 1 27 49
M  V30 54 1 28 50
M  V30 55 1 29 51
M  V30 56 1 30 52
M  V30 END BOND
M  V30 END CTAB
M  END
>  <Dataset>  (279) 
ChEMBL_Kinases

>  <Ligand_Instance>  (279) 
nan

>  <PDB_ID>  (279) 
nan

>  <Standardized_SMILES>  (279) 
N[C@H](COc1cc(-c2ccc3cnccc3c2)cnc1Cl)Cc1c[nH]c2ccccc12

>  <Name>  (279) 
nan

>  <Pocket>  (279) 
nan

>  <ATP_Site>  (279) 
nan

>  <Peripheral>  (279) 
nan

>  <Num_H_Atoms_ProtBoundConf>  (279) 
nan

>  <Num_Resolved_Atoms>  (279) 
nan

>  <Num_Not_Resolved_Atoms>  (279) 
nan

$$$$
CHEMBL210071
     RDKit          3D

  0  0  0  0  0  0  0  0  0  0999 V3000
M  V30 BEGIN CTAB
M  V30 COUNTS 42 44 0 0 0
M  V30 BEGIN ATOM
M  V30 1 C 1.182180 -7.371344 -0.210438 0
M  V30 2 N 2.174740 -6.709990 -1.042208 0
M  V30 3 C 3.006188 -5.689590 -0.451970 0
M  V30 4 N 4.246531 -5.779043 0.107150 0
M  V30 5 C 4.745146 -4.606602 0.577556 0
M  V30 6 C 4.143427 -3.368339 0.549192 0
M  V30 7 C 2.896144 -3.358576 -0.028661 0
M  V30 8 C 2.150518 -2.073666 -0.115828 0
M  V30 9 C 0.944703 -1.871666 -0.610608 0
M  V30 10 C 0.388154 -0.635004 -0.618841 0
M  V30 11 C 1.143776 0.376220 -0.089767 0
M  V30 12 C 1.031039 1.847698 0.135020 0
M  V30 13 O 1.950301 2.479139 0.654048 0
M  V30 14 N -0.206500 2.339959 -0.316107 0
M  V30 15 C -0.497358 3.751828 -0.186531 0
M  V30 16 C -0.459813 4.127605 1.274796 0
M  V30 17 C -1.471345 3.353942 2.053479 0
M  V30 18 C -1.083777 2.295154 2.869923 0
M  V30 19 C -2.056328 1.613624 3.573633 0
M  V30 20 C -3.409191 1.916946 3.520704 0
M  V30 21 C -3.792708 2.968613 2.709393 0
M  V30 22 C -2.837975 3.652445 2.006450 0
M  V30 23 Cl -3.358831 4.978617 0.987991 0
M  V30 24 S 2.712772 -0.539639 0.428243 0
M  V30 25 N 2.376616 -4.498139 -0.502120 0
M  V30 26 H 0.173571 -7.042214 -0.573218 0
M  V30 27 H 1.226089 -8.475153 -0.284182 0
M  V30 28 H 1.223284 -7.026862 0.842642 0
M  V30 29 H 2.212617 -7.032667 -2.032060 0
M  V30 30 H 5.743583 -4.699724 1.023932 0
M  V30 31 H 4.632851 -2.498095 0.954195 0
M  V30 32 H 0.343832 -2.693378 -1.034762 0
M  V30 33 H -0.568326 -0.280515 -0.974243 0
M  V30 34 H -0.963766 1.738477 -0.755246 0
M  V30 35 H -1.473026 3.998140 -0.644735 0
M  V30 36 H 0.325510 4.347162 -0.691343 0
M  V30 37 H -0.702842 5.214335 1.417493 0
M  V30 38 H 0.526844 3.961166 1.703764 0
M  V30 39 H -0.046890 2.066282 2.907988 0
M  V30 40 H -1.722764 0.807881 4.189907 0
M  V30 41 H -4.153084 1.363642 4.085803 0
M  V30 42 H -4.831001 3.258789 2.621282 0
M  V30 END ATOM
M  V30 BEGIN BOND
M  V30 1 1 1 2
M  V30 2 1 2 3
M  V30 3 2 3 4
M  V30 4 1 4 5
M  V30 5 2 5 6
M  V30 6 1 6 7
M  V30 7 1 7 8
M  V30 8 2 8 9
M  V30 9 1 9 10
M  V30 10 2 10 11
M  V30 11 1 11 12
M  V30 12 2 12 13
M  V30 13 1 12 14
M  V30 14 1 14 15
M  V30 15 1 15 16
M  V30 16 1 16 17
M  V30 17 2 17 18
M  V30 18 1 18 19
M  V30 19 2 19 20
M  V30 20 1 20 21
M  V30 21 2 21 22
M  V30 22 1 22 23
M  V30 23 1 11 24
M  V30 24 2 7 25
M  V30 25 1 25 3
M  V30 26 1 24 8
M  V30 27 1 22 17
M  V30 28 1 1 26
M  V30 29 1 1 27
M  V30 30 1 1 28
M  V30 31 1 2 29
M  V30 32 1 5 30
M  V30 33 1 6 31
M  V30 34 1 9 32
M  V30 35 1 10 33
M  V30 36 1 14 34
M  V30 37 1 15 35
M  V30 38 1 15 36
M  V30 39 1 16 37
M  V30 40 1 16 38
M  V30 41 1 18 39
M  V30 42 1 19 40
M  V30 43 1 20 41
M  V30 44 1 21 42
M  V30 END BOND
M  V30 END CTAB
M  END
>  <Dataset>  (280) 
ChEMBL_Kinases

>  <Ligand_Instance>  (280) 
nan

>  <PDB_ID>  (280) 
nan

>  <Standardized_SMILES>  (280) 
CNc1nccc(-c2ccc(C(=O)NCCc3ccccc3Cl)s2)n1

>  <Name>  (280) 
nan

>  <Pocket>  (280) 
nan

>  <ATP_Site>  (280) 
nan

>  <Peripheral>  (280) 
nan

>  <Num_H_Atoms_ProtBoundConf>  (280) 
nan

>  <Num_Resolved_Atoms>  (280) 
nan

>  <Num_Not_Resolved_Atoms>  (280) 
nan

$$$$
CHEMBL210060
     RDKit          3D

  0  0  0  0  0  0  0  0  0  0999 V3000
M  V30 BEGIN CTAB
M  V30 COUNTS 39 42 0 0 0
M  V30 BEGIN ATOM
M  V30 1 C -0.541368 -3.406718 1.546288 0
M  V30 2 C 0.564581 -3.784892 0.554379 0
M  V30 3 C 0.032918 -3.769753 -0.826300 0
M  V30 4 C 1.792112 -2.993751 0.754294 0
M  V30 5 N 2.972803 -3.508271 1.190185 0
M  V30 6 N 3.844538 -2.522150 1.250985 0
M  V30 7 C 3.240170 -1.391011 0.862061 0
M  V30 8 C 3.731303 -0.106225 0.757056 0
M  V30 9 C 2.877350 0.883527 0.323768 0
M  V30 10 C 1.566312 0.628203 -0.002261 0
M  V30 11 C 0.628220 1.648057 -0.464992 0
M  V30 12 O 1.023185 2.214066 -1.603790 0
M  V30 13 C 0.113245 3.123635 -1.945881 0
M  V30 14 N -0.879464 3.152300 -1.028043 0
M  V30 15 C -0.566946 2.233876 -0.098582 0
M  V30 16 C -1.156675 1.740916 1.130148 0
M  V30 17 C -2.396765 1.158271 1.043161 0
M  V30 18 F -3.057952 1.041929 -0.145135 0
M  V30 19 C -3.061298 0.651112 2.142786 0
M  V30 20 C -2.462666 0.730147 3.374625 0
M  V30 21 F -3.069391 0.246860 4.497752 0
M  V30 22 C -1.219876 1.308785 3.493068 0
M  V30 23 C -0.558096 1.817481 2.375776 0
M  V30 24 F 0.652150 2.386909 2.454739 0
M  V30 25 C 1.122743 -0.679602 0.120834 0
M  V30 26 N 1.960158 -1.665791 0.548636 0
M  V30 27 H -1.156298 -4.284266 1.805267 0
M  V30 28 H 0.010682 -3.048234 2.444787 0
M  V30 29 H -1.144563 -2.611814 1.109347 0
M  V30 30 H 0.811070 -4.841229 0.823538 0
M  V30 31 H -0.889861 -3.120614 -0.866672 0
M  V30 32 H 0.753923 -3.497531 -1.616897 0
M  V30 33 H -0.354364 -4.768361 -1.118141 0
M  V30 34 H 4.759033 0.079420 1.015309 0
M  V30 35 H 3.241711 1.891882 0.235242 0
M  V30 36 H 0.077081 3.788291 -2.801645 0
M  V30 37 H -4.026390 0.198719 2.069051 0
M  V30 38 H -0.766917 1.362833 4.459611 0
M  V30 39 H 0.120567 -0.927810 -0.118239 0
M  V30 END ATOM
M  V30 BEGIN BOND
M  V30 1 1 1 2
M  V30 2 1 2 3
M  V30 3 1 2 4
M  V30 4 2 4 5
M  V30 5 1 5 6
M  V30 6 2 6 7
M  V30 7 1 7 8
M  V30 8 2 8 9
M  V30 9 1 9 10
M  V30 10 1 10 11
M  V30 11 1 11 12
M  V30 12 1 12 13
M  V30 13 2 13 14
M  V30 14 1 14 15
M  V30 15 1 15 16
M  V30 16 2 16 17
M  V30 17 1 17 18
M  V30 18 1 17 19
M  V30 19 2 19 20
M  V30 20 1 20 21
M  V30 21 1 20 22
M  V30 22 2 22 23
M  V30 23 1 23 24
M  V30 24 2 10 25
M  V30 25 1 25 26
M  V30 26 1 26 4
M  V30 27 1 26 7
M  V30 28 2 15 11
M  V30 29 1 23 16
M  V30 30 1 1 27
M  V30 31 1 1 28
M  V30 32 1 1 29
M  V30 33 1 2 30
M  V30 34 1 3 31
M  V30 35 1 3 32
M  V30 36 1 3 33
M  V30 37 1 8 34
M  V30 38 1 9 35
M  V30 39 1 13 36
M  V30 40 1 19 37
M  V30 41 1 22 38
M  V30 42 1 25 39
M  V30 END BOND
M  V30 END CTAB
M  END
>  <Dataset>  (281) 
ChEMBL_Kinases

>  <Ligand_Instance>  (281) 
nan

>  <PDB_ID>  (281) 
nan

>  <Standardized_SMILES>  (281) 
CC(C)c1nnc2ccc(-c3ocnc3-c3c(F)cc(F)cc3F)cn12

>  <Name>  (281) 
nan

>  <Pocket>  (281) 
nan

>  <ATP_Site>  (281) 
nan

>  <Peripheral>  (281) 
nan

>  <Num_H_Atoms_ProtBoundConf>  (281) 
nan

>  <Num_Resolved_Atoms>  (281) 
nan

>  <Num_Not_Resolved_Atoms>  (281) 
nan

$$$$
CHEMBL210035
     RDKit          3D

  0  0  0  0  0  0  0  0  0  0999 V3000
M  V30 BEGIN CTAB
M  V30 COUNTS 45 49 0 0 0
M  V30 BEGIN ATOM
M  V30 1 O -0.469698 -3.412001 -1.740308 0
M  V30 2 C 0.494899 -2.555398 -1.189524 0
M  V30 3 N 1.731112 -2.874167 -1.558454 0
M  V30 4 C 2.784524 -2.170438 -1.133721 0
M  V30 5 C 4.036876 -2.553046 -1.563138 0
M  V30 6 C 5.126572 -1.827424 -1.140525 0
M  V30 7 C 4.908967 -0.751987 -0.307380 0
M  V30 8 Cl 6.296565 0.167024 0.226600 0
M  V30 9 C 3.625767 -0.440116 0.072627 0
M  V30 10 C 2.491387 -1.114968 -0.305266 0
M  V30 11 C 1.217731 -0.772154 0.085386 0
M  V30 12 N 1.101167 0.310009 0.941839 0
M  V30 13 C 1.473917 1.345003 1.805166 0 CFG=2
M  V30 14 C 2.155519 0.890602 3.110421 0
M  V30 15 C 2.289657 2.266786 3.746419 0
M  V30 16 N 1.114782 3.008871 3.306580 0
M  V30 17 C 0.321025 2.094518 2.510739 0
M  V30 18 C 0.149390 -1.501667 -0.354519 0
M  V30 19 C -1.233437 -1.359271 0.014159 0
M  V30 20 N -2.183739 -2.137746 -0.523423 0
M  V30 21 C -3.397700 -1.910309 -0.051147 0
M  V30 22 C -4.578655 -2.548678 -0.407601 0
M  V30 23 C -5.722351 -2.108144 0.252068 0
M  V30 24 C -5.645492 -1.095598 1.196841 0
M  V30 25 C -4.412876 -0.503361 1.498581 0
M  V30 26 C -3.268620 -0.908707 0.872177 0
M  V30 27 N -1.962379 -0.639191 0.852498 0
M  V30 28 H -0.967817 -3.025520 -2.556509 0
M  V30 29 H 4.137826 -3.410694 -2.219691 0
M  V30 30 H 6.083422 -2.168318 -1.504811 0
M  V30 31 H 3.583598 0.413054 0.701476 0
M  V30 32 H 0.147085 0.615707 0.941776 0
M  V30 33 H 2.160999 2.112399 1.380812 0
M  V30 34 H 1.396884 0.359228 3.721491 0
M  V30 35 H 3.076235 0.350506 2.977097 0
M  V30 36 H 3.176837 2.738053 3.264343 0
M  V30 37 H 2.416154 2.245355 4.832315 0
M  V30 38 H 1.378503 3.802676 2.664206 0
M  V30 39 H -0.145489 1.367237 3.181036 0
M  V30 40 H -0.326723 2.585020 1.795347 0
M  V30 41 H -4.573171 -3.332019 -1.152341 0
M  V30 42 H -6.669103 -2.572483 0.011322 0
M  V30 43 H -6.520972 -0.736239 1.722823 0
M  V30 44 H -4.293022 0.300785 2.236521 0
M  V30 45 H -1.677325 0.083808 1.505838 0
M  V30 END ATOM
M  V30 BEGIN BOND
M  V30 1 1 1 2
M  V30 2 2 2 3
M  V30 3 1 3 4
M  V30 4 2 4 5
M  V30 5 1 5 6
M  V30 6 2 6 7
M  V30 7 1 7 8
M  V30 8 1 7 9
M  V30 9 2 9 10
M  V30 10 1 10 11
M  V30 11 1 11 12
M  V30 12 1 12 13
M  V30 13 1 13 14
M  V30 14 1 14 15
M  V30 15 1 15 16
M  V30 16 1 16 17
M  V30 17 2 11 18
M  V30 18 1 18 19
M  V30 19 2 19 20
M  V30 20 1 20 21
M  V30 21 2 21 22
M  V30 22 1 22 23
M  V30 23 2 23 24
M  V30 24 1 24 25
M  V30 25 2 25 26
M  V30 26 1 26 27
M  V30 27 1 18 2
M  V30 28 1 27 19
M  V30 29 1 10 4
M  V30 30 1 17 13
M  V30 31 1 26 21
M  V30 32 1 1 28
M  V30 33 1 5 29
M  V30 34 1 6 30
M  V30 35 1 9 31
M  V30 36 1 12 32
M  V30 37 1 13 33 CFG=3
M  V30 38 1 14 34
M  V30 39 1 14 35
M  V30 40 1 15 36
M  V30 41 1 15 37
M  V30 42 1 16 38
M  V30 43 1 17 39
M  V30 44 1 17 40
M  V30 45 1 22 41
M  V30 46 1 23 42
M  V30 47 1 24 43
M  V30 48 1 25 44
M  V30 49 1 27 45
M  V30 END BOND
M  V30 END CTAB
M  END
>  <Dataset>  (282) 
ChEMBL_Kinases

>  <Ligand_Instance>  (282) 
nan

>  <PDB_ID>  (282) 
nan

>  <Standardized_SMILES>  (282) 
Oc1nc2ccc(Cl)cc2c(N[C@@H]2CCNC2)c1-c1nc2ccccc2[nH]1

>  <Name>  (282) 
nan

>  <Pocket>  (282) 
nan

>  <ATP_Site>  (282) 
nan

>  <Peripheral>  (282) 
nan

>  <Num_H_Atoms_ProtBoundConf>  (282) 
nan

>  <Num_Resolved_Atoms>  (282) 
nan

>  <Num_Not_Resolved_Atoms>  (282) 
nan

$$$$
CHEMBL210034
     RDKit          3D

  0  0  0  0  0  0  0  0  0  0999 V3000
M  V30 BEGIN CTAB
M  V30 COUNTS 74 79 0 0 0
M  V30 BEGIN ATOM
M  V30 1 C 3.329701 -0.743874 -1.563359 0
M  V30 2 C 3.889036 0.521437 -2.170431 0
M  V30 3 C 2.950364 0.932277 -3.284500 0
M  V30 4 C 5.229395 0.149684 -2.765594 0
M  V30 5 C 6.203628 -0.382292 -1.812935 0
M  V30 6 C 6.322845 -1.734748 -1.558513 0
M  V30 7 C 7.217819 -2.293416 -0.669200 0
M  V30 8 C 8.073951 -1.458354 0.035713 0
M  V30 9 C 8.013048 -0.096468 -0.165790 0
M  V30 10 C 7.089410 0.376799 -1.072628 0
M  V30 11 C 4.030851 1.658913 -1.219719 0
M  V30 12 C 4.582294 2.829358 -1.991352 0
M  V30 13 O 5.595253 3.155039 -2.692138 0
M  V30 14 N 3.641601 3.921311 -1.888795 0
M  V30 15 C 2.529773 3.527829 -1.092656 0
M  V30 16 C 1.356685 4.127103 -0.650406 0
M  V30 17 C 0.422702 3.497585 0.146637 0
M  V30 18 C 0.682125 2.178663 0.525797 0
M  V30 19 C -0.317494 1.533875 1.367866 0
M  V30 20 C -1.003947 2.353698 2.240743 0
M  V30 21 N -1.942294 1.826558 3.047108 0
M  V30 22 C -2.227628 0.515868 3.022051 0
M  V30 23 C -1.604584 -0.386653 2.191927 0
M  V30 24 O -1.672048 -1.711994 1.944445 0
M  V30 25 C -2.429175 -2.740461 2.435603 0
M  V30 26 C -3.916822 -2.560000 2.182400 0 CFG=1
M  V30 27 N -4.097689 -2.482720 0.765671 0
M  V30 28 C -4.685833 -3.750061 2.741951 0
M  V30 29 C -6.135975 -3.637860 2.529522 0
M  V30 30 C -6.966462 -3.191737 3.560060 0
M  V30 31 N -8.244096 -3.148672 3.129865 0
M  V30 32 C -8.304743 -3.551102 1.843314 0
M  V30 33 C -9.317047 -3.709319 0.917148 0
M  V30 34 C -9.041960 -4.163243 -0.362601 0
M  V30 35 C -7.715333 -4.454947 -0.686007 0
M  V30 36 C -6.701998 -4.297071 0.239133 0
M  V30 37 C -7.006865 -3.842936 1.503973 0
M  V30 38 C -0.623893 0.165002 1.349886 0
M  V30 39 C 1.846237 1.580295 0.088126 0
M  V30 40 C 2.774146 2.222308 -0.710672 0
M  V30 41 H 3.511854 -1.620346 -2.231274 0
M  V30 42 H 3.777659 -0.997441 -0.585723 0
M  V30 43 H 2.198525 -0.709434 -1.532321 0
M  V30 44 H 1.880003 0.823736 -2.990507 0
M  V30 45 H 3.057261 1.994929 -3.578779 0
M  V30 46 H 3.119145 0.281893 -4.179529 0
M  V30 47 H 5.025877 -0.693978 -3.491479 0
M  V30 48 H 5.653835 0.941374 -3.416649 0
M  V30 49 H 5.719384 -2.470687 -2.044113 0
M  V30 50 H 7.305632 -3.352282 -0.474922 0
M  V30 51 H 8.791672 -1.847484 0.742760 0
M  V30 52 H 8.673829 0.551153 0.378288 0
M  V30 53 H 7.091372 1.451235 -1.184711 0
M  V30 54 H 4.776463 1.463650 -0.422708 0
M  V30 55 H 3.608407 4.914842 -2.268053 0
M  V30 56 H 1.147830 5.147942 -0.939035 0
M  V30 57 H -0.482254 4.012492 0.466689 0
M  V30 58 H -0.891777 3.411313 2.378037 0
M  V30 59 H -2.957166 0.037920 3.645080 0
M  V30 60 H -2.157645 -3.681737 1.871805 0
M  V30 61 H -2.231430 -3.009639 3.495962 0
M  V30 62 H -4.241406 -1.657549 2.700594 0
M  V30 63 H -3.246951 -2.760941 0.231625 0
M  V30 64 H -4.494986 -1.584421 0.417029 0
M  V30 65 H -4.436802 -3.943964 3.793859 0
M  V30 66 H -4.344799 -4.682525 2.199162 0
M  V30 67 H -6.761191 -2.895094 4.580420 0
M  V30 68 H -9.115817 -2.861013 3.644582 0
M  V30 69 H -10.328449 -3.457580 1.253621 0
M  V30 70 H -9.884867 -4.255006 -1.010723 0
M  V30 71 H -7.588659 -4.801205 -1.698387 0
M  V30 72 H -5.701840 -4.544602 -0.063409 0
M  V30 73 H 0.011813 -0.332917 0.603322 0
M  V30 74 H 1.926711 0.576485 0.449307 0
M  V30 END ATOM
M  V30 BEGIN BOND
M  V30 1 1 1 2
M  V30 2 1 2 3
M  V30 3 1 2 4
M  V30 4 1 4 5
M  V30 5 2 5 6
M  V30 6 1 6 7
M  V30 7 2 7 8
M  V30 8 1 8 9
M  V30 9 2 9 10
M  V30 10 1 2 11
M  V30 11 1 11 12
M  V30 12 2 12 13
M  V30 13 1 12 14
M  V30 14 1 14 15
M  V30 15 2 15 16
M  V30 16 1 16 17
M  V30 17 2 17 18
M  V30 18 1 18 19
M  V30 19 2 19 20
M  V30 20 1 20 21
M  V30 21 2 21 22
M  V30 22 1 22 23
M  V30 23 1 23 24
M  V30 24 1 24 25
M  V30 25 1 25 26
M  V30 26 1 26 27
M  V30 27 1 26 28
M  V30 28 1 28 29
M  V30 29 2 29 30
M  V30 30 1 30 31
M  V30 31 1 31 32
M  V30 32 2 32 33
M  V30 33 1 33 34
M  V30 34 2 34 35
M  V30 35 1 35 36
M  V30 36 2 36 37
M  V30 37 2 23 38
M  V30 38 1 18 39
M  V30 39 2 39 40
M  V30 40 1 10 5
M  V30 41 1 40 11
M  V30 42 1 40 15
M  V30 43 1 38 19
M  V30 44 1 37 29
M  V30 45 1 37 32
M  V30 46 1 1 41
M  V30 47 1 1 42
M  V30 48 1 1 43
M  V30 49 1 3 44
M  V30 50 1 3 45
M  V30 51 1 3 46
M  V30 52 1 4 47
M  V30 53 1 4 48
M  V30 54 1 6 49
M  V30 55 1 7 50
M  V30 56 1 8 51
M  V30 57 1 9 52
M  V30 58 1 10 53
M  V30 59 1 11 54
M  V30 60 1 14 55
M  V30 61 1 16 56
M  V30 62 1 17 57
M  V30 63 1 20 58
M  V30 64 1 22 59
M  V30 65 1 25 60
M  V30 66 1 25 61
M  V30 67 1 26 62 CFG=1
M  V30 68 1 27 63
M  V30 69 1 27 64
M  V30 70 1 28 65
M  V30 71 1 28 66
M  V30 72 1 30 67
M  V30 73 1 31 68
M  V30 74 1 33 69
M  V30 75 1 34 70
M  V30 76 1 35 71
M  V30 77 1 36 72
M  V30 78 1 38 73
M  V30 79 1 39 74
M  V30 END BOND
M  V30 END CTAB
M  END
>  <Dataset>  (283) 
ChEMBL_Kinases

>  <Ligand_Instance>  (283) 
nan

>  <PDB_ID>  (283) 
nan

>  <Standardized_SMILES>  (283) 
CC(C)(Cc1ccccc1)C1C(=O)Nc2ccc(-c3cncc(OC[C@@H](N)Cc4c[nH]c5ccccc45)c3)cc21

>  <Name>  (283) 
nan

>  <Pocket>  (283) 
nan

>  <ATP_Site>  (283) 
nan

>  <Peripheral>  (283) 
nan

>  <Num_H_Atoms_ProtBoundConf>  (283) 
nan

>  <Num_Resolved_Atoms>  (283) 
nan

>  <Num_Not_Resolved_Atoms>  (283) 
nan

$$$$
CHEMBL210020
     RDKit          3D

  0  0  0  0  0  0  0  0  0  0999 V3000
M  V30 BEGIN CTAB
M  V30 COUNTS 48 51 0 0 0
M  V30 BEGIN ATOM
M  V30 1 N 0.761440 -4.426725 3.295692 0
M  V30 2 C -0.293702 -4.430800 2.298718 0 CFG=2
M  V30 3 C 0.114002 -3.703009 1.046158 0
M  V30 4 O 0.436592 -2.354924 1.278577 0
M  V30 5 C 0.830621 -1.559979 0.209147 0
M  V30 6 C 0.946665 -1.955672 -1.107670 0
M  V30 7 N 1.342326 -1.078587 -2.055765 0
M  V30 8 C 1.629833 0.198004 -1.727406 0
M  V30 9 C 1.539122 0.674675 -0.431908 0
M  V30 10 C 1.848321 2.057254 -0.063100 0
M  V30 11 C 2.358799 2.255649 1.206626 0
M  V30 12 C 2.682328 3.545612 1.642254 0
M  V30 13 C 2.463365 4.574966 0.744328 0
M  V30 14 C 2.761551 5.871235 1.111819 0
M  V30 15 N 2.592121 6.953210 0.326625 0
M  V30 16 C 2.098013 6.794387 -0.912937 0
M  V30 17 C 1.773217 5.508828 -1.353296 0
M  V30 18 C 1.951463 4.411348 -0.540020 0
M  V30 19 C 1.645503 3.116574 -0.928293 0
M  V30 20 C 1.127407 -0.250548 0.534249 0
M  V30 21 C -1.548490 -3.890832 2.907037 0
M  V30 22 C -2.669691 -3.873152 1.920557 0
M  V30 23 C -2.971425 -2.833262 1.086321 0
M  V30 24 C -4.024824 -2.878517 0.193670 0
M  V30 25 C -4.804481 -4.029420 0.146991 0
M  V30 26 C -4.559907 -5.115354 0.956665 0
M  V30 27 C -3.492492 -4.997679 1.821794 0
M  V30 28 H 0.407215 -4.763540 4.216867 0
M  V30 29 H 0.962891 -3.396608 3.462169 0
M  V30 30 H -0.474714 -5.490279 2.023685 0
M  V30 31 H -0.763912 -3.780053 0.344746 0
M  V30 32 H 0.964964 -4.217405 0.566712 0
M  V30 33 H 0.699694 -2.996564 -1.301466 0
M  V30 34 H 1.943937 0.893016 -2.481955 0
M  V30 35 H 2.547399 1.485897 1.943631 0
M  V30 36 H 3.085803 3.807370 2.612693 0
M  V30 37 H 3.169670 6.074667 2.112820 0
M  V30 38 H 1.970249 7.655260 -1.519982 0
M  V30 39 H 1.374567 5.353922 -2.344399 0
M  V30 40 H 1.245103 2.943719 -1.918922 0
M  V30 41 H 1.059579 0.130258 1.542696 0
M  V30 42 H -1.859724 -4.555885 3.736665 0
M  V30 43 H -1.426113 -2.873406 3.332208 0
M  V30 44 H -2.358543 -1.958168 1.139635 0
M  V30 45 H -4.268421 -2.071169 -0.462353 0
M  V30 46 H -5.653856 -4.132382 -0.535791 0
M  V30 47 H -5.143875 -6.023630 0.947200 0
M  V30 48 H -3.275566 -5.835513 2.471032 0
M  V30 END ATOM
M  V30 BEGIN BOND
M  V30 1 1 1 2
M  V30 2 1 2 3
M  V30 3 1 3 4
M  V30 4 1 4 5
M  V30 5 2 5 6
M  V30 6 1 6 7
M  V30 7 2 7 8
M  V30 8 1 8 9
M  V30 9 1 9 10
M  V30 10 2 10 11
M  V30 11 1 11 12
M  V30 12 2 12 13
M  V30 13 1 13 14
M  V30 14 2 14 15
M  V30 15 1 15 16
M  V30 16 2 16 17
M  V30 17 1 17 18
M  V30 18 2 18 19
M  V30 19 2 9 20
M  V30 20 1 2 21
M  V30 21 1 21 22
M  V30 22 2 22 23
M  V30 23 1 23 24
M  V30 24 2 24 25
M  V30 25 1 25 26
M  V30 26 2 26 27
M  V30 27 1 20 5
M  V30 28 1 27 22
M  V30 29 1 19 10
M  V30 30 1 18 13
M  V30 31 1 1 28
M  V30 32 1 1 29
M  V30 33 1 2 30 CFG=3
M  V30 34 1 3 31
M  V30 35 1 3 32
M  V30 36 1 6 33
M  V30 37 1 8 34
M  V30 38 1 11 35
M  V30 39 1 12 36
M  V30 40 1 14 37
M  V30 41 1 16 38
M  V30 42 1 17 39
M  V30 43 1 19 40
M  V30 44 1 20 41
M  V30 45 1 21 42
M  V30 46 1 21 43
M  V30 47 1 23 44
M  V30 48 1 24 45
M  V30 49 1 25 46
M  V30 50 1 26 47
M  V30 51 1 27 48
M  V30 END BOND
M  V30 END CTAB
M  END
>  <Dataset>  (284) 
ChEMBL_Kinases

>  <Ligand_Instance>  (284) 
nan

>  <PDB_ID>  (284) 
nan

>  <Standardized_SMILES>  (284) 
N[C@H](COc1cncc(-c2ccc3cnccc3c2)c1)Cc1ccccc1

>  <Name>  (284) 
nan

>  <Pocket>  (284) 
nan

>  <ATP_Site>  (284) 
nan

>  <Peripheral>  (284) 
nan

>  <Num_H_Atoms_ProtBoundConf>  (284) 
nan

>  <Num_Resolved_Atoms>  (284) 
nan

>  <Num_Not_Resolved_Atoms>  (284) 
nan

$$$$
CHEMBL209982
     RDKit          3D

  0  0  0  0  0  0  0  0  0  0999 V3000
M  V30 BEGIN CTAB
M  V30 COUNTS 45 49 0 0 0
M  V30 BEGIN ATOM
M  V30 1 O 0.422422 -4.247700 1.717545 0
M  V30 2 C 1.140220 -3.076077 1.465364 0
M  V30 3 N 2.451572 -3.285746 1.406284 0
M  V30 4 C 3.306940 -2.286278 1.174387 0
M  V30 5 C 4.654560 -2.569683 1.134384 0
M  V30 6 C 5.541432 -1.542015 0.908396 0
M  V30 7 C 5.031868 -0.275314 0.733225 0
M  V30 8 Cl 6.151123 1.035232 0.446147 0
M  V30 9 C 3.670972 -0.074701 0.787423 0
M  V30 10 C 2.731882 -1.051101 1.007030 0
M  V30 11 C 1.377908 -0.824019 1.066445 0
M  V30 12 N 0.945068 0.487484 0.852027 0
M  V30 13 C 1.047072 1.849129 0.502507 0 CFG=1
M  V30 14 C 1.385699 2.090255 -0.979629 0
M  V30 15 C 1.092150 3.578628 -1.089866 0
M  V30 16 N 0.191982 3.894155 -0.018365 0
M  V30 17 C -0.277802 2.638415 0.526024 0
M  V30 18 C 0.508149 -1.856630 1.302717 0
M  V30 19 C -0.929848 -1.834609 1.304937 0
M  V30 20 N -1.644099 -2.932962 1.582340 0
M  V30 21 C -2.954142 -2.754890 1.500517 0
M  V30 22 C -3.941830 -3.701277 1.730202 0
M  V30 23 C -5.255745 -3.244643 1.573057 0
M  V30 24 C -5.501966 -1.916694 1.208545 0
M  V30 25 C -4.438598 -1.031320 0.997287 0
M  V30 26 C -3.138889 -1.447228 1.143096 0
M  V30 27 N -1.900176 -0.967950 1.045475 0
M  V30 28 H 0.299784 -4.956018 0.988125 0
M  V30 29 H 4.980892 -3.598245 1.282550 0
M  V30 30 H 6.584701 -1.814926 0.885926 0
M  V30 31 H 3.396170 0.940701 0.653605 0
M  V30 32 H -0.003969 0.577445 1.166256 0
M  V30 33 H 1.711546 2.451740 1.169571 0
M  V30 34 H 0.591514 1.550054 -1.545239 0
M  V30 35 H 2.397326 1.833817 -1.252986 0
M  V30 36 H 2.076111 4.100526 -1.011198 0
M  V30 37 H 0.703510 3.849439 -2.102024 0
M  V30 38 H 0.789793 4.324763 0.744892 0
M  V30 39 H -0.656820 2.762834 1.554998 0
M  V30 40 H -1.007673 2.135304 -0.149985 0
M  V30 41 H -3.689120 -4.709658 2.008768 0
M  V30 42 H -6.072581 -3.938447 1.739038 0
M  V30 43 H -6.508662 -1.544617 1.082142 0
M  V30 44 H -4.578684 0.007064 0.713586 0
M  V30 45 H -1.852926 0.002763 0.764619 0
M  V30 END ATOM
M  V30 BEGIN BOND
M  V30 1 1 1 2
M  V30 2 2 2 3
M  V30 3 1 3 4
M  V30 4 2 4 5
M  V30 5 1 5 6
M  V30 6 2 6 7
M  V30 7 1 7 8
M  V30 8 1 7 9
M  V30 9 2 9 10
M  V30 10 1 10 11
M  V30 11 1 11 12
M  V30 12 1 12 13
M  V30 13 1 13 14
M  V30 14 1 14 15
M  V30 15 1 15 16
M  V30 16 1 16 17
M  V30 17 2 11 18
M  V30 18 1 18 19
M  V30 19 2 19 20
M  V30 20 1 20 21
M  V30 21 2 21 22
M  V30 22 1 22 23
M  V30 23 2 23 24
M  V30 24 1 24 25
M  V30 25 2 25 26
M  V30 26 1 26 27
M  V30 27 1 18 2
M  V30 28 1 27 19
M  V30 29 1 10 4
M  V30 30 1 17 13
M  V30 31 1 26 21
M  V30 32 1 1 28
M  V30 33 1 5 29
M  V30 34 1 6 30
M  V30 35 1 9 31
M  V30 36 1 12 32
M  V30 37 1 13 33 CFG=1
M  V30 38 1 14 34
M  V30 39 1 14 35
M  V30 40 1 15 36
M  V30 41 1 15 37
M  V30 42 1 16 38
M  V30 43 1 17 39
M  V30 44 1 17 40
M  V30 45 1 22 41
M  V30 46 1 23 42
M  V30 47 1 24 43
M  V30 48 1 25 44
M  V30 49 1 27 45
M  V30 END BOND
M  V30 END CTAB
M  END
>  <Dataset>  (285) 
ChEMBL_Kinases

>  <Ligand_Instance>  (285) 
nan

>  <PDB_ID>  (285) 
nan

>  <Standardized_SMILES>  (285) 
Oc1nc2ccc(Cl)cc2c(N[C@H]2CCNC2)c1-c1nc2ccccc2[nH]1

>  <Name>  (285) 
nan

>  <Pocket>  (285) 
nan

>  <ATP_Site>  (285) 
nan

>  <Peripheral>  (285) 
nan

>  <Num_H_Atoms_ProtBoundConf>  (285) 
nan

>  <Num_Resolved_Atoms>  (285) 
nan

>  <Num_Not_Resolved_Atoms>  (285) 
nan

$$$$
CHEMBL209952
     RDKit          3D

  0  0  0  0  0  0  0  0  0  0999 V3000
M  V30 BEGIN CTAB
M  V30 COUNTS 44 46 0 0 0
M  V30 BEGIN ATOM
M  V30 1 C 0.278765 -5.098211 -3.049865 0
M  V30 2 N 1.662038 -5.387957 -3.360589 0
M  V30 3 C 2.667537 -4.504868 -2.880629 0
M  V30 4 N 3.976713 -4.696793 -3.121837 0
M  V30 5 C 4.929112 -3.869208 -2.672893 0
M  V30 6 C 4.615886 -2.754662 -1.925279 0
M  V30 7 C 3.278777 -2.566027 -1.683686 0
M  V30 8 C 2.769103 -1.398085 -0.883936 0
M  V30 9 C 3.462378 -0.374848 -0.285318 0
M  V30 10 C 2.716311 0.539224 0.371737 0
M  V30 11 C 1.396494 0.441672 0.426961 0
M  V30 12 C 0.317184 1.230177 1.032690 0
M  V30 13 O -0.857700 0.819392 0.872558 0
M  V30 14 N 0.487184 2.415275 1.782782 0
M  V30 15 C -0.344808 3.327862 2.461887 0
M  V30 16 C -1.128683 2.860021 3.645545 0 CFG=1
M  V30 17 N -1.931166 3.977591 4.193478 0
M  V30 18 C -1.983942 1.704569 3.420410 0
M  V30 19 C -1.583521 0.445335 3.888646 0
M  V30 20 C -2.488824 -0.570189 3.653092 0
M  V30 21 C -3.699279 -0.407032 3.014032 0
M  V30 22 Cl -4.813599 -1.730311 2.739736 0
M  V30 23 C -4.045574 0.873388 2.568302 0
M  V30 24 C -3.198230 1.941492 2.763715 0
M  V30 25 Cl -3.608479 3.550523 2.215917 0
M  V30 26 S 1.035439 -1.013564 -0.480348 0
M  V30 27 N 2.361144 -3.407714 -2.144858 0
M  V30 28 H 0.147894 -5.380686 -1.966192 0
M  V30 29 H -0.441199 -5.638672 -3.667866 0
M  V30 30 H 0.045665 -4.011050 -3.159742 0
M  V30 31 H 1.979811 -6.208815 -3.918760 0
M  V30 32 H 5.999826 -3.995293 -2.850241 0
M  V30 33 H 5.258017 -1.999513 -1.495298 0
M  V30 34 H 4.540435 -0.370635 -0.379145 0
M  V30 35 H 3.154042 1.404245 0.891072 0
M  V30 36 H 1.543599 2.609492 1.798119 0
M  V30 37 H -1.028632 3.828373 1.715394 0
M  V30 38 H 0.317786 4.156203 2.859322 0
M  V30 39 H -0.424848 2.621066 4.491601 0
M  V30 40 H -2.762729 3.614371 4.701000 0
M  V30 41 H -1.355962 4.557153 4.847317 0
M  V30 42 H -0.642420 0.327479 4.383601 0
M  V30 43 H -2.221074 -1.565243 3.998786 0
M  V30 44 H -4.982585 1.033653 2.066373 0
M  V30 END ATOM
M  V30 BEGIN BOND
M  V30 1 1 1 2
M  V30 2 1 2 3
M  V30 3 2 3 4
M  V30 4 1 4 5
M  V30 5 2 5 6
M  V30 6 1 6 7
M  V30 7 1 7 8
M  V30 8 2 8 9
M  V30 9 1 9 10
M  V30 10 2 10 11
M  V30 11 1 11 12
M  V30 12 2 12 13
M  V30 13 1 12 14
M  V30 14 1 14 15
M  V30 15 1 15 16
M  V30 16 1 16 17
M  V30 17 1 16 18
M  V30 18 2 18 19
M  V30 19 1 19 20
M  V30 20 2 20 21
M  V30 21 1 21 22
M  V30 22 1 21 23
M  V30 23 2 23 24
M  V30 24 1 24 25
M  V30 25 1 11 26
M  V30 26 2 7 27
M  V30 27 1 27 3
M  V30 28 1 26 8
M  V30 29 1 24 18
M  V30 30 1 1 28
M  V30 31 1 1 29
M  V30 32 1 1 30
M  V30 33 1 2 31
M  V30 34 1 5 32
M  V30 35 1 6 33
M  V30 36 1 9 34
M  V30 37 1 10 35
M  V30 38 1 14 36
M  V30 39 1 15 37
M  V30 40 1 15 38
M  V30 41 1 16 39 CFG=1
M  V30 42 1 17 40
M  V30 43 1 17 41
M  V30 44 1 19 42
M  V30 45 1 20 43
M  V30 46 1 23 44
M  V30 END BOND
M  V30 END CTAB
M  END
>  <Dataset>  (286) 
ChEMBL_Kinases

>  <Ligand_Instance>  (286) 
nan

>  <PDB_ID>  (286) 
nan

>  <Standardized_SMILES>  (286) 
CNc1nccc(-c2ccc(C(=O)NC[C@@H](N)c3ccc(Cl)cc3Cl)s2)n1

>  <Name>  (286) 
nan

>  <Pocket>  (286) 
nan

>  <ATP_Site>  (286) 
nan

>  <Peripheral>  (286) 
nan

>  <Num_H_Atoms_ProtBoundConf>  (286) 
nan

>  <Num_Resolved_Atoms>  (286) 
nan

>  <Num_Not_Resolved_Atoms>  (286) 
nan

$$$$
CHEMBL209938
     RDKit          3D

  0  0  0  0  0  0  0  0  0  0999 V3000
M  V30 BEGIN CTAB
M  V30 COUNTS 61 62 0 0 0
M  V30 BEGIN ATOM
M  V30 1 C -0.028328 -6.557221 3.970600 0
M  V30 2 O 1.355292 -6.312894 4.038950 0
M  V30 3 C 1.943881 -5.218551 3.411794 0
M  V30 4 C 1.242685 -4.286219 2.677283 0
M  V30 5 C 1.842348 -3.207901 2.062460 0
M  V30 6 C 3.225083 -3.040365 2.181512 0
M  V30 7 C 3.973034 -1.941004 1.577979 0
M  V30 8 O 5.198076 -1.815552 1.698322 0
M  V30 9 O 3.273760 -1.009570 0.845073 0
M  V30 10 C 3.832164 0.104483 0.200271 0
M  V30 11 C 2.798861 0.951389 -0.531529 0
M  V30 12 C 3.536526 2.087555 -1.187207 0
M  V30 13 O 2.674340 2.937619 -1.872739 0
M  V30 14 C 1.735614 1.432118 0.431024 0
M  V30 15 C 0.495754 1.352252 -0.404971 0
M  V30 16 C -0.772569 1.708073 -0.236625 0
M  V30 17 C -1.962792 1.629583 -1.042968 0
M  V30 18 C -3.011614 0.790048 -0.359936 0
M  V30 19 C -4.284931 0.733602 -1.205592 0
M  V30 20 C -5.313997 -0.108336 -0.499467 0
M  V30 21 C -4.839123 2.092461 -1.469499 0
M  V30 22 C -2.629568 -0.656098 -0.158021 0
M  V30 23 C -2.322938 -1.395332 -1.411195 0
M  V30 24 C -1.532914 -0.862384 0.844173 0
M  V30 25 C 0.832025 0.724424 -1.699055 0
M  V30 26 O 0.187269 0.625989 -2.749295 0
M  V30 27 O 2.131234 0.206127 -1.525513 0
M  V30 28 C 3.920626 -3.991616 2.927631 0
M  V30 29 C 3.322994 -5.086273 3.553643 0
M  V30 30 H -0.578973 -5.669046 4.332709 0
M  V30 31 H -0.270135 -7.424399 4.593649 0
M  V30 32 H -0.382570 -6.781426 2.947248 0
M  V30 33 H 0.156831 -4.402671 2.573717 0
M  V30 34 H 1.301333 -2.475480 1.487477 0
M  V30 35 H 4.378545 0.763660 0.904537 0
M  V30 36 H 4.573175 -0.177729 -0.578952 0
M  V30 37 H 4.137328 2.602100 -0.418212 0
M  V30 38 H 4.236886 1.647776 -1.902960 0
M  V30 39 H 2.788938 3.877487 -1.654284 0
M  V30 40 H 1.633919 0.793409 1.322760 0
M  V30 41 H 1.844180 2.474118 0.746279 0
M  V30 42 H -0.940404 2.186161 0.746763 0
M  V30 43 H -2.407736 2.675616 -1.065671 0
M  V30 44 H -1.887338 1.227574 -2.064265 0
M  V30 45 H -3.300330 1.223158 0.616555 0
M  V30 46 H -4.020425 0.264796 -2.171123 0
M  V30 47 H -6.353825 0.229365 -0.762150 0
M  V30 48 H -5.272288 -1.168556 -0.786003 0
M  V30 49 H -5.250390 -0.046801 0.612436 0
M  V30 50 H -4.171597 2.687913 -2.142265 0
M  V30 51 H -5.786613 1.954890 -2.031371 0
M  V30 52 H -5.085415 2.641138 -0.549971 0
M  V30 53 H -3.540926 -1.187194 0.291791 0
M  V30 54 H -1.476708 -2.089619 -1.230802 0
M  V30 55 H -2.158488 -0.762543 -2.310736 0
M  V30 56 H -3.179859 -2.044088 -1.677559 0
M  V30 57 H -1.425494 0.030835 1.481209 0
M  V30 58 H -0.567945 -1.172615 0.363000 0
M  V30 59 H -1.772200 -1.739271 1.530018 0
M  V30 60 H 4.995819 -3.903092 3.048094 0
M  V30 61 H 3.932099 -5.782491 4.116411 0
M  V30 END ATOM
M  V30 BEGIN BOND
M  V30 1 1 1 2
M  V30 2 1 2 3
M  V30 3 2 3 4
M  V30 4 1 4 5
M  V30 5 2 5 6
M  V30 6 1 6 7
M  V30 7 2 7 8
M  V30 8 1 7 9
M  V30 9 1 9 10
M  V30 10 1 10 11
M  V30 11 1 11 12
M  V30 12 1 12 13
M  V30 13 1 11 14
M  V30 14 1 14 15
M  V30 15 2 15 16
M  V30 16 1 16 17
M  V30 17 1 17 18
M  V30 18 1 18 19
M  V30 19 1 19 20
M  V30 20 1 19 21
M  V30 21 1 18 22
M  V30 22 1 22 23
M  V30 23 1 22 24
M  V30 24 1 15 25
M  V30 25 2 25 26
M  V30 26 1 25 27
M  V30 27 1 6 28
M  V30 28 2 28 29
M  V30 29 1 29 3
M  V30 30 1 27 11
M  V30 31 1 1 30
M  V30 32 1 1 31
M  V30 33 1 1 32
M  V30 34 1 4 33
M  V30 35 1 5 34
M  V30 36 1 10 35
M  V30 37 1 10 36
M  V30 38 1 12 37
M  V30 39 1 12 38
M  V30 40 1 13 39
M  V30 41 1 14 40
M  V30 42 1 14 41
M  V30 43 1 16 42
M  V30 44 1 17 43
M  V30 45 1 17 44
M  V30 46 1 18 45
M  V30 47 1 19 46
M  V30 48 1 20 47
M  V30 49 1 20 48
M  V30 50 1 20 49
M  V30 51 1 21 50
M  V30 52 1 21 51
M  V30 53 1 21 52
M  V30 54 1 22 53
M  V30 55 1 23 54
M  V30 56 1 23 55
M  V30 57 1 23 56
M  V30 58 1 24 57
M  V30 59 1 24 58
M  V30 60 1 24 59
M  V30 61 1 28 60
M  V30 62 1 29 61
M  V30 END BOND
M  V30 END CTAB
M  END
>  <Dataset>  (287) 
ChEMBL_Kinases

>  <Ligand_Instance>  (287) 
nan

>  <PDB_ID>  (287) 
nan

>  <Standardized_SMILES>  (287) 
COc1ccc(C(=O)OCC2(CO)C/C(=C/CC(C(C)C)C(C)C)C(=O)O2)cc1

>  <Name>  (287) 
nan

>  <Pocket>  (287) 
nan

>  <ATP_Site>  (287) 
nan

>  <Peripheral>  (287) 
nan

>  <Num_H_Atoms_ProtBoundConf>  (287) 
nan

>  <Num_Resolved_Atoms>  (287) 
nan

>  <Num_Not_Resolved_Atoms>  (287) 
nan

$$$$
CHEMBL211084
     RDKit          3D

  0  0  0  0  0  0  0  0  0  0999 V3000
M  V30 BEGIN CTAB
M  V30 COUNTS 52 55 0 0 0
M  V30 BEGIN ATOM
M  V30 1 C 2.090180 -3.685119 3.614813 0
M  V30 2 C 3.471716 -3.478686 3.121752 0
M  V30 3 N 4.589382 -4.089169 3.516516 0
M  V30 4 N 5.648079 -3.647538 2.848955 0
M  V30 5 C 5.281578 -2.716131 1.972619 0
M  V30 6 C 5.843263 -1.905922 1.030120 0
M  V30 7 C 5.170601 -0.998039 0.240455 0
M  V30 8 C 3.784599 -0.898358 0.422332 0
M  V30 9 C 2.969123 0.029449 -0.358906 0
M  V30 10 C 3.239297 0.407354 -1.679629 0
M  V30 11 N 2.427814 1.271157 -2.319355 0
M  V30 12 C 1.334424 1.781303 -1.675011 0
M  V30 13 C 1.008157 1.443091 -0.352823 0
M  V30 14 O -0.115197 2.098024 0.008476 0
M  V30 15 C -0.855109 2.129921 1.157694 0
M  V30 16 C -1.471594 0.904331 1.677936 0
M  V30 17 C -2.442462 0.208236 0.804576 0 CFG=1
M  V30 18 N -2.951531 -0.989456 1.489754 0
M  V30 19 C -3.636066 0.993107 0.400205 0
M  V30 20 C -4.451657 0.070351 -0.471338 0
M  V30 21 C -5.395473 -0.729314 0.099738 0
M  V30 22 C -6.174064 -1.599045 -0.661524 0
M  V30 23 C -5.921335 -1.590541 -2.020937 0
M  V30 24 C -4.972627 -0.789582 -2.611644 0
M  V30 25 C -4.207791 0.067263 -1.849204 0
M  V30 26 C 1.860474 0.556895 0.270839 0
M  V30 27 C 3.187003 -1.700989 1.364428 0
M  V30 28 C 3.896316 -2.598143 2.135570 0
M  V30 29 H 2.055351 -3.777097 4.733971 0
M  V30 30 H 1.428661 -2.830604 3.365469 0
M  V30 31 H 1.715084 -4.635391 3.207872 0
M  V30 32 H 6.652023 -3.943389 2.946104 0
M  V30 33 H 6.925794 -1.980532 0.884792 0
M  V30 34 H 5.663746 -0.373017 -0.498664 0
M  V30 35 H 4.125998 -0.046997 -2.108075 0
M  V30 36 H 0.810783 2.458643 -2.364454 0
M  V30 37 H -0.192379 2.545786 1.973871 0
M  V30 38 H -1.644022 2.924821 1.047318 0
M  V30 39 H -2.019283 1.181696 2.628174 0
M  V30 40 H -0.705771 0.183868 2.020906 0
M  V30 41 H -1.887740 -0.207490 -0.062729 0
M  V30 42 H -3.266807 -0.791568 2.448966 0
M  V30 43 H -2.283597 -1.776431 1.415226 0
M  V30 44 H -4.235756 1.225557 1.313351 0
M  V30 45 H -3.459042 1.878429 -0.218547 0
M  V30 46 H -5.574579 -0.715717 1.175811 0
M  V30 47 H -6.927138 -2.245876 -0.256762 0
M  V30 48 H -6.460443 -2.223090 -2.728817 0
M  V30 49 H -4.763004 -0.769255 -3.660207 0
M  V30 50 H -3.446306 0.728265 -2.220757 0
M  V30 51 H 1.541955 0.355067 1.274311 0
M  V30 52 H 2.103711 -1.606673 1.490152 0
M  V30 END ATOM
M  V30 BEGIN BOND
M  V30 1 1 1 2
M  V30 2 2 2 3
M  V30 3 1 3 4
M  V30 4 1 4 5
M  V30 5 2 5 6
M  V30 6 1 6 7
M  V30 7 2 7 8
M  V30 8 1 8 9
M  V30 9 2 9 10
M  V30 10 1 10 11
M  V30 11 2 11 12
M  V30 12 1 12 13
M  V30 13 1 13 14
M  V30 14 1 14 15
M  V30 15 1 15 16
M  V30 16 1 16 17
M  V30 17 1 17 18
M  V30 18 1 17 19
M  V30 19 1 19 20
M  V30 20 2 20 21
M  V30 21 1 21 22
M  V30 22 2 22 23
M  V30 23 1 23 24
M  V30 24 2 24 25
M  V30 25 2 13 26
M  V30 26 1 8 27
M  V30 27 2 27 28
M  V30 28 1 28 2
M  V30 29 1 28 5
M  V30 30 1 26 9
M  V30 31 1 25 20
M  V30 32 1 1 29
M  V30 33 1 1 30
M  V30 34 1 1 31
M  V30 35 1 4 32
M  V30 36 1 6 33
M  V30 37 1 7 34
M  V30 38 1 10 35
M  V30 39 1 12 36
M  V30 40 1 15 37
M  V30 41 1 15 38
M  V30 42 1 16 39
M  V30 43 1 16 40
M  V30 44 1 17 41 CFG=3
M  V30 45 1 18 42
M  V30 46 1 18 43
M  V30 47 1 19 44
M  V30 48 1 19 45
M  V30 49 1 21 46
M  V30 50 1 22 47
M  V30 51 1 23 48
M  V30 52 1 24 49
M  V30 53 1 25 50
M  V30 54 1 26 51
M  V30 55 1 27 52
M  V30 END BOND
M  V30 END CTAB
M  END
>  <Dataset>  (288) 
ChEMBL_Kinases

>  <Ligand_Instance>  (288) 
nan

>  <PDB_ID>  (288) 
nan

>  <Standardized_SMILES>  (288) 
Cc1n[nH]c2ccc(-c3cncc(OCC[C@@H](N)Cc4ccccc4)c3)cc12

>  <Name>  (288) 
nan

>  <Pocket>  (288) 
nan

>  <ATP_Site>  (288) 
nan

>  <Peripheral>  (288) 
nan

>  <Num_H_Atoms_ProtBoundConf>  (288) 
nan

>  <Num_Resolved_Atoms>  (288) 
nan

>  <Num_Not_Resolved_Atoms>  (288) 
nan

$$$$
CHEMBL209644
     RDKit          3D

  0  0  0  0  0  0  0  0  0  0999 V3000
M  V30 BEGIN CTAB
M  V30 COUNTS 47 51 0 0 0
M  V30 BEGIN ATOM
M  V30 1 C 0.571136 -1.158175 -2.908864 0
M  V30 2 C 1.608441 -1.882417 -2.052893 0
M  V30 3 O 1.916616 -1.144171 -0.913948 0
M  V30 4 C 2.827781 -1.598813 0.005628 0
M  V30 5 C 3.434505 -2.806020 -0.236816 0
M  V30 6 C 4.353540 -3.267512 0.667744 0
M  V30 7 C 4.668137 -2.546663 1.793895 0
M  V30 8 C 4.005488 -1.353041 1.944264 0
M  V30 9 C 3.049115 -0.787689 1.085829 0
M  V30 10 C 2.555774 0.504684 1.473331 0
M  V30 11 N 3.334182 1.379904 2.177794 0
M  V30 12 N 2.680924 2.479620 2.460185 0
M  V30 13 C 1.458577 2.394923 1.970442 0
M  V30 14 C 0.363849 3.228936 1.988231 0
M  V30 15 C -0.850339 2.864142 1.397753 0
M  V30 16 C -0.869273 1.597378 0.792702 0
M  V30 17 C -2.162507 1.284695 0.201228 0
M  V30 18 O -2.632358 1.942618 -0.838079 0
M  V30 19 C -3.809128 1.486456 -1.192894 0
M  V30 20 N -4.120863 0.492623 -0.353781 0
M  V30 21 C -3.101717 0.338260 0.540587 0
M  V30 22 C -2.999457 -0.618503 1.634365 0
M  V30 23 C -2.132746 -1.679605 1.770211 0
M  V30 24 C -2.142233 -2.508246 2.870445 0
M  V30 25 C -3.044321 -2.303365 3.907064 0
M  V30 26 F -2.972900 -3.172718 4.943039 0
M  V30 27 C -3.934330 -1.229753 3.787863 0
M  V30 28 C -3.909008 -0.410091 2.677404 0
M  V30 29 C 0.266743 0.824455 0.816763 0
M  V30 30 N 1.415029 1.191334 1.382522 0
M  V30 31 H 0.815698 -0.059685 -2.962894 0
M  V30 32 H 0.519380 -1.583631 -3.931927 0
M  V30 33 H -0.416070 -1.268640 -2.422438 0
M  V30 34 H 2.501645 -2.082507 -2.694440 0
M  V30 35 H 1.158594 -2.882751 -1.831123 0
M  V30 36 H 3.176073 -3.353001 -1.121670 0
M  V30 37 H 4.820143 -4.218525 0.462101 0
M  V30 38 H 5.394357 -2.919022 2.498559 0
M  V30 39 H 4.305355 -0.830226 2.868091 0
M  V30 40 H 0.516042 4.183467 2.492371 0
M  V30 41 H -1.603478 3.618823 1.494027 0
M  V30 42 H -4.397573 1.862780 -2.016235 0
M  V30 43 H -1.447841 -1.811560 0.945599 0
M  V30 44 H -1.405989 -3.322248 2.872641 0
M  V30 45 H -4.611146 -1.119559 4.622904 0
M  V30 46 H -4.656681 0.397783 2.700091 0
M  V30 47 H 0.092920 -0.099015 0.353929 0
M  V30 END ATOM
M  V30 BEGIN BOND
M  V30 1 1 1 2
M  V30 2 1 2 3
M  V30 3 1 3 4
M  V30 4 2 4 5
M  V30 5 1 5 6
M  V30 6 2 6 7
M  V30 7 1 7 8
M  V30 8 2 8 9
M  V30 9 1 9 10
M  V30 10 2 10 11
M  V30 11 1 11 12
M  V30 12 2 12 13
M  V30 13 1 13 14
M  V30 14 2 14 15
M  V30 15 1 15 16
M  V30 16 1 16 17
M  V30 17 1 17 18
M  V30 18 1 18 19
M  V30 19 2 19 20
M  V30 20 1 20 21
M  V30 21 1 21 22
M  V30 22 2 22 23
M  V30 23 1 23 24
M  V30 24 2 24 25
M  V30 25 1 25 26
M  V30 26 1 25 27
M  V30 27 2 27 28
M  V30 28 2 16 29
M  V30 29 1 29 30
M  V30 30 1 9 4
M  V30 31 1 30 10
M  V30 32 1 30 13
M  V30 33 2 21 17
M  V30 34 1 28 22
M  V30 35 1 1 31
M  V30 36 1 1 32
M  V30 37 1 1 33
M  V30 38 1 2 34
M  V30 39 1 2 35
M  V30 40 1 5 36
M  V30 41 1 6 37
M  V30 42 1 7 38
M  V30 43 1 8 39
M  V30 44 1 14 40
M  V30 45 1 15 41
M  V30 46 1 19 42
M  V30 47 1 23 43
M  V30 48 1 24 44
M  V30 49 1 27 45
M  V30 50 1 28 46
M  V30 51 1 29 47
M  V30 END BOND
M  V30 END CTAB
M  END
>  <Dataset>  (289) 
ChEMBL_Kinases

>  <Ligand_Instance>  (289) 
nan

>  <PDB_ID>  (289) 
nan

>  <Standardized_SMILES>  (289) 
CCOc1ccccc1-c1nnc2ccc(-c3ocnc3-c3ccc(F)cc3)cn12

>  <Name>  (289) 
nan

>  <Pocket>  (289) 
nan

>  <ATP_Site>  (289) 
nan

>  <Peripheral>  (289) 
nan

>  <Num_H_Atoms_ProtBoundConf>  (289) 
nan

>  <Num_Resolved_Atoms>  (289) 
nan

>  <Num_Not_Resolved_Atoms>  (289) 
nan

$$$$
CHEMBL209665
     RDKit          3D

  0  0  0  0  0  0  0  0  0  0999 V3000
M  V30 BEGIN CTAB
M  V30 COUNTS 58 59 0 0 0
M  V30 BEGIN ATOM
M  V30 1 C -1.358657 -3.513470 2.556488 0
M  V30 2 C 0.038025 -2.963779 2.440757 0
M  V30 3 C 0.014055 -1.629911 3.182933 0
M  V30 4 C 0.553140 -2.912638 1.074524 0
M  V30 5 C 1.967177 -2.338062 0.931025 0
M  V30 6 C 2.141651 -0.961075 1.372703 0
M  V30 7 C 2.446709 0.062174 0.541792 0
M  V30 8 C 2.679180 1.543568 0.724415 0
M  V30 9 C 2.346077 2.147627 -0.597209 0
M  V30 10 C 3.371715 3.218753 -0.998980 0
M  V30 11 O 2.978375 3.646810 -2.271889 0
M  V30 12 C 0.994293 2.829064 -0.607231 0
M  V30 13 O -0.076904 1.933960 -0.389820 0
M  V30 14 C -1.399307 2.418271 -0.370685 0
M  V30 15 O -1.616272 3.640433 -0.546431 0
M  V30 16 C -2.528626 1.526979 -0.150122 0
M  V30 17 C -3.784290 2.097760 -0.148620 0
M  V30 18 C -4.935890 1.352336 0.050313 0
M  V30 19 C -4.756938 0.002246 0.247606 0
M  V30 20 O -5.883572 -0.777925 0.450140 0
M  V30 21 C -3.517346 -0.600028 0.252165 0
M  V30 22 C -2.370134 0.172607 0.049333 0
M  V30 23 O 2.466988 1.149705 -1.594397 0
M  V30 24 C 2.637407 -0.075122 -0.921815 0
M  V30 25 O 2.916126 -1.092139 -1.594603 0
M  V30 26 C 0.490552 -4.207832 0.337138 0
M  V30 27 C -0.823813 -4.825696 0.060183 0
M  V30 28 C 1.314203 -4.135724 -0.964330 0
M  V30 29 H -1.694519 -3.316946 3.654042 0
M  V30 30 H -2.070208 -2.914303 1.979951 0
M  V30 31 H -1.466439 -4.582610 2.456747 0
M  V30 32 H 0.709779 -3.670047 3.019290 0
M  V30 33 H -0.917520 -1.664327 3.832525 0
M  V30 34 H 0.825453 -1.530755 3.901038 0
M  V30 35 H -0.175120 -0.823663 2.483093 0
M  V30 36 H -0.078778 -2.128948 0.525818 0
M  V30 37 H 2.392277 -2.533187 -0.040451 0
M  V30 38 H 2.569149 -3.024974 1.630528 0
M  V30 39 H 2.107869 -0.468040 2.334246 0
M  V30 40 H 1.971371 1.912344 1.505213 0
M  V30 41 H 3.728951 1.744517 1.024054 0
M  V30 42 H 3.406147 4.030702 -0.267664 0
M  V30 43 H 4.333456 2.682865 -1.150886 0
M  V30 44 H 2.571565 2.897826 -2.776299 0
M  V30 45 H 0.983046 3.582336 0.186007 0
M  V30 46 H 0.845506 3.371793 -1.562542 0
M  V30 47 H -3.941251 3.160629 -0.302805 0
M  V30 48 H -5.923541 1.788206 0.053537 0
M  V30 49 H -5.925739 -1.727915 0.121742 0
M  V30 50 H -3.354449 -1.641998 0.402573 0
M  V30 51 H -1.350998 -0.158395 0.027472 0
M  V30 52 H 1.072883 -5.009890 0.919780 0
M  V30 53 H -1.037607 -5.779273 0.603247 0
M  V30 54 H -0.822992 -5.225544 -1.038277 0
M  V30 55 H -1.700842 -4.171230 0.155205 0
M  V30 56 H 0.891164 -4.934829 -1.621331 0
M  V30 57 H 2.344368 -4.415352 -0.771489 0
M  V30 58 H 1.147702 -3.195734 -1.512483 0
M  V30 END ATOM
M  V30 BEGIN BOND
M  V30 1 1 1 2
M  V30 2 1 2 3
M  V30 3 1 2 4
M  V30 4 1 4 5
M  V30 5 1 5 6
M  V30 6 2 6 7
M  V30 7 1 7 8
M  V30 8 1 8 9
M  V30 9 1 9 10
M  V30 10 1 10 11
M  V30 11 1 9 12
M  V30 12 1 12 13
M  V30 13 1 13 14
M  V30 14 2 14 15
M  V30 15 1 14 16
M  V30 16 2 16 17
M  V30 17 1 17 18
M  V30 18 2 18 19
M  V30 19 1 19 20
M  V30 20 1 19 21
M  V30 21 2 21 22
M  V30 22 1 9 23
M  V30 23 1 23 24
M  V30 24 2 24 25
M  V30 25 1 4 26
M  V30 26 1 26 27
M  V30 27 1 26 28
M  V30 28 1 24 7
M  V30 29 1 22 16
M  V30 30 1 1 29
M  V30 31 1 1 30
M  V30 32 1 1 31
M  V30 33 1 2 32
M  V30 34 1 3 33
M  V30 35 1 3 34
M  V30 36 1 3 35
M  V30 37 1 4 36
M  V30 38 1 5 37
M  V30 39 1 5 38
M  V30 40 1 6 39
M  V30 41 1 8 40
M  V30 42 1 8 41
M  V30 43 1 10 42
M  V30 44 1 10 43
M  V30 45 1 11 44
M  V30 46 1 12 45
M  V30 47 1 12 46
M  V30 48 1 17 47
M  V30 49 1 18 48
M  V30 50 1 20 49
M  V30 51 1 21 50
M  V30 52 1 22 51
M  V30 53 1 26 52
M  V30 54 1 27 53
M  V30 55 1 27 54
M  V30 56 1 27 55
M  V30 57 1 28 56
M  V30 58 1 28 57
M  V30 59 1 28 58
M  V30 END BOND
M  V30 END CTAB
M  END
>  <Dataset>  (290) 
ChEMBL_Kinases

>  <Ligand_Instance>  (290) 
nan

>  <PDB_ID>  (290) 
nan

>  <Standardized_SMILES>  (290) 
CC(C)C(C/C=C1/CC(CO)(COC(=O)c2ccc(O)cc2)OC1=O)C(C)C

>  <Name>  (290) 
nan

>  <Pocket>  (290) 
nan

>  <ATP_Site>  (290) 
nan

>  <Peripheral>  (290) 
nan

>  <Num_H_Atoms_ProtBoundConf>  (290) 
nan

>  <Num_Resolved_Atoms>  (290) 
nan

>  <Num_Not_Resolved_Atoms>  (290) 
nan

$$$$
CHEMBL209666
     RDKit          3D

  0  0  0  0  0  0  0  0  0  0999 V3000
M  V30 BEGIN CTAB
M  V30 COUNTS 61 62 0 0 0
M  V30 BEGIN ATOM
M  V30 1 C 0.644870 -2.566098 7.200596 0
M  V30 2 O 0.242405 -3.135084 5.992685 0
M  V30 3 C 0.819721 -2.846234 4.742679 0
M  V30 4 C 1.861168 -1.953852 4.592238 0
M  V30 5 C 2.384550 -1.712233 3.340498 0
M  V30 6 C 1.905242 -2.333148 2.213010 0
M  V30 7 C 2.332462 -2.190741 0.831574 0
M  V30 8 C 2.696818 -1.020780 0.361782 0
M  V30 9 C 2.786175 0.336511 0.969328 0
M  V30 10 C 2.730041 1.276114 -0.181616 0
M  V30 11 C 3.906878 2.280025 -0.014055 0
M  V30 12 O 3.960966 3.123837 -1.106962 0
M  V30 13 C 1.451824 2.032348 -0.278710 0
M  V30 14 O 0.301829 1.445430 -0.633445 0
M  V30 15 C -0.606225 0.525325 -0.333589 0
M  V30 16 O -0.348621 -0.101883 0.711160 0
M  V30 17 C -1.696692 0.464640 -1.299390 0
M  V30 18 C -2.749636 -0.558045 -1.118166 0
M  V30 19 C -3.758727 -0.333331 -2.273204 0
M  V30 20 C -4.901461 -1.292560 -2.218075 0
M  V30 21 C -4.174809 1.091706 -2.366477 0
M  V30 22 C -2.336725 -1.993158 -1.285498 0
M  V30 23 C -1.763702 -2.302943 -2.653563 0
M  V30 24 C -1.579718 -2.611017 -0.168892 0
M  V30 25 O 3.059925 0.593131 -1.373543 0
M  V30 26 C 3.146084 -0.769194 -1.016878 0
M  V30 27 O 3.580759 -1.586872 -1.882244 0
M  V30 28 C 0.848516 -3.229248 2.421189 0
M  V30 29 C 0.289474 -3.505982 3.653182 0
M  V30 30 H 1.094633 -1.557800 7.113409 0
M  V30 31 H -0.294696 -2.387958 7.802699 0
M  V30 32 H 1.275834 -3.293212 7.741531 0
M  V30 33 H 2.262273 -1.449302 5.443880 0
M  V30 34 H 3.188506 -1.035568 3.178655 0
M  V30 35 H 2.351306 -3.055180 0.184908 0
M  V30 36 H 3.809172 0.464770 1.442391 0
M  V30 37 H 2.021773 0.471303 1.728817 0
M  V30 38 H 3.823929 2.851365 0.908641 0
M  V30 39 H 4.855594 1.706215 0.018967 0
M  V30 40 H 4.010323 2.647100 -1.962735 0
M  V30 41 H 1.623517 2.899228 -1.013750 0
M  V30 42 H 1.302931 2.607746 0.702787 0
M  V30 43 H -1.349075 0.435019 -2.377161 0
M  V30 44 H -2.235410 1.465321 -1.263662 0
M  V30 45 H -3.323458 -0.473988 -0.184564 0
M  V30 46 H -3.160382 -0.575545 -3.189149 0
M  V30 47 H -5.815389 -0.717144 -2.544742 0
M  V30 48 H -4.782101 -2.148713 -2.910428 0
M  V30 49 H -5.147757 -1.658028 -1.199404 0
M  V30 50 H -5.209438 1.095874 -2.820191 0
M  V30 51 H -3.541376 1.680743 -3.091859 0
M  V30 52 H -4.265193 1.639998 -1.426020 0
M  V30 53 H -3.337572 -2.550462 -1.291105 0
M  V30 54 H -1.060530 -3.157394 -2.522391 0
M  V30 55 H -1.279998 -1.435591 -3.138172 0
M  V30 56 H -2.511719 -2.673911 -3.381076 0
M  V30 57 H -1.813528 -3.726695 -0.191471 0
M  V30 58 H -1.952452 -2.282076 0.797872 0
M  V30 59 H -0.479108 -2.598013 -0.302678 0
M  V30 60 H 0.398842 -3.774508 1.590013 0
M  V30 61 H -0.520659 -4.200876 3.765805 0
M  V30 END ATOM
M  V30 BEGIN BOND
M  V30 1 1 1 2
M  V30 2 1 2 3
M  V30 3 2 3 4
M  V30 4 1 4 5
M  V30 5 2 5 6
M  V30 6 1 6 7
M  V30 7 2 7 8
M  V30 8 1 8 9
M  V30 9 1 9 10
M  V30 10 1 10 11
M  V30 11 1 11 12
M  V30 12 1 10 13
M  V30 13 1 13 14
M  V30 14 1 14 15
M  V30 15 2 15 16
M  V30 16 1 15 17
M  V30 17 1 17 18
M  V30 18 1 18 19
M  V30 19 1 19 20
M  V30 20 1 19 21
M  V30 21 1 18 22
M  V30 22 1 22 23
M  V30 23 1 22 24
M  V30 24 1 10 25
M  V30 25 1 25 26
M  V30 26 2 26 27
M  V30 27 1 6 28
M  V30 28 2 28 29
M  V30 29 1 29 3
M  V30 30 1 26 8
M  V30 31 1 1 30
M  V30 32 1 1 31
M  V30 33 1 1 32
M  V30 34 1 4 33
M  V30 35 1 5 34
M  V30 36 1 7 35
M  V30 37 1 9 36
M  V30 38 1 9 37
M  V30 39 1 11 38
M  V30 40 1 11 39
M  V30 41 1 12 40
M  V30 42 1 13 41
M  V30 43 1 13 42
M  V30 44 1 17 43
M  V30 45 1 17 44
M  V30 46 1 18 45
M  V30 47 1 19 46
M  V30 48 1 20 47
M  V30 49 1 20 48
M  V30 50 1 20 49
M  V30 51 1 21 50
M  V30 52 1 21 51
M  V30 53 1 21 52
M  V30 54 1 22 53
M  V30 55 1 23 54
M  V30 56 1 23 55
M  V30 57 1 23 56
M  V30 58 1 24 57
M  V30 59 1 24 58
M  V30 60 1 24 59
M  V30 61 1 28 60
M  V30 62 1 29 61
M  V30 END BOND
M  V30 END CTAB
M  END
>  <Dataset>  (291) 
ChEMBL_Kinases

>  <Ligand_Instance>  (291) 
nan

>  <PDB_ID>  (291) 
nan

>  <Standardized_SMILES>  (291) 
COc1ccc(/C=C2\CC(CO)(COC(=O)CC(C(C)C)C(C)C)OC2=O)cc1

>  <Name>  (291) 
nan

>  <Pocket>  (291) 
nan

>  <ATP_Site>  (291) 
nan

>  <Peripheral>  (291) 
nan

>  <Num_H_Atoms_ProtBoundConf>  (291) 
nan

>  <Num_Resolved_Atoms>  (291) 
nan

>  <Num_Not_Resolved_Atoms>  (291) 
nan

$$$$
CHEMBL2096883
     RDKit          3D

  0  0  0  0  0  0  0  0  0  0999 V3000
M  V30 BEGIN CTAB
M  V30 COUNTS 63 63 0 0 0
M  V30 BEGIN ATOM
M  V30 1 C 1.785164 -4.197142 5.401340 0
M  V30 2 C 2.161192 -3.075389 4.386849 0
M  V30 3 C 2.049379 -1.811733 5.202957 0
M  V30 4 C 1.183430 -3.181088 3.271152 0
M  V30 5 C 1.309240 -2.255231 2.125128 0
M  V30 6 C 1.190877 -0.775074 2.412266 0
M  V30 7 C 1.337998 0.003182 1.116077 0
M  V30 8 C 0.514494 0.877686 0.616067 0
M  V30 9 O 0.699917 1.559098 -0.578068 0
M  V30 10 C -0.100474 2.691004 -0.610701 0
M  V30 11 C 0.552299 3.874851 0.104300 0
M  V30 12 O -0.326082 4.970880 0.020691 0
M  V30 13 C -0.553585 3.142050 -1.949888 0
M  V30 14 O -1.318519 2.209205 -2.627259 0
M  V30 15 C -0.894904 0.978184 -3.030148 0
M  V30 16 O 0.249931 0.503008 -2.855272 0
M  V30 17 C -1.960971 0.206503 -3.731018 0
M  V30 18 C -3.163334 -0.010335 -2.825297 0
M  V30 19 C -1.358841 -1.097836 -4.185970 0
M  V30 20 C -2.443694 0.966303 -4.938331 0
M  V30 21 O -1.204344 2.287765 0.195767 0
M  V30 22 C -0.754245 1.376092 1.113545 0
M  V30 23 O -1.330523 1.046487 2.168730 0
M  V30 24 C 0.739902 -2.693821 0.840565 0
M  V30 25 C -0.659742 -3.017613 0.628797 0
M  V30 26 C -1.230220 -4.151621 1.451811 0
M  V30 27 C -1.673483 -1.916896 0.561406 0
M  V30 28 H 2.177923 -5.164685 5.069678 0
M  V30 29 H 2.115264 -3.932630 6.413379 0
M  V30 30 H 0.672930 -4.185931 5.414096 0
M  V30 31 H 3.201629 -3.331577 4.097412 0
M  V30 32 H 1.995715 -2.016283 6.304428 0
M  V30 33 H 1.099848 -1.298747 4.974384 0
M  V30 34 H 2.889610 -1.098132 5.041168 0
M  V30 35 H 1.206804 -4.238243 2.862940 0
M  V30 36 H 0.169024 -3.157109 3.757706 0
M  V30 37 H 2.458541 -2.319483 1.900726 0
M  V30 38 H 2.025043 -0.360671 3.015012 0
M  V30 39 H 0.266518 -0.478905 2.926906 0
M  V30 40 H 2.259766 -0.261157 0.616411 0
M  V30 41 H 0.798100 3.644948 1.145291 0
M  V30 42 H 1.481950 4.190132 -0.418660 0
M  V30 43 H -0.195693 5.615745 0.748536 0
M  V30 44 H 0.355122 3.467138 -2.520776 0
M  V30 45 H -1.142081 4.076592 -1.823461 0
M  V30 46 H -2.877106 0.370535 -1.806641 0
M  V30 47 H -3.408163 -1.106242 -2.746118 0
M  V30 48 H -4.067644 0.509428 -3.168919 0
M  V30 49 H -1.333091 -1.841480 -3.352513 0
M  V30 50 H -0.324726 -0.897331 -4.528509 0
M  V30 51 H -1.936418 -1.499841 -5.035680 0
M  V30 52 H -3.083436 0.287395 -5.552015 0
M  V30 53 H -3.061115 1.829641 -4.567084 0
M  V30 54 H -1.571578 1.271096 -5.520418 0
M  V30 55 H 1.113211 -1.963566 0.057891 0
M  V30 56 H 1.317534 -3.632254 0.545067 0
M  V30 57 H -0.691733 -3.426528 -0.440508 0
M  V30 58 H -1.647932 -3.837706 2.423450 0
M  V30 59 H -0.548156 -5.036467 1.510985 0
M  V30 60 H -2.139027 -4.598475 0.924154 0
M  V30 61 H -1.991598 -1.508043 1.504420 0
M  V30 62 H -2.603928 -2.396063 0.125520 0
M  V30 63 H -1.437435 -1.116184 -0.163459 0
M  V30 END ATOM
M  V30 BEGIN BOND
M  V30 1 1 1 2
M  V30 2 1 2 3
M  V30 3 1 2 4
M  V30 4 1 4 5
M  V30 5 1 5 6
M  V30 6 1 6 7
M  V30 7 2 7 8 CFG=2
M  V30 8 1 8 9
M  V30 9 1 9 10
M  V30 10 1 10 11
M  V30 11 1 11 12
M  V30 12 1 10 13
M  V30 13 1 13 14
M  V30 14 1 14 15
M  V30 15 2 15 16
M  V30 16 1 15 17
M  V30 17 1 17 18
M  V30 18 1 17 19
M  V30 19 1 17 20
M  V30 20 1 10 21
M  V30 21 1 21 22
M  V30 22 2 22 23
M  V30 23 1 5 24
M  V30 24 1 24 25
M  V30 25 1 25 26
M  V30 26 1 25 27
M  V30 27 1 22 8
M  V30 28 1 1 28
M  V30 29 1 1 29
M  V30 30 1 1 30
M  V30 31 1 2 31
M  V30 32 1 3 32
M  V30 33 1 3 33
M  V30 34 1 3 34
M  V30 35 1 4 35
M  V30 36 1 4 36
M  V30 37 1 5 37
M  V30 38 1 6 38
M  V30 39 1 6 39
M  V30 40 1 7 40
M  V30 41 1 11 41
M  V30 42 1 11 42
M  V30 43 1 12 43
M  V30 44 1 13 44
M  V30 45 1 13 45
M  V30 46 1 18 46
M  V30 47 1 18 47
M  V30 48 1 18 48
M  V30 49 1 19 49
M  V30 50 1 19 50
M  V30 51 1 19 51
M  V30 52 1 20 52
M  V30 53 1 20 53
M  V30 54 1 20 54
M  V30 55 1 24 55
M  V30 56 1 24 56
M  V30 57 1 25 57
M  V30 58 1 26 58
M  V30 59 1 26 59
M  V30 60 1 26 60
M  V30 61 1 27 61
M  V30 62 1 27 62
M  V30 63 1 27 63
M  V30 END BOND
M  V30 END CTAB
M  END
>  <Dataset>  (292) 
ChEMBL_Kinases

>  <Ligand_Instance>  (292) 
nan

>  <PDB_ID>  (292) 
nan

>  <Standardized_SMILES>  (292) 
CC(C)CC(CC=C1OC(CO)(COC(=O)C(C)(C)C)OC1=O)CC(C)C

>  <Name>  (292) 
nan

>  <Pocket>  (292) 
nan

>  <ATP_Site>  (292) 
nan

>  <Peripheral>  (292) 
nan

>  <Num_H_Atoms_ProtBoundConf>  (292) 
nan

>  <Num_Resolved_Atoms>  (292) 
nan

>  <Num_Not_Resolved_Atoms>  (292) 
nan

$$$$
CHEMBL2096884
     RDKit          3D

  0  0  0  0  0  0  0  0  0  0999 V3000
M  V30 BEGIN CTAB
M  V30 COUNTS 63 63 0 0 0
M  V30 BEGIN ATOM
M  V30 1 C 2.825393 -2.342099 5.327197 0
M  V30 2 C 3.167010 -3.572709 4.524519 0
M  V30 3 C 2.075358 -4.613650 4.746149 0
M  V30 4 C 3.273843 -3.241770 3.032714 0
M  V30 5 C 4.312658 -2.240691 2.774944 0
M  V30 6 C 3.969075 -1.098564 2.208823 0
M  V30 7 O 2.684179 -0.754322 1.828291 0
M  V30 8 C 2.727893 0.339242 0.932299 0
M  V30 9 C 2.803521 -0.089829 -0.510151 0
M  V30 10 O 3.926202 -0.845654 -0.764680 0
M  V30 11 C 1.503624 1.238035 1.154139 0
M  V30 12 O 0.393163 0.405939 0.907694 0
M  V30 13 C -0.905000 0.886567 1.010685 0
M  V30 14 O -0.993093 2.114280 1.338453 0
M  V30 15 C -2.191921 0.179165 0.794947 0
M  V30 16 C -2.862127 0.662552 -0.499931 0
M  V30 17 C -4.158448 -0.044202 -0.714437 0
M  V30 18 C -4.924625 0.316614 -1.926789 0
M  V30 19 C -6.200499 -0.539007 -1.913966 0
M  V30 20 C -5.408098 1.753389 -1.897173 0
M  V30 21 C -1.931164 0.738838 -1.628202 0
M  V30 22 C -1.202628 -0.419713 -2.131385 0
M  V30 23 C -0.353919 0.113052 -3.303484 0
M  V30 24 C -1.903639 -1.600201 -2.667969 0
M  V30 25 O 3.915172 1.039284 1.253166 0
M  V30 26 C 4.748171 0.075277 1.827878 0
M  V30 27 O 6.009935 0.160407 2.014547 0
M  V30 28 H 3.290618 -1.444775 4.846568 0
M  V30 29 H 1.734876 -2.201220 5.330331 0
M  V30 30 H 3.248894 -2.405868 6.336851 0
M  V30 31 H 4.109697 -4.020762 4.895003 0
M  V30 32 H 1.206320 -4.327279 4.100310 0
M  V30 33 H 2.443994 -5.632185 4.554219 0
M  V30 34 H 1.765975 -4.548566 5.821609 0
M  V30 35 H 2.289664 -3.005180 2.614064 0
M  V30 36 H 3.603738 -4.178629 2.523258 0
M  V30 37 H 5.323053 -2.473470 3.058273 0
M  V30 38 H 2.744056 0.828444 -1.126546 0
M  V30 39 H 1.894248 -0.707059 -0.734718 0
M  V30 40 H 4.524556 -0.334206 -1.364415 0
M  V30 41 H 1.485945 2.052728 0.410197 0
M  V30 42 H 1.512488 1.670303 2.166420 0
M  V30 43 H -2.827838 0.438539 1.674634 0
M  V30 44 H -2.101736 -0.919772 0.829438 0
M  V30 45 H -3.125939 1.716987 -0.247772 0
M  V30 46 H -3.976732 -1.136650 -0.651166 0
M  V30 47 H -4.859170 0.131009 0.133323 0
M  V30 48 H -4.488899 0.156919 -2.899697 0
M  V30 49 H -7.009104 -0.097560 -2.506950 0
M  V30 50 H -6.003309 -1.540415 -2.349394 0
M  V30 51 H -6.530685 -0.744370 -0.861322 0
M  V30 52 H -6.497896 1.857787 -1.809542 0
M  V30 53 H -4.944764 2.238626 -1.001624 0
M  V30 54 H -5.050440 2.336084 -2.774947 0
M  V30 55 H -1.114427 1.458424 -1.300100 0
M  V30 56 H -2.423642 1.357604 -2.425935 0
M  V30 57 H -0.434676 -0.784590 -1.417782 0
M  V30 58 H -0.009226 1.133722 -3.145391 0
M  V30 59 H 0.468515 -0.620241 -3.483624 0
M  V30 60 H -0.986825 0.041893 -4.222690 0
M  V30 61 H -2.683332 -1.327652 -3.418840 0
M  V30 62 H -1.178176 -2.220172 -3.275196 0
M  V30 63 H -2.355323 -2.301246 -1.974835 0
M  V30 END ATOM
M  V30 BEGIN BOND
M  V30 1 1 1 2
M  V30 2 1 2 3
M  V30 3 1 2 4
M  V30 4 1 4 5
M  V30 5 2 5 6 CFG=2
M  V30 6 1 6 7
M  V30 7 1 7 8
M  V30 8 1 8 9
M  V30 9 1 9 10
M  V30 10 1 8 11
M  V30 11 1 11 12
M  V30 12 1 12 13
M  V30 13 2 13 14
M  V30 14 1 13 15
M  V30 15 1 15 16
M  V30 16 1 16 17
M  V30 17 1 17 18
M  V30 18 1 18 19
M  V30 19 1 18 20
M  V30 20 1 16 21
M  V30 21 1 21 22
M  V30 22 1 22 23
M  V30 23 1 22 24
M  V30 24 1 8 25
M  V30 25 1 25 26
M  V30 26 2 26 27
M  V30 27 1 26 6
M  V30 28 1 1 28
M  V30 29 1 1 29
M  V30 30 1 1 30
M  V30 31 1 2 31
M  V30 32 1 3 32
M  V30 33 1 3 33
M  V30 34 1 3 34
M  V30 35 1 4 35
M  V30 36 1 4 36
M  V30 37 1 5 37
M  V30 38 1 9 38
M  V30 39 1 9 39
M  V30 40 1 10 40
M  V30 41 1 11 41
M  V30 42 1 11 42
M  V30 43 1 15 43
M  V30 44 1 15 44
M  V30 45 1 16 45
M  V30 46 1 17 46
M  V30 47 1 17 47
M  V30 48 1 18 48
M  V30 49 1 19 49
M  V30 50 1 19 50
M  V30 51 1 19 51
M  V30 52 1 20 52
M  V30 53 1 20 53
M  V30 54 1 20 54
M  V30 55 1 21 55
M  V30 56 1 21 56
M  V30 57 1 22 57
M  V30 58 1 23 58
M  V30 59 1 23 59
M  V30 60 1 23 60
M  V30 61 1 24 61
M  V30 62 1 24 62
M  V30 63 1 24 63
M  V30 END BOND
M  V30 END CTAB
M  END
>  <Dataset>  (293) 
ChEMBL_Kinases

>  <Ligand_Instance>  (293) 
nan

>  <PDB_ID>  (293) 
nan

>  <Standardized_SMILES>  (293) 
CC(C)CC=C1OC(CO)(COC(=O)CC(CC(C)C)CC(C)C)OC1=O

>  <Name>  (293) 
nan

>  <Pocket>  (293) 
nan

>  <ATP_Site>  (293) 
nan

>  <Peripheral>  (293) 
nan

>  <Num_H_Atoms_ProtBoundConf>  (293) 
nan

>  <Num_Resolved_Atoms>  (293) 
nan

>  <Num_Not_Resolved_Atoms>  (293) 
nan

$$$$
CHEMBL209699
     RDKit          3D

  0  0  0  0  0  0  0  0  0  0999 V3000
M  V30 BEGIN CTAB
M  V30 COUNTS 34 36 0 0 0
M  V30 BEGIN ATOM
M  V30 1 C 0.206807 -5.172824 4.125890 0
M  V30 2 O 0.084669 -4.006582 3.374805 0
M  V30 3 C 0.585842 -3.797319 2.094096 0
M  V30 4 C 1.296290 -4.710454 1.335309 0
M  V30 5 C 1.739104 -4.367972 0.066087 0
M  V30 6 C 1.474467 -3.109889 -0.453071 0
M  V30 7 O 1.916291 -2.754577 -1.731319 0
M  V30 8 C 0.762487 -2.205748 0.316920 0
M  V30 9 C 0.499283 -0.886130 -0.259197 0
M  V30 10 C -0.189980 0.129955 0.363038 0
M  V30 11 C -0.270542 1.244799 -0.434328 0
M  V30 12 C -0.853640 2.570555 -0.315151 0
M  V30 13 C -0.728909 3.456859 -1.362542 0
M  V30 14 C -1.258860 4.729231 -1.313174 0
M  V30 15 C -1.944394 5.183133 -0.208102 0
M  V30 16 C -2.084336 4.317236 0.854778 0
M  V30 17 C -1.542169 3.055568 0.769307 0
M  V30 18 Cl -1.777609 2.049580 2.163801 0
M  V30 19 N 0.385637 0.875786 -1.549322 0
M  V30 20 N 0.831393 -0.354436 -1.451108 0
M  V30 21 C 0.312897 -2.531829 1.586670 0
M  V30 22 H 0.459030 -6.058810 3.532565 0
M  V30 23 H 0.955284 -4.982368 4.938206 0
M  V30 24 H -0.774724 -5.331393 4.646349 0
M  V30 25 H 1.472730 -5.675884 1.792033 0
M  V30 26 H 2.286108 -5.082512 -0.508096 0
M  V30 27 H 2.743003 -3.244744 -2.070128 0
M  V30 28 H -0.606224 0.065635 1.330987 0
M  V30 29 H -0.213138 3.219597 -2.285026 0
M  V30 30 H -1.158785 5.413438 -2.130040 0
M  V30 31 H -2.352912 6.183165 -0.186842 0
M  V30 32 H -2.620260 4.664298 1.725506 0
M  V30 33 H 0.601650 1.350612 -2.437238 0
M  V30 34 H -0.238097 -1.779461 2.136579 0
M  V30 END ATOM
M  V30 BEGIN BOND
M  V30 1 1 1 2
M  V30 2 1 2 3
M  V30 3 2 3 4
M  V30 4 1 4 5
M  V30 5 2 5 6
M  V30 6 1 6 7
M  V30 7 1 6 8
M  V30 8 1 8 9
M  V30 9 1 9 10
M  V30 10 2 10 11
M  V30 11 1 11 12
M  V30 12 2 12 13
M  V30 13 1 13 14
M  V30 14 2 14 15
M  V30 15 1 15 16
M  V30 16 2 16 17
M  V30 17 1 17 18
M  V30 18 1 11 19
M  V30 19 1 19 20
M  V30 20 2 8 21
M  V30 21 1 21 3
M  V30 22 2 20 9
M  V30 23 1 17 12
M  V30 24 1 1 22
M  V30 25 1 1 23
M  V30 26 1 1 24
M  V30 27 1 4 25
M  V30 28 1 5 26
M  V30 29 1 7 27
M  V30 30 1 10 28
M  V30 31 1 13 29
M  V30 32 1 14 30
M  V30 33 1 15 31
M  V30 34 1 16 32
M  V30 35 1 19 33
M  V30 36 1 21 34
M  V30 END BOND
M  V30 END CTAB
M  END
>  <Dataset>  (294) 
ChEMBL_Kinases

>  <Ligand_Instance>  (294) 
nan

>  <PDB_ID>  (294) 
nan

>  <Standardized_SMILES>  (294) 
COc1ccc(O)c(-c2cc(-c3ccccc3Cl)[nH]n2)c1

>  <Name>  (294) 
nan

>  <Pocket>  (294) 
nan

>  <ATP_Site>  (294) 
nan

>  <Peripheral>  (294) 
nan

>  <Num_H_Atoms_ProtBoundConf>  (294) 
nan

>  <Num_Resolved_Atoms>  (294) 
nan

>  <Num_Not_Resolved_Atoms>  (294) 
nan

$$$$
CHEMBL209740
     RDKit          3D

  0  0  0  0  0  0  0  0  0  0999 V3000
M  V30 BEGIN CTAB
M  V30 COUNTS 44 45 0 0 0
M  V30 BEGIN ATOM
M  V30 1 C -3.179532 -5.362170 1.075833 0
M  V30 2 C -2.682773 -3.936154 0.991732 0
M  V30 3 O -3.358360 -3.144126 1.945909 0
M  V30 4 C -3.087714 -1.771840 2.082511 0
M  V30 5 N -2.177012 -1.224814 1.292397 0
M  V30 6 C -1.802893 0.073243 1.297342 0
M  V30 7 C -0.781558 0.591237 0.382637 0
M  V30 8 O -0.442486 1.813125 0.399912 0
M  V30 9 N -0.186308 -0.325911 -0.523072 0
M  V30 10 C 0.820208 0.067104 -1.460764 0
M  V30 11 C 2.041325 0.627905 -0.863994 0
M  V30 12 C 2.333100 1.984447 -0.863518 0
M  V30 13 C 3.487508 2.492037 -0.296934 0
M  V30 14 O 3.668932 3.880713 -0.360041 0
M  V30 15 C 4.780845 4.541847 0.165692 0
M  V30 16 C 4.423113 1.657197 0.307223 0
M  V30 17 C 4.112654 0.295176 0.297341 0
M  V30 18 C 2.965083 -0.224836 -0.264272 0
M  V30 19 O 2.693904 -1.560289 -0.256417 0
M  V30 20 C 3.462637 -2.592952 0.280043 0
M  V30 21 C -2.447185 0.872418 2.220516 0
M  V30 22 C -3.414015 0.339850 3.074210 0
M  V30 23 C -3.757132 -1.012614 3.019846 0
M  V30 24 C -4.746022 -1.592707 3.881912 0
M  V30 25 N -5.564132 -2.052959 4.584779 0
M  V30 26 H -4.282544 -5.302755 1.274446 0
M  V30 27 H -2.974376 -5.894251 0.116686 0
M  V30 28 H -2.731773 -5.939216 1.909140 0
M  V30 29 H -2.892959 -3.567053 -0.012819 0
M  V30 30 H -1.578121 -3.899660 1.157954 0
M  V30 31 H -0.499291 -1.342494 -0.504841 0
M  V30 32 H 1.111168 -0.762809 -2.111365 0
M  V30 33 H 0.401611 0.858414 -2.128576 0
M  V30 34 H 1.586930 2.628755 -1.342956 0
M  V30 35 H 5.675028 4.554573 -0.489081 0
M  V30 36 H 5.047761 4.062986 1.132208 0
M  V30 37 H 4.495318 5.592218 0.450526 0
M  V30 38 H 5.300300 2.076192 0.734141 0
M  V30 39 H 4.852620 -0.332473 0.771359 0
M  V30 40 H 4.483659 -2.329500 0.577945 0
M  V30 41 H 3.440330 -3.469104 -0.392856 0
M  V30 42 H 2.939506 -2.934189 1.220578 0
M  V30 43 H -2.207483 1.923806 2.291181 0
M  V30 44 H -3.931986 0.970813 3.813098 0
M  V30 END ATOM
M  V30 BEGIN BOND
M  V30 1 1 1 2
M  V30 2 1 2 3
M  V30 3 1 3 4
M  V30 4 2 4 5
M  V30 5 1 5 6
M  V30 6 1 6 7
M  V30 7 2 7 8
M  V30 8 1 7 9
M  V30 9 1 9 10
M  V30 10 1 10 11
M  V30 11 2 11 12
M  V30 12 1 12 13
M  V30 13 1 13 14
M  V30 14 1 14 15
M  V30 15 2 13 16
M  V30 16 1 16 17
M  V30 17 2 17 18
M  V30 18 1 18 19
M  V30 19 1 19 20
M  V30 20 2 6 21
M  V30 21 1 21 22
M  V30 22 2 22 23
M  V30 23 1 23 24
M  V30 24 3 24 25
M  V30 25 1 23 4
M  V30 26 1 18 11
M  V30 27 1 1 26
M  V30 28 1 1 27
M  V30 29 1 1 28
M  V30 30 1 2 29
M  V30 31 1 2 30
M  V30 32 1 9 31
M  V30 33 1 10 32
M  V30 34 1 10 33
M  V30 35 1 12 34
M  V30 36 1 15 35
M  V30 37 1 15 36
M  V30 38 1 15 37
M  V30 39 1 16 38
M  V30 40 1 17 39
M  V30 41 1 20 40
M  V30 42 1 20 41
M  V30 43 1 20 42
M  V30 44 1 21 43
M  V30 45 1 22 44
M  V30 END BOND
M  V30 END CTAB
M  END
>  <Dataset>  (295) 
ChEMBL_Kinases

>  <Ligand_Instance>  (295) 
nan

>  <PDB_ID>  (295) 
nan

>  <Standardized_SMILES>  (295) 
CCOc1nc(C(=O)NCc2cc(OC)ccc2OC)ccc1C#N

>  <Name>  (295) 
nan

>  <Pocket>  (295) 
nan

>  <ATP_Site>  (295) 
nan

>  <Peripheral>  (295) 
nan

>  <Num_H_Atoms_ProtBoundConf>  (295) 
nan

>  <Num_Resolved_Atoms>  (295) 
nan

>  <Num_Not_Resolved_Atoms>  (295) 
nan

$$$$
CHEMBL209908
     RDKit          3D

  0  0  0  0  0  0  0  0  0  0999 V3000
M  V30 BEGIN CTAB
M  V30 COUNTS 80 85 0 0 0
M  V30 BEGIN ATOM
M  V30 1 C -3.142377 -5.524090 1.474026 0
M  V30 2 C -1.728913 -5.508750 1.947617 0
M  V30 3 C -1.326773 -6.304130 3.024571 0
M  V30 4 C 0.017680 -6.230814 3.423099 0
M  V30 5 C 0.924661 -5.407757 2.783547 0
M  V30 6 C 0.524052 -4.626942 1.722389 0
M  V30 7 C 1.488648 -3.745120 1.011208 0
M  V30 8 C -0.809056 -4.676195 1.302012 0
M  V30 9 O -1.132770 -3.854201 0.225575 0
M  V30 10 C -1.901638 -2.749270 0.505105 0
M  V30 11 O -2.443425 -2.252940 1.550103 0
M  V30 12 N -2.551854 -1.593629 0.085229 0
M  V30 13 C -3.307376 -0.827700 1.006317 0
M  V30 14 C -2.438481 0.094450 1.589258 0
M  V30 15 C -2.910219 1.020181 2.529325 0
M  V30 16 C -4.243667 1.043713 2.902132 0
M  V30 17 C -4.754085 2.006010 3.868958 0
M  V30 18 C -5.804742 1.769758 4.726727 0
M  V30 19 C -6.282031 2.680851 5.643810 0
M  V30 20 C -5.623724 3.915459 5.670444 0
M  V30 21 C -4.557733 4.190545 4.818519 0
M  V30 22 C -4.115605 3.231550 3.908117 0
M  V30 23 C -5.083122 0.101266 2.295633 0
M  V30 24 C -4.634238 -0.810923 1.373416 0
M  V30 25 C -2.546766 -0.959621 -1.193698 0
M  V30 26 C -3.300250 0.143589 -1.615123 0
M  V30 27 C -3.095661 0.652707 -2.877530 0
M  V30 28 N -2.173554 0.057040 -3.648439 0
M  V30 29 C -1.440055 -1.002187 -3.267474 0
M  V30 30 N -0.582454 -1.265512 -4.383834 0
M  V30 31 C 0.785856 -0.871180 -4.134950 0
M  V30 32 C 1.207023 -0.556511 -2.865302 0
M  V30 33 C 2.478742 -0.166413 -2.502752 0
M  V30 34 C 3.430337 -0.081674 -3.523711 0
M  V30 35 N 4.751693 0.296683 -3.162152 0
M  V30 36 C 5.777256 1.036221 -3.853455 0
M  V30 37 C 6.184932 2.281128 -3.103460 0
M  V30 38 N 6.326598 2.135954 -1.699623 0
M  V30 39 C 7.638282 2.284430 -1.161712 0
M  V30 40 C 5.510769 1.163567 -1.059583 0
M  V30 41 C 5.312893 -0.085560 -1.885050 0
M  V30 42 C 3.043241 -0.389836 -4.817830 0
M  V30 43 C 1.756806 -0.775553 -5.120500 0
M  V30 44 N -1.631672 -1.507487 -2.038701 0
M  V30 45 H -3.529402 -6.546783 1.696572 0
M  V30 46 H -3.251897 -5.377375 0.392557 0
M  V30 47 H -3.777329 -4.842616 2.086754 0
M  V30 48 H -2.053963 -6.945895 3.517687 0
M  V30 49 H 0.314637 -6.864720 4.274133 0
M  V30 50 H 1.959807 -5.359301 3.100642 0
M  V30 51 H 2.274974 -3.320946 1.673704 0
M  V30 52 H 2.046587 -4.439161 0.311954 0
M  V30 53 H 0.965261 -3.011613 0.388406 0
M  V30 54 H -1.378647 0.249557 1.442405 0
M  V30 55 H -2.299219 1.768668 3.029392 0
M  V30 56 H -6.285438 0.790109 4.663711 0
M  V30 57 H -7.098868 2.515215 6.320271 0
M  V30 58 H -5.895746 4.733164 6.348283 0
M  V30 59 H -4.061581 5.163357 4.860053 0
M  V30 60 H -3.288489 3.521462 3.285085 0
M  V30 61 H -6.125282 0.061232 2.538277 0
M  V30 62 H -5.180798 -1.567950 0.852766 0
M  V30 63 H -3.969623 0.431072 -0.819349 0
M  V30 64 H -3.744302 1.489179 -3.040848 0
M  V30 65 H -0.876138 -1.684534 -5.277363 0
M  V30 66 H 0.536875 -0.592786 -2.002042 0
M  V30 67 H 2.780328 0.071971 -1.498171 0
M  V30 68 H 5.303015 1.423813 -4.805685 0
M  V30 69 H 6.650021 0.418291 -4.083378 0
M  V30 70 H 7.167853 2.612358 -3.531522 0
M  V30 71 H 5.497276 3.131914 -3.318108 0
M  V30 72 H 8.438196 2.313455 -1.914307 0
M  V30 73 H 7.802118 1.516613 -0.372333 0
M  V30 74 H 7.647395 3.256673 -0.595046 0
M  V30 75 H 6.002706 0.874530 -0.112230 0
M  V30 76 H 4.509337 1.588678 -0.819224 0
M  V30 77 H 6.265994 -0.645056 -2.025191 0
M  V30 78 H 4.621982 -0.748812 -1.334021 0
M  V30 79 H 3.776083 -0.323659 -5.611132 0
M  V30 80 H 1.430465 -1.019757 -6.131156 0
M  V30 END ATOM
M  V30 BEGIN BOND
M  V30 1 1 1 2
M  V30 2 2 2 3
M  V30 3 1 3 4
M  V30 4 2 4 5
M  V30 5 1 5 6
M  V30 6 1 6 7
M  V30 7 2 6 8
M  V30 8 1 8 9
M  V30 9 1 9 10
M  V30 10 2 10 11
M  V30 11 1 10 12
M  V30 12 1 12 13
M  V30 13 2 13 14
M  V30 14 1 14 15
M  V30 15 2 15 16
M  V30 16 1 16 17
M  V30 17 2 17 18
M  V30 18 1 18 19
M  V30 19 2 19 20
M  V30 20 1 20 21
M  V30 21 2 21 22
M  V30 22 1 16 23
M  V30 23 2 23 24
M  V30 24 1 12 25
M  V30 25 2 25 26
M  V30 26 1 26 27
M  V30 27 2 27 28
M  V30 28 1 28 29
M  V30 29 1 29 30
M  V30 30 1 30 31
M  V30 31 2 31 32
M  V30 32 1 32 33
M  V30 33 2 33 34
M  V30 34 1 34 35
M  V30 35 1 35 36
M  V30 36 1 36 37
M  V30 37 1 37 38
M  V30 38 1 38 39
M  V30 39 1 38 40
M  V30 40 1 40 41
M  V30 41 1 34 42
M  V30 42 2 42 43
M  V30 43 2 29 44
M  V30 44 1 8 2
M  V30 45 1 24 13
M  V30 46 1 44 25
M  V30 47 1 22 17
M  V30 48 1 43 31
M  V30 49 1 41 35
M  V30 50 1 1 45
M  V30 51 1 1 46
M  V30 52 1 1 47
M  V30 53 1 3 48
M  V30 54 1 4 49
M  V30 55 1 5 50
M  V30 56 1 7 51
M  V30 57 1 7 52
M  V30 58 1 7 53
M  V30 59 1 14 54
M  V30 60 1 15 55
M  V30 61 1 18 56
M  V30 62 1 19 57
M  V30 63 1 20 58
M  V30 64 1 21 59
M  V30 65 1 22 60
M  V30 66 1 23 61
M  V30 67 1 24 62
M  V30 68 1 26 63
M  V30 69 1 27 64
M  V30 70 1 30 65
M  V30 71 1 32 66
M  V30 72 1 33 67
M  V30 73 1 36 68
M  V30 74 1 36 69
M  V30 75 1 37 70
M  V30 76 1 37 71
M  V30 77 1 39 72
M  V30 78 1 39 73
M  V30 79 1 39 74
M  V30 80 1 40 75
M  V30 81 1 40 76
M  V30 82 1 41 77
M  V30 83 1 41 78
M  V30 84 1 42 79
M  V30 85 1 43 80
M  V30 END BOND
M  V30 END CTAB
M  END
>  <Dataset>  (296) 
ChEMBL_Kinases

>  <Ligand_Instance>  (296) 
nan

>  <PDB_ID>  (296) 
nan

>  <Standardized_SMILES>  (296) 
Cc1cccc(C)c1OC(=O)N(c1ccc(-c2ccccc2)cc1)c1ccnc(Nc2ccc(N3CCN(C)CC3)cc2)n1

>  <Name>  (296) 
nan

>  <Pocket>  (296) 
nan

>  <ATP_Site>  (296) 
nan

>  <Peripheral>  (296) 
nan

>  <Num_H_Atoms_ProtBoundConf>  (296) 
nan

>  <Num_Resolved_Atoms>  (296) 
nan

>  <Num_Not_Resolved_Atoms>  (296) 
nan

$$$$
CHEMBL209785
     RDKit          3D

  0  0  0  0  0  0  0  0  0  0999 V3000
M  V30 BEGIN CTAB
M  V30 COUNTS 42 46 0 0 0
M  V30 BEGIN ATOM
M  V30 1 C 3.388879 -0.364237 3.086545 0
M  V30 2 S 3.188381 -1.773119 2.026308 0 CHG=1 VAL=3
M  V30 3 O 4.068877 -3.068054 2.568614 0 CHG=-1 VAL=1
M  V30 4 C 3.675628 -1.396355 0.386603 0
M  V30 5 C 4.988775 -1.611138 0.037725 0
M  V30 6 C 5.379552 -1.311244 -1.269807 0
M  V30 7 C 4.481560 -0.814318 -2.189403 0
M  V30 8 C 3.150573 -0.591257 -1.853522 0
M  V30 9 C 2.767585 -0.894080 -0.542583 0
M  V30 10 C 1.388266 -0.692209 -0.097545 0
M  V30 11 C 1.047793 0.533327 0.444666 0
M  V30 12 C -0.248122 0.747119 0.871648 0
M  V30 13 N -0.833788 1.825336 1.425591 0
M  V30 14 C -2.137853 1.480965 1.649496 0
M  V30 15 C -3.114267 2.290665 2.209718 0
M  V30 16 C -4.411224 1.808581 2.381056 0
M  V30 17 C -4.695313 0.498473 1.975636 0
M  V30 18 O -5.975825 0.015124 2.142086 0
M  V30 19 C -3.665106 -0.233699 1.429466 0
M  V30 20 C -2.385126 0.188690 1.240739 0
M  V30 21 C -1.190213 -0.250286 0.758101 0
M  V30 22 C -0.851876 -1.453989 0.224498 0
M  V30 23 C 0.433289 -1.689974 -0.207756 0
M  V30 24 C 0.627437 -3.040606 -0.756622 0
M  V30 25 O 1.671732 -3.527653 -1.216450 0
M  V30 26 N -0.682390 -3.628926 -0.620869 0
M  V30 27 C -1.554780 -2.679143 -0.037085 0
M  V30 28 O -2.715385 -3.068483 0.131731 0
M  V30 29 H 2.460126 -0.133797 3.644149 0
M  V30 30 H 3.720137 0.525714 2.482657 0
M  V30 31 H 4.209199 -0.599779 3.796943 0
M  V30 32 H 5.756172 -1.997352 0.696369 0
M  V30 33 H 6.407615 -1.455713 -1.621332 0
M  V30 34 H 4.776942 -0.575881 -3.216628 0
M  V30 35 H 2.425192 -0.202305 -2.555144 0
M  V30 36 H 1.815333 1.309125 0.523643 0
M  V30 37 H -0.356963 2.730238 1.630191 0
M  V30 38 H -2.903248 3.287397 2.519541 0
M  V30 39 H -5.191014 2.418656 2.815017 0
M  V30 40 H -6.289594 -0.558039 2.924960 0
M  V30 41 H -3.952495 -1.214156 1.146160 0
M  V30 42 H -0.809572 -4.626164 -0.953397 0
M  V30 END ATOM
M  V30 BEGIN BOND
M  V30 1 1 1 2
M  V30 2 1 2 3
M  V30 3 1 2 4
M  V30 4 2 4 5
M  V30 5 1 5 6
M  V30 6 2 6 7
M  V30 7 1 7 8
M  V30 8 2 8 9
M  V30 9 1 9 10
M  V30 10 2 10 11
M  V30 11 1 11 12
M  V30 12 1 12 13
M  V30 13 1 13 14
M  V30 14 2 14 15
M  V30 15 1 15 16
M  V30 16 2 16 17
M  V30 17 1 17 18
M  V30 18 1 17 19
M  V30 19 2 19 20
M  V30 20 1 20 21
M  V30 21 1 21 22
M  V30 22 2 22 23
M  V30 23 1 23 24
M  V30 24 2 24 25
M  V30 25 1 24 26
M  V30 26 1 26 27
M  V30 27 2 27 28
M  V30 28 1 9 4
M  V30 29 1 23 10
M  V30 30 2 21 12
M  V30 31 1 27 22
M  V30 32 1 20 14
M  V30 33 1 1 29
M  V30 34 1 1 30
M  V30 35 1 1 31
M  V30 36 1 5 32
M  V30 37 1 6 33
M  V30 38 1 7 34
M  V30 39 1 8 35
M  V30 40 1 11 36
M  V30 41 1 13 37
M  V30 42 1 15 38
M  V30 43 1 16 39
M  V30 44 1 18 40
M  V30 45 1 19 41
M  V30 46 1 26 42
M  V30 END BOND
M  V30 END CTAB
M  END
>  <Dataset>  (297) 
ChEMBL_Kinases

>  <Ligand_Instance>  (297) 
nan

>  <PDB_ID>  (297) 
nan

>  <Standardized_SMILES>  (297) 
C[S+]([O-])c1ccccc1-c1cc2[nH]c3ccc(O)cc3c2c2c1C(=O)NC2=O

>  <Name>  (297) 
nan

>  <Pocket>  (297) 
nan

>  <ATP_Site>  (297) 
nan

>  <Peripheral>  (297) 
nan

>  <Num_H_Atoms_ProtBoundConf>  (297) 
nan

>  <Num_Resolved_Atoms>  (297) 
nan

>  <Num_Not_Resolved_Atoms>  (297) 
nan

$$$$
CHEMBL209793
     RDKit          3D

  0  0  0  0  0  0  0  0  0  0999 V3000
M  V30 BEGIN CTAB
M  V30 COUNTS 22 23 0 0 0
M  V30 BEGIN ATOM
M  V30 1 N 2.806844 -2.924715 3.208334 0
M  V30 2 C 2.823314 -2.005657 2.468561 0
M  V30 3 C 2.830525 -0.880736 1.582484 0
M  V30 4 C 4.042328 -0.398494 1.181118 0
M  V30 5 O 5.350082 -0.762135 1.445982 0
M  V30 6 N 4.216986 0.689088 0.320132 0
M  V30 7 S 2.406369 1.084580 0.039602 0
M  V30 8 C 1.805216 -0.165588 1.036265 0
M  V30 9 N 0.420765 -0.504278 1.335808 0
M  V30 10 C -0.725515 0.131043 0.829955 0
M  V30 11 C -0.831512 1.053443 -0.182653 0
M  V30 12 C -1.979022 1.650690 -0.626610 0
M  V30 13 C -3.164988 1.325319 -0.029839 0
M  V30 14 C -3.128245 0.404425 0.994235 0
M  V30 15 C -1.956924 -0.152916 1.389048 0
M  V30 16 H 5.827579 -0.485481 2.302400 0
M  V30 17 H 0.246866 -1.309239 1.997287 0
M  V30 18 H 0.072747 1.344516 -0.693299 0
M  V30 19 H -1.964820 2.366669 -1.430889 0
M  V30 20 H -4.089802 1.756763 -0.331041 0
M  V30 21 H -4.076783 0.150451 1.464180 0
M  V30 22 H -2.045486 -0.875329 2.215198 0
M  V30 END ATOM
M  V30 BEGIN BOND
M  V30 1 3 1 2
M  V30 2 1 2 3
M  V30 3 1 3 4
M  V30 4 1 4 5
M  V30 5 2 4 6
M  V30 6 1 6 7
M  V30 7 1 7 8
M  V30 8 1 8 9
M  V30 9 1 9 10
M  V30 10 2 10 11
M  V30 11 1 11 12
M  V30 12 2 12 13
M  V30 13 1 13 14
M  V30 14 2 14 15
M  V30 15 2 8 3
M  V30 16 1 15 10
M  V30 17 1 5 16
M  V30 18 1 9 17
M  V30 19 1 11 18
M  V30 20 1 12 19
M  V30 21 1 13 20
M  V30 22 1 14 21
M  V30 23 1 15 22
M  V30 END BOND
M  V30 END CTAB
M  END
>  <Dataset>  (298) 
ChEMBL_Kinases

>  <Ligand_Instance>  (298) 
nan

>  <PDB_ID>  (298) 
nan

>  <Standardized_SMILES>  (298) 
N#Cc1c(O)nsc1Nc1ccccc1

>  <Name>  (298) 
nan

>  <Pocket>  (298) 
nan

>  <ATP_Site>  (298) 
nan

>  <Peripheral>  (298) 
nan

>  <Num_H_Atoms_ProtBoundConf>  (298) 
nan

>  <Num_Resolved_Atoms>  (298) 
nan

>  <Num_Not_Resolved_Atoms>  (298) 
nan

$$$$
CHEMBL209826
     RDKit          3D

  0  0  0  0  0  0  0  0  0  0999 V3000
M  V30 BEGIN CTAB
M  V30 COUNTS 71 76 0 0 0
M  V30 BEGIN ATOM
M  V30 1 C 2.781921 -0.510062 4.293125 0
M  V30 2 C 1.605627 -0.309348 3.344633 0
M  V30 3 C 0.806633 -1.633126 3.482950 0
M  V30 4 C 2.021252 -0.156802 1.937150 0
M  V30 5 C 2.911851 0.927116 1.587566 0
M  V30 6 C 4.254270 0.761225 1.636383 0
M  V30 7 C 5.179558 1.700007 1.333818 0
M  V30 8 C 4.556550 2.967741 0.930393 0
M  V30 9 S 2.703371 2.589302 1.056957 0
M  V30 10 C 0.730897 0.753366 3.903718 0
M  V30 11 C 1.399245 2.065910 4.082523 0
M  V30 12 O 2.527052 2.131910 4.630566 0
M  V30 13 N 0.581316 3.122802 3.558577 0
M  V30 14 C -0.538530 2.470201 2.975900 0
M  V30 15 C -1.554768 3.135551 2.317551 0
M  V30 16 C -2.573495 2.404600 1.747784 0
M  V30 17 C -2.559094 1.029477 1.845119 0
M  V30 18 C -3.646241 0.268322 1.242343 0
M  V30 19 C -4.955860 0.673709 1.121269 0
M  V30 20 N -5.855173 -0.164071 0.522630 0
M  V30 21 C -5.419634 -1.383840 0.061224 0
M  V30 22 C -4.091079 -1.861505 0.152560 0
M  V30 23 O -4.182348 -3.061743 -0.421850 0
M  V30 24 C -3.275721 -4.037878 -0.692430 0
M  V30 25 C -2.183797 -3.813728 -1.673960 0 CFG=1
M  V30 26 N -2.687269 -3.516930 -3.007329 0
M  V30 27 C -1.107699 -2.844405 -1.328263 0
M  V30 28 C -0.084069 -2.772887 -2.448652 0
M  V30 29 C 1.122098 -3.465074 -2.468595 0
M  V30 30 N 1.768719 -3.189193 -3.631166 0
M  V30 31 C 1.027466 -2.343767 -4.365899 0
M  V30 32 C 1.200008 -1.739975 -5.604417 0
M  V30 33 C 0.245022 -0.869423 -6.143005 0
M  V30 34 C -0.903409 -0.625645 -5.381080 0
M  V30 35 C -1.047831 -1.238070 -4.157245 0
M  V30 36 C -0.113627 -2.085575 -3.639758 0
M  V30 37 C -3.258734 -0.960467 0.765939 0
M  V30 38 C -1.519489 0.442165 2.513645 0
M  V30 39 C -0.464025 1.095518 3.111799 0
M  V30 40 H 3.626740 0.150403 4.056904 0
M  V30 41 H 3.097715 -1.584596 4.245015 0
M  V30 42 H 2.387135 -0.346151 5.316409 0
M  V30 43 H -0.030875 -1.510892 4.174879 0
M  V30 44 H 0.452391 -1.903830 2.474333 0
M  V30 45 H 1.476792 -2.451353 3.818127 0
M  V30 46 H 2.379210 -1.148183 1.562521 0
M  V30 47 H 1.079787 0.002126 1.321868 0
M  V30 48 H 4.802527 -0.157521 1.927752 0
M  V30 49 H 6.246833 1.816534 1.293146 0
M  V30 50 H 5.079319 3.987261 0.602169 0
M  V30 51 H 0.334498 0.421891 4.912528 0
M  V30 52 H 0.832060 4.127746 3.633577 0
M  V30 53 H -1.631066 4.201337 2.202109 0
M  V30 54 H -3.385359 2.886640 1.226094 0
M  V30 55 H -5.127021 1.650698 1.531641 0
M  V30 56 H -6.355503 -1.790487 -0.346384 0
M  V30 57 H -2.729377 -4.254654 0.297157 0
M  V30 58 H -3.755068 -5.048349 -0.884914 0
M  V30 59 H -1.665984 -4.828030 -1.787310 0
M  V30 60 H -3.722051 -3.423219 -3.022262 0
M  V30 61 H -2.290966 -4.129673 -3.734365 0
M  V30 62 H -0.600118 -3.014681 -0.365369 0
M  V30 63 H -1.503101 -1.784253 -1.323156 0
M  V30 64 H 1.499169 -4.129736 -1.674798 0
M  V30 65 H 2.703545 -3.546002 -3.966241 0
M  V30 66 H 2.081197 -1.921068 -6.199841 0
M  V30 67 H 0.377671 -0.396379 -7.109909 0
M  V30 68 H -1.613023 0.050690 -5.833186 0
M  V30 69 H -1.958962 -0.975420 -3.646544 0
M  V30 70 H -2.288515 -1.399713 0.816301 0
M  V30 71 H -1.563291 -0.635977 2.558873 0
M  V30 END ATOM
M  V30 BEGIN BOND
M  V30 1 1 1 2
M  V30 2 1 2 3
M  V30 3 1 2 4
M  V30 4 1 4 5
M  V30 5 2 5 6
M  V30 6 1 6 7
M  V30 7 2 7 8
M  V30 8 1 8 9
M  V30 9 1 2 10
M  V30 10 1 10 11
M  V30 11 2 11 12
M  V30 12 1 11 13
M  V30 13 1 13 14
M  V30 14 2 14 15
M  V30 15 1 15 16
M  V30 16 2 16 17
M  V30 17 1 17 18
M  V30 18 2 18 19
M  V30 19 1 19 20
M  V30 20 2 20 21
M  V30 21 1 21 22
M  V30 22 1 22 23
M  V30 23 1 23 24
M  V30 24 1 24 25
M  V30 25 1 25 26
M  V30 26 1 25 27
M  V30 27 1 27 28
M  V30 28 2 28 29
M  V30 29 1 29 30
M  V30 30 1 30 31
M  V30 31 2 31 32
M  V30 32 1 32 33
M  V30 33 2 33 34
M  V30 34 1 34 35
M  V30 35 2 35 36
M  V30 36 2 22 37
M  V30 37 1 17 38
M  V30 38 2 38 39
M  V30 39 1 9 5
M  V30 40 1 39 10
M  V30 41 1 39 14
M  V30 42 1 37 18
M  V30 43 1 36 28
M  V30 44 1 36 31
M  V30 45 1 1 40
M  V30 46 1 1 41
M  V30 47 1 1 42
M  V30 48 1 3 43
M  V30 49 1 3 44
M  V30 50 1 3 45
M  V30 51 1 4 46
M  V30 52 1 4 47
M  V30 53 1 6 48
M  V30 54 1 7 49
M  V30 55 1 8 50
M  V30 56 1 10 51
M  V30 57 1 13 52
M  V30 58 1 15 53
M  V30 59 1 16 54
M  V30 60 1 19 55
M  V30 61 1 21 56
M  V30 62 1 24 57
M  V30 63 1 24 58
M  V30 64 1 25 59 CFG=3
M  V30 65 1 26 60
M  V30 66 1 26 61
M  V30 67 1 27 62
M  V30 68 1 27 63
M  V30 69 1 29 64
M  V30 70 1 30 65
M  V30 71 1 32 66
M  V30 72 1 33 67
M  V30 73 1 34 68
M  V30 74 1 35 69
M  V30 75 1 37 70
M  V30 76 1 38 71
M  V30 END BOND
M  V30 END CTAB
M  END
>  <Dataset>  (299) 
ChEMBL_Kinases

>  <Ligand_Instance>  (299) 
nan

>  <PDB_ID>  (299) 
nan

>  <Standardized_SMILES>  (299) 
CC(C)(Cc1cccs1)C1C(=O)Nc2ccc(-c3cncc(OC[C@@H](N)Cc4c[nH]c5ccccc45)c3)cc21

>  <Name>  (299) 
nan

>  <Pocket>  (299) 
nan

>  <ATP_Site>  (299) 
nan

>  <Peripheral>  (299) 
nan

>  <Num_H_Atoms_ProtBoundConf>  (299) 
nan

>  <Num_Resolved_Atoms>  (299) 
nan

>  <Num_Not_Resolved_Atoms>  (299) 
nan

$$$$
CHEMBL209830
     RDKit          3D

  0  0  0  0  0  0  0  0  0  0999 V3000
M  V30 BEGIN CTAB
M  V30 COUNTS 60 61 0 0 0
M  V30 BEGIN ATOM
M  V30 1 C -0.042245 -1.713776 4.991062 0
M  V30 2 C 0.659220 -1.241837 3.737419 0
M  V30 3 C 1.830840 -0.341440 4.057268 0
M  V30 4 C 2.446195 0.062082 2.722016 0
M  V30 5 C 3.652742 0.984262 2.929768 0
M  V30 6 C 4.230074 1.356996 1.549473 0
M  V30 7 C 3.105926 2.034606 0.869570 0
M  V30 8 C 2.457080 1.791772 -0.229398 0
M  V30 9 C 1.340320 2.428716 -0.944460 0
M  V30 10 C 0.784539 1.253512 -1.719721 0
M  V30 11 C -0.051597 1.707933 -2.879090 0
M  V30 12 O -1.175373 2.361221 -2.353229 0
M  V30 13 C 0.025786 0.275861 -0.829392 0
M  V30 14 O -0.226946 -0.849580 -1.619884 0
M  V30 15 C -0.872942 -2.005022 -1.292861 0
M  V30 16 O -0.901937 -1.308497 -0.254416 0
M  V30 17 C -0.874636 -2.880852 -2.486170 0
M  V30 18 C -1.559085 -4.185123 -2.325167 0
M  V30 19 C -3.004112 -4.191112 -2.028424 0
M  V30 20 C -3.456670 -3.522969 -0.817055 0
M  V30 21 C -3.879655 -2.200929 -0.869903 0
M  V30 22 C -4.326301 -1.497365 0.248599 0
M  V30 23 C -4.333729 -2.176550 1.438883 0
M  V30 24 C -3.934970 -3.479801 1.585249 0
M  V30 25 C -3.504661 -4.111793 0.429935 0
M  V30 26 O 1.963196 0.571487 -2.102663 0
M  V30 27 C 2.839112 0.639735 -1.036303 0
M  V30 28 O 3.765747 -0.192222 -0.881519 0
M  V30 29 H 0.025021 -1.013043 5.834772 0
M  V30 30 H 0.342398 -2.700681 5.354853 0
M  V30 31 H -1.140801 -1.885295 4.823963 0
M  V30 32 H 0.962707 -2.152408 3.183335 0
M  V30 33 H -0.086904 -0.715797 3.106692 0
M  V30 34 H 1.452743 0.513114 4.632035 0
M  V30 35 H 2.540941 -0.954386 4.641431 0
M  V30 36 H 1.658664 0.571083 2.164848 0
M  V30 37 H 2.813977 -0.851234 2.238648 0
M  V30 38 H 3.249108 1.893686 3.423813 0
M  V30 39 H 4.394954 0.538740 3.589264 0
M  V30 40 H 4.569181 0.418918 1.138854 0
M  V30 41 H 5.070415 2.075883 1.764477 0
M  V30 42 H 2.775691 2.919256 1.433774 0
M  V30 43 H 0.517096 2.788250 -0.306038 0
M  V30 44 H 1.669868 3.171009 -1.692909 0
M  V30 45 H 0.512344 2.446116 -3.449636 0
M  V30 46 H -0.377302 0.838532 -3.449908 0
M  V30 47 H -1.027694 3.330798 -2.292642 0
M  V30 48 H 0.696903 0.051694 0.030447 0
M  V30 49 H -0.911542 0.785263 -0.525956 0
M  V30 50 H 0.190848 -3.034856 -2.835728 0
M  V30 51 H -1.334756 -2.340721 -3.370073 0
M  V30 52 H -0.963569 -4.797246 -1.597514 0
M  V30 53 H -1.421851 -4.754692 -3.295407 0
M  V30 54 H -3.541289 -3.823119 -2.949426 0
M  V30 55 H -3.314658 -5.277291 -1.959936 0
M  V30 56 H -3.881643 -1.648235 -1.797119 0
M  V30 57 H -4.649900 -0.468003 0.177871 0
M  V30 58 H -4.676403 -1.651455 2.321676 0
M  V30 59 H -3.931591 -4.039072 2.516522 0
M  V30 60 H -3.182198 -5.149085 0.520300 0
M  V30 END ATOM
M  V30 BEGIN BOND
M  V30 1 1 1 2
M  V30 2 1 2 3
M  V30 3 1 3 4
M  V30 4 1 4 5
M  V30 5 1 5 6
M  V30 6 1 6 7
M  V30 7 2 7 8
M  V30 8 1 8 9
M  V30 9 1 9 10
M  V30 10 1 10 11
M  V30 11 1 11 12
M  V30 12 1 10 13
M  V30 13 1 13 14
M  V30 14 1 14 15
M  V30 15 2 15 16
M  V30 16 1 15 17
M  V30 17 1 17 18
M  V30 18 1 18 19
M  V30 19 1 19 20
M  V30 20 2 20 21
M  V30 21 1 21 22
M  V30 22 2 22 23
M  V30 23 1 23 24
M  V30 24 2 24 25
M  V30 25 1 10 26
M  V30 26 1 26 27
M  V30 27 2 27 28
M  V30 28 1 27 8
M  V30 29 1 25 20
M  V30 30 1 1 29
M  V30 31 1 1 30
M  V30 32 1 1 31
M  V30 33 1 2 32
M  V30 34 1 2 33
M  V30 35 1 3 34
M  V30 36 1 3 35
M  V30 37 1 4 36
M  V30 38 1 4 37
M  V30 39 1 5 38
M  V30 40 1 5 39
M  V30 41 1 6 40
M  V30 42 1 6 41
M  V30 43 1 7 42
M  V30 44 1 9 43
M  V30 45 1 9 44
M  V30 46 1 11 45
M  V30 47 1 11 46
M  V30 48 1 12 47
M  V30 49 1 13 48
M  V30 50 1 13 49
M  V30 51 1 17 50
M  V30 52 1 17 51
M  V30 53 1 18 52
M  V30 54 1 18 53
M  V30 55 1 19 54
M  V30 56 1 19 55
M  V30 57 1 21 56
M  V30 58 1 22 57
M  V30 59 1 23 58
M  V30 60 1 24 59
M  V30 61 1 25 60
M  V30 END BOND
M  V30 END CTAB
M  END
>  <Dataset>  (300) 
ChEMBL_Kinases

>  <Ligand_Instance>  (300) 
nan

>  <PDB_ID>  (300) 
nan

>  <Standardized_SMILES>  (300) 
CCCCCC/C=C1/CC(CO)(COC(=O)CCCc2ccccc2)OC1=O

>  <Name>  (300) 
nan

>  <Pocket>  (300) 
nan

>  <ATP_Site>  (300) 
nan

>  <Peripheral>  (300) 
nan

>  <Num_H_Atoms_ProtBoundConf>  (300) 
nan

>  <Num_Resolved_Atoms>  (300) 
nan

>  <Num_Not_Resolved_Atoms>  (300) 
nan

$$$$
CHEMBL209838
     RDKit          3D

  0  0  0  0  0  0  0  0  0  0999 V3000
M  V30 BEGIN CTAB
M  V30 COUNTS 42 44 0 0 0
M  V30 BEGIN ATOM
M  V30 1 C 2.178091 -6.111652 0.143985 0
M  V30 2 N 0.947402 -5.584093 -0.457898 0
M  V30 3 C 0.761772 -4.739338 -1.575431 0
M  V30 4 N 0.595937 -5.221615 -2.812585 0
M  V30 5 C 0.423282 -4.425265 -3.865799 0
M  V30 6 C 0.406169 -3.049298 -3.734638 0
M  V30 7 C 0.577626 -2.552929 -2.453831 0
M  V30 8 C 0.595919 -1.117414 -2.082921 0
M  V30 9 C 0.456486 0.005301 -2.895861 0
M  V30 10 C 0.517623 1.217803 -2.263483 0
M  V30 11 C 0.703014 1.266795 -0.931652 0
M  V30 12 C 0.799626 2.413364 -0.049459 0
M  V30 13 O 0.700695 3.573628 -0.569367 0
M  V30 14 N 0.996594 2.203497 1.330838 0
M  V30 15 C 1.092653 3.358488 2.206400 0
M  V30 16 C 1.298394 2.798423 3.614634 0
M  V30 17 C 0.184082 1.938162 4.042630 0
M  V30 18 C 0.270471 0.564760 4.070366 0
M  V30 19 C -0.756789 -0.291989 4.468130 0
M  V30 20 C -1.942807 0.289243 4.861149 0
M  V30 21 Cl -3.248806 -0.779407 5.366830 0
M  V30 22 C -2.084304 1.664874 4.852670 0
M  V30 23 C -1.023741 2.453211 4.445945 0
M  V30 24 Cl -1.297073 4.193295 4.469436 0
M  V30 25 S 0.810322 -0.418103 -0.438758 0
M  V30 26 N 0.743961 -3.421383 -1.456968 0
M  V30 27 H 3.007369 -5.393920 -0.012076 0
M  V30 28 H 2.450418 -7.073217 -0.300606 0
M  V30 29 H 1.962489 -6.285089 1.218986 0
M  V30 30 H -0.012709 -5.784614 -0.107232 0
M  V30 31 H 0.283754 -4.755026 -4.894036 0
M  V30 32 H 0.279790 -2.263618 -4.469185 0
M  V30 33 H 0.312370 -0.174256 -3.951243 0
M  V30 34 H 0.417842 2.140908 -2.830289 0
M  V30 35 H 1.066122 1.207653 1.670280 0
M  V30 36 H 0.151586 3.943795 2.182284 0
M  V30 37 H 1.973663 3.954557 1.939317 0
M  V30 38 H 2.211082 2.145944 3.548151 0
M  V30 39 H 1.554048 3.591442 4.336580 0
M  V30 40 H 1.191590 0.052736 3.766886 0
M  V30 41 H -0.637506 -1.358209 4.471142 0
M  V30 42 H -3.053614 2.030011 5.178392 0
M  V30 END ATOM
M  V30 BEGIN BOND
M  V30 1 1 1 2
M  V30 2 1 2 3
M  V30 3 2 3 4
M  V30 4 1 4 5
M  V30 5 2 5 6
M  V30 6 1 6 7
M  V30 7 1 7 8
M  V30 8 2 8 9
M  V30 9 1 9 10
M  V30 10 2 10 11
M  V30 11 1 11 12
M  V30 12 2 12 13
M  V30 13 1 12 14
M  V30 14 1 14 15
M  V30 15 1 15 16
M  V30 16 1 16 17
M  V30 17 2 17 18
M  V30 18 1 18 19
M  V30 19 2 19 20
M  V30 20 1 20 21
M  V30 21 1 20 22
M  V30 22 2 22 23
M  V30 23 1 23 24
M  V30 24 1 11 25
M  V30 25 2 7 26
M  V30 26 1 26 3
M  V30 27 1 25 8
M  V30 28 1 23 17
M  V30 29 1 1 27
M  V30 30 1 1 28
M  V30 31 1 1 29
M  V30 32 1 2 30
M  V30 33 1 5 31
M  V30 34 1 6 32
M  V30 35 1 9 33
M  V30 36 1 10 34
M  V30 37 1 14 35
M  V30 38 1 15 36
M  V30 39 1 15 37
M  V30 40 1 16 38
M  V30 41 1 16 39
M  V30 42 1 18 40
M  V30 43 1 19 41
M  V30 44 1 22 42
M  V30 END BOND
M  V30 END CTAB
M  END
>  <Dataset>  (301) 
ChEMBL_Kinases

>  <Ligand_Instance>  (301) 
nan

>  <PDB_ID>  (301) 
nan

>  <Standardized_SMILES>  (301) 
CNc1nccc(-c2ccc(C(=O)NCCc3ccc(Cl)cc3Cl)s2)n1

>  <Name>  (301) 
nan

>  <Pocket>  (301) 
nan

>  <ATP_Site>  (301) 
nan

>  <Peripheral>  (301) 
nan

>  <Num_H_Atoms_ProtBoundConf>  (301) 
nan

>  <Num_Resolved_Atoms>  (301) 
nan

>  <Num_Not_Resolved_Atoms>  (301) 
nan

$$$$
CHEMBL209845
     RDKit          3D

  0  0  0  0  0  0  0  0  0  0999 V3000
M  V30 BEGIN CTAB
M  V30 COUNTS 22 23 0 0 0
M  V30 BEGIN ATOM
M  V30 1 N -0.722421 -3.186099 2.953078 0
M  V30 2 C 0.088823 -2.838917 2.204084 0
M  V30 3 C 1.099547 -2.419905 1.293072 0
M  V30 4 C 2.276560 -3.099793 1.212228 0
M  V30 5 O 2.738266 -4.209834 1.902426 0
M  V30 6 N 3.308331 -2.691367 0.283517 0
M  V30 7 S 2.506713 -1.247452 -0.500736 0
M  V30 8 C 1.016857 -1.367127 0.439321 0
M  V30 9 N -0.032998 -0.398235 0.223988 0
M  V30 10 C -0.266910 0.934613 0.649242 0
M  V30 11 C -0.355110 1.735823 -0.503022 0
M  V30 12 C -0.576302 3.095590 -0.426839 0
M  V30 13 Cl -0.706119 4.192659 -1.775347 0
M  V30 14 C -0.714366 3.686529 0.803934 0
M  V30 15 C -0.629800 2.916594 1.945290 0
M  V30 16 C -0.409555 1.562738 1.860946 0
M  V30 17 Cl -0.276780 0.449237 3.199992 0
M  V30 18 H 3.167008 -4.207821 2.808675 0
M  V30 19 H -0.737709 -0.889569 -0.404395 0
M  V30 20 H -0.271938 1.442733 -1.561348 0
M  V30 21 H -0.890459 4.742203 0.951744 0
M  V30 22 H -0.725112 3.289819 2.956406 0
M  V30 END ATOM
M  V30 BEGIN BOND
M  V30 1 3 1 2
M  V30 2 1 2 3
M  V30 3 1 3 4
M  V30 4 1 4 5
M  V30 5 2 4 6
M  V30 6 1 6 7
M  V30 7 1 7 8
M  V30 8 1 8 9
M  V30 9 1 9 10
M  V30 10 2 10 11
M  V30 11 1 11 12
M  V30 12 1 12 13
M  V30 13 2 12 14
M  V30 14 1 14 15
M  V30 15 2 15 16
M  V30 16 1 16 17
M  V30 17 2 8 3
M  V30 18 1 16 10
M  V30 19 1 5 18
M  V30 20 1 9 19
M  V30 21 1 11 20
M  V30 22 1 14 21
M  V30 23 1 15 22
M  V30 END BOND
M  V30 END CTAB
M  END
>  <Dataset>  (302) 
ChEMBL_Kinases

>  <Ligand_Instance>  (302) 
nan

>  <PDB_ID>  (302) 
nan

>  <Standardized_SMILES>  (302) 
N#Cc1c(O)nsc1Nc1cc(Cl)ccc1Cl

>  <Name>  (302) 
nan

>  <Pocket>  (302) 
nan

>  <ATP_Site>  (302) 
nan

>  <Peripheral>  (302) 
nan

>  <Num_H_Atoms_ProtBoundConf>  (302) 
nan

>  <Num_Resolved_Atoms>  (302) 
nan

>  <Num_Not_Resolved_Atoms>  (302) 
nan

$$$$
CHEMBL209868
     RDKit          3D

  0  0  0  0  0  0  0  0  0  0999 V3000
M  V30 BEGIN CTAB
M  V30 COUNTS 35 36 0 0 0
M  V30 BEGIN ATOM
M  V30 1 C 0.368755 -2.844399 2.888238 0
M  V30 2 C 1.418130 -3.314738 1.922744 0
M  V30 3 C 0.999133 -4.711642 1.444994 0
M  V30 4 N 1.588521 -2.498069 0.762347 0
M  V30 5 C 1.367118 -1.262063 0.638629 0
M  V30 6 N 0.893978 -0.521332 1.721367 0
M  V30 7 C 1.548243 -0.416283 -0.533344 0
M  V30 8 C 2.040537 -1.084417 -1.662979 0
M  V30 9 O 2.376765 -2.414314 -1.870205 0
M  V30 10 N 2.294147 -0.509701 -2.846645 0
M  V30 11 S 1.801053 1.249750 -2.428947 0
M  V30 12 C 1.372240 0.866751 -0.814316 0
M  V30 13 N 0.843188 1.781539 0.219404 0
M  V30 14 C -0.532045 2.131566 0.123828 0
M  V30 15 C -1.333210 1.831247 -0.983539 0
M  V30 16 C -2.681411 2.210024 -1.000436 0
M  V30 17 C -3.245974 2.895068 0.091267 0
M  V30 18 I -5.293313 3.430063 -0.019984 0
M  V30 19 C -2.459398 3.202856 1.206247 0
M  V30 20 C -1.144015 2.802217 1.158256 0
M  V30 21 H -0.019056 -3.773696 3.397666 0
M  V30 22 H -0.482253 -2.427711 2.325542 0
M  V30 23 H 0.767816 -2.142161 3.657754 0
M  V30 24 H 2.392461 -3.428654 2.484810 0
M  V30 25 H -0.095674 -4.750947 1.313916 0
M  V30 26 H 1.453948 -4.920250 0.444597 0
M  V30 27 H 1.336895 -5.473618 2.148467 0
M  V30 28 H 0.620028 -0.017989 2.584118 0
M  V30 29 H 0.224020 0.176867 2.106905 0
M  V30 30 H 1.681514 -3.165509 -1.836022 0
M  V30 31 H 1.407821 2.172761 0.991810 0
M  V30 32 H -0.873020 1.303359 -1.814252 0
M  V30 33 H -3.302807 1.973760 -1.872762 0
M  V30 34 H -2.910556 3.734263 2.050523 0
M  V30 35 H -0.529416 3.043948 2.029293 0
M  V30 END ATOM
M  V30 BEGIN BOND
M  V30 1 1 1 2
M  V30 2 1 2 3
M  V30 3 1 2 4
M  V30 4 2 4 5
M  V30 5 1 5 6
M  V30 6 1 5 7
M  V30 7 1 7 8
M  V30 8 1 8 9
M  V30 9 2 8 10
M  V30 10 1 10 11
M  V30 11 1 11 12
M  V30 12 1 12 13
M  V30 13 1 13 14
M  V30 14 2 14 15
M  V30 15 1 15 16
M  V30 16 2 16 17
M  V30 17 1 17 18
M  V30 18 1 17 19
M  V30 19 2 19 20
M  V30 20 2 12 7
M  V30 21 1 20 14
M  V30 22 1 1 21
M  V30 23 1 1 22
M  V30 24 1 1 23
M  V30 25 1 2 24
M  V30 26 1 3 25
M  V30 27 1 3 26
M  V30 28 1 3 27
M  V30 29 1 6 28
M  V30 30 1 6 29
M  V30 31 1 9 30
M  V30 32 1 13 31
M  V30 33 1 15 32
M  V30 34 1 16 33
M  V30 35 1 19 34
M  V30 36 1 20 35
M  V30 END BOND
M  V30 END CTAB
M  END
>  <Dataset>  (303) 
ChEMBL_Kinases

>  <Ligand_Instance>  (303) 
nan

>  <PDB_ID>  (303) 
nan

>  <Standardized_SMILES>  (303) 
CC(C)/N=C(\N)c1c(O)nsc1Nc1ccc(I)cc1

>  <Name>  (303) 
nan

>  <Pocket>  (303) 
nan

>  <ATP_Site>  (303) 
nan

>  <Peripheral>  (303) 
nan

>  <Num_H_Atoms_ProtBoundConf>  (303) 
nan

>  <Num_Resolved_Atoms>  (303) 
nan

>  <Num_Not_Resolved_Atoms>  (303) 
nan

$$$$
CHEMBL209894
     RDKit          3D

  0  0  0  0  0  0  0  0  0  0999 V3000
M  V30 BEGIN CTAB
M  V30 COUNTS 36 40 0 0 0
M  V30 BEGIN ATOM
M  V30 1 O 3.867367 -0.781443 2.096294 0
M  V30 2 C 3.031193 -1.277923 1.307467 0
M  V30 3 O 3.176603 -2.442442 0.527267 0
M  V30 4 C 2.026775 -2.653779 -0.210031 0
M  V30 5 O 2.068417 -3.660109 -0.926738 0
M  V30 6 C 1.067706 -1.627317 0.056818 0
M  V30 7 C 1.693862 -0.814348 0.969486 0
M  V30 8 C 1.059066 0.301587 1.472648 0
M  V30 9 C 1.549640 1.291794 2.417415 0
M  V30 10 C 2.724098 2.015051 2.414875 0
M  V30 11 C 3.025290 2.903242 3.407889 0
M  V30 12 C 2.159836 3.114221 4.460881 0
M  V30 13 C 0.969594 2.430354 4.532004 0
M  V30 14 C 0.708088 1.544747 3.508461 0
M  V30 15 C -0.238662 0.578316 1.026710 0
M  V30 16 C -0.843444 -0.255736 0.109557 0
M  V30 17 N -2.054705 -0.227820 -0.476649 0
M  V30 18 C -2.134366 -1.306061 -1.310894 0
M  V30 19 C -3.210982 -1.663175 -2.113428 0
M  V30 20 C -3.146635 -2.802990 -2.921044 0
M  V30 21 C -1.971099 -3.562582 -2.891788 0
M  V30 22 O -1.886819 -4.697131 -3.685549 0
M  V30 23 C -0.952039 -3.143276 -2.072260 0
M  V30 24 C -0.970446 -2.042492 -1.270358 0
M  V30 25 C -0.191612 -1.364258 -0.380509 0
M  V30 26 H 3.359388 1.817167 1.563609 0
M  V30 27 H 3.982573 3.392948 3.265404 0
M  V30 28 H 2.474389 3.839120 5.211409 0
M  V30 29 H 0.292151 2.584261 5.340025 0
M  V30 30 H -0.255293 1.019748 3.606327 0
M  V30 31 H -0.829519 1.435378 1.362166 0
M  V30 32 H -2.790348 0.504317 -0.305795 0
M  V30 33 H -4.105694 -1.065901 -2.121594 0
M  V30 34 H -4.003653 -3.048327 -3.531188 0
M  V30 35 H -1.339115 -4.712529 -4.552530 0
M  V30 36 H -0.097939 -3.749483 -2.091373 0
M  V30 END ATOM
M  V30 BEGIN BOND
M  V30 1 2 1 2
M  V30 2 1 2 3
M  V30 3 1 3 4
M  V30 4 2 4 5
M  V30 5 1 4 6
M  V30 6 2 6 7
M  V30 7 1 7 8
M  V30 8 1 8 9
M  V30 9 2 9 10
M  V30 10 1 10 11
M  V30 11 2 11 12
M  V30 12 1 12 13
M  V30 13 2 13 14
M  V30 14 2 8 15
M  V30 15 1 15 16
M  V30 16 1 16 17
M  V30 17 1 17 18
M  V30 18 2 18 19
M  V30 19 1 19 20
M  V30 20 2 20 21
M  V30 21 1 21 22
M  V30 22 1 21 23
M  V30 23 2 23 24
M  V30 24 1 24 25
M  V30 25 1 7 2
M  V30 26 1 14 9
M  V30 27 2 25 16
M  V30 28 1 25 6
M  V30 29 1 24 18
M  V30 30 1 10 26
M  V30 31 1 11 27
M  V30 32 1 12 28
M  V30 33 1 13 29
M  V30 34 1 14 30
M  V30 35 1 15 31
M  V30 36 1 17 32
M  V30 37 1 19 33
M  V30 38 1 20 34
M  V30 39 1 22 35
M  V30 40 1 23 36
M  V30 END BOND
M  V30 END CTAB
M  END
>  <Dataset>  (304) 
ChEMBL_Kinases

>  <Ligand_Instance>  (304) 
nan

>  <PDB_ID>  (304) 
nan

>  <Standardized_SMILES>  (304) 
O=C1OC(=O)c2c1c(-c1ccccc1)cc1[nH]c3ccc(O)cc3c21

>  <Name>  (304) 
nan

>  <Pocket>  (304) 
nan

>  <ATP_Site>  (304) 
nan

>  <Peripheral>  (304) 
nan

>  <Num_H_Atoms_ProtBoundConf>  (304) 
nan

>  <Num_Resolved_Atoms>  (304) 
nan

>  <Num_Not_Resolved_Atoms>  (304) 
nan

$$$$
CHEMBL209779
     RDKit          3D

  0  0  0  0  0  0  0  0  0  0999 V3000
M  V30 BEGIN CTAB
M  V30 COUNTS 60 61 0 0 0
M  V30 BEGIN ATOM
M  V30 1 C -5.811338 2.617181 -1.855032 0
M  V30 2 C -4.838431 1.809895 -1.037817 0
M  V30 3 C -5.555137 0.658107 -0.406738 0
M  V30 4 C -3.669814 1.316585 -1.872598 0
M  V30 5 C -2.796443 0.543893 -0.952050 0
M  V30 6 C -1.584091 -0.041837 -1.518014 0
M  V30 7 O -0.644542 0.771116 -1.470246 0
M  V30 8 O -1.656836 -1.304217 -1.982180 0
M  V30 9 C -0.690942 -2.090664 -2.542825 0
M  V30 10 C 0.459711 -2.571455 -1.758158 0
M  V30 11 C 1.314159 -3.481577 -2.658172 0
M  V30 12 O 0.614790 -4.568492 -3.126455 0
M  V30 13 C 1.398173 -1.596682 -1.152705 0
M  V30 14 C 0.852502 -1.431474 0.235834 0
M  V30 15 C 1.261496 -0.570794 1.155981 0
M  V30 16 C 2.368446 0.374751 0.889932 0
M  V30 17 C 3.487774 0.163030 1.841326 0
M  V30 18 C 3.522754 0.857967 3.045716 0
M  V30 19 C 4.562776 0.662542 3.932103 0
M  V30 20 C 5.570093 -0.240666 3.595156 0
M  V30 21 C 5.541545 -0.935328 2.398729 0
M  V30 22 C 4.500077 -0.740091 1.510427 0
M  V30 23 C -0.222499 -2.406466 0.376877 0
M  V30 24 O -1.138335 -2.356425 1.266829 0
M  V30 25 O 0.005929 -3.325304 -0.637182 0
M  V30 26 C -3.018095 2.429734 -2.634262 0
M  V30 27 C -2.451309 3.528057 -1.767238 0
M  V30 28 C -2.079990 1.970995 -3.721286 0
M  V30 29 H -6.760069 2.655184 -1.280376 0
M  V30 30 H -6.038900 2.196890 -2.838772 0
M  V30 31 H -5.490913 3.698331 -1.909998 0
M  V30 32 H -4.451259 2.466737 -0.238535 0
M  V30 33 H -5.433161 -0.250562 -1.042452 0
M  V30 34 H -6.624398 0.935674 -0.317375 0
M  V30 35 H -5.092066 0.456112 0.579290 0
M  V30 36 H -4.088818 0.620689 -2.627702 0
M  V30 37 H -2.615840 1.207487 -0.055012 0
M  V30 38 H -3.455782 -0.266800 -0.514387 0
M  V30 39 H -0.290662 -1.627468 -3.507318 0
M  V30 40 H -1.230896 -3.019454 -2.917373 0
M  V30 41 H 2.222791 -3.744129 -2.086031 0
M  V30 42 H 1.639615 -2.859705 -3.519309 0
M  V30 43 H 0.129729 -4.291473 -3.934896 0
M  V30 44 H 2.390183 -2.118379 -0.995253 0
M  V30 45 H 1.535118 -0.674034 -1.703417 0
M  V30 46 H 0.776152 -0.563071 2.114045 0
M  V30 47 H 2.005174 1.430405 0.933292 0
M  V30 48 H 2.788606 0.225448 -0.123344 0
M  V30 49 H 2.738952 1.560526 3.307442 0
M  V30 50 H 4.626584 1.188004 4.886625 0
M  V30 51 H 6.403993 -0.421865 4.264450 0
M  V30 52 H 6.324292 -1.644529 2.124149 0
M  V30 53 H 4.470403 -1.285544 0.562734 0
M  V30 54 H -3.876240 2.937944 -3.182904 0
M  V30 55 H -2.704276 4.547346 -2.131654 0
M  V30 56 H -1.332827 3.464023 -1.907545 0
M  V30 57 H -2.741094 3.469691 -0.717200 0
M  V30 58 H -1.097497 2.461572 -3.567916 0
M  V30 59 H -2.409908 2.341788 -4.737453 0
M  V30 60 H -2.030914 0.869115 -3.825765 0
M  V30 END ATOM
M  V30 BEGIN BOND
M  V30 1 1 1 2
M  V30 2 1 2 3
M  V30 3 1 2 4
M  V30 4 1 4 5
M  V30 5 1 5 6
M  V30 6 2 6 7
M  V30 7 1 6 8
M  V30 8 1 8 9
M  V30 9 1 9 10
M  V30 10 1 10 11
M  V30 11 1 11 12
M  V30 12 1 10 13
M  V30 13 1 13 14
M  V30 14 2 14 15
M  V30 15 1 15 16
M  V30 16 1 16 17
M  V30 17 2 17 18
M  V30 18 1 18 19
M  V30 19 2 19 20
M  V30 20 1 20 21
M  V30 21 2 21 22
M  V30 22 1 14 23
M  V30 23 2 23 24
M  V30 24 1 23 25
M  V30 25 1 4 26
M  V30 26 1 26 27
M  V30 27 1 26 28
M  V30 28 1 25 10
M  V30 29 1 22 17
M  V30 30 1 1 29
M  V30 31 1 1 30
M  V30 32 1 1 31
M  V30 33 1 2 32
M  V30 34 1 3 33
M  V30 35 1 3 34
M  V30 36 1 3 35
M  V30 37 1 4 36
M  V30 38 1 5 37
M  V30 39 1 5 38
M  V30 40 1 9 39
M  V30 41 1 9 40
M  V30 42 1 11 41
M  V30 43 1 11 42
M  V30 44 1 12 43
M  V30 45 1 13 44
M  V30 46 1 13 45
M  V30 47 1 15 46
M  V30 48 1 16 47
M  V30 49 1 16 48
M  V30 50 1 18 49
M  V30 51 1 19 50
M  V30 52 1 20 51
M  V30 53 1 21 52
M  V30 54 1 22 53
M  V30 55 1 26 54
M  V30 56 1 27 55
M  V30 57 1 27 56
M  V30 58 1 27 57
M  V30 59 1 28 58
M  V30 60 1 28 59
M  V30 61 1 28 60
M  V30 END BOND
M  V30 END CTAB
M  END
>  <Dataset>  (305) 
ChEMBL_Kinases

>  <Ligand_Instance>  (305) 
nan

>  <PDB_ID>  (305) 
nan

>  <Standardized_SMILES>  (305) 
CC(C)C(CC(=O)OCC1(CO)C/C(=C\Cc2ccccc2)C(=O)O1)C(C)C

>  <Name>  (305) 
nan

>  <Pocket>  (305) 
nan

>  <ATP_Site>  (305) 
nan

>  <Peripheral>  (305) 
nan

>  <Num_H_Atoms_ProtBoundConf>  (305) 
nan

>  <Num_Resolved_Atoms>  (305) 
nan

>  <Num_Not_Resolved_Atoms>  (305) 
nan

$$$$
CHEMBL211065
     RDKit          3D

  0  0  0  0  0  0  0  0  0  0999 V3000
M  V30 BEGIN CTAB
M  V30 COUNTS 77 82 0 0 0
M  V30 BEGIN ATOM
M  V30 1 C 2.912598 -0.340317 8.533201 0
M  V30 2 C 3.518067 0.213027 7.294794 0
M  V30 3 C 3.262703 1.242224 6.413270 0
M  V30 4 C 4.242293 1.235195 5.411566 0
M  V30 5 C 4.180588 2.258338 4.336490 0
M  V30 6 C 3.353366 1.729502 3.212609 0
M  V30 7 C 4.052199 0.456039 2.718936 0
M  V30 8 C 1.961786 1.436261 3.685252 0
M  V30 9 C 3.271520 2.634726 2.010897 0
M  V30 10 C 2.687594 3.961260 2.349020 0
M  V30 11 O 3.269337 4.796740 3.091405 0
M  V30 12 N 1.415977 4.202456 1.760385 0
M  V30 13 C 1.148211 3.016275 1.004432 0
M  V30 14 C 0.011360 2.802271 0.253041 0
M  V30 15 C -0.132552 1.617925 -0.438319 0
M  V30 16 C 0.878615 0.686418 -0.347932 0
M  V30 17 C 0.691553 -0.552154 -1.089388 0
M  V30 18 C 1.830084 -1.167131 -1.566281 0
M  V30 19 N 1.728856 -2.315625 -2.258942 0
M  V30 20 C 0.538240 -2.888215 -2.502923 0
M  V30 21 C -0.653878 -2.350281 -2.068524 0
M  V30 22 O -1.951470 -2.685898 -2.159375 0
M  V30 23 C -2.631369 -3.726817 -2.743695 0
M  V30 24 C -2.525043 -3.902989 -4.212711 0 CFG=1
M  V30 25 N -3.312023 -5.038840 -4.617572 0
M  V30 26 C -2.881222 -2.713897 -5.028361 0
M  V30 27 C -4.244254 -2.199281 -4.877697 0
M  V30 28 C -4.563062 -1.092261 -4.079445 0
M  V30 29 N -5.880513 -0.817995 -4.081848 0
M  V30 30 C -6.482382 -1.739181 -4.886664 0
M  V30 31 C -7.792304 -1.958565 -5.272476 0
M  V30 32 C -8.109780 -3.003152 -6.132467 0
M  V30 33 C -7.091498 -3.832625 -6.605836 0
M  V30 34 C -5.793970 -3.592327 -6.205652 0
M  V30 35 C -5.495860 -2.550867 -5.350641 0
M  V30 36 C -0.545193 -1.149750 -1.344600 0
M  V30 37 C 1.980243 0.941244 0.404737 0
M  V30 38 C 2.188793 2.106655 1.122968 0
M  V30 39 O 5.016553 0.246855 5.712888 0
M  V30 40 C 4.653110 -0.389975 6.795823 0
M  V30 41 C 5.531652 -1.531412 7.160331 0
M  V30 42 H 3.587321 -0.166314 9.388595 0
M  V30 43 H 2.687894 -1.421134 8.437044 0
M  V30 44 H 1.935490 0.148610 8.718141 0
M  V30 45 H 2.383528 1.869685 6.620805 0
M  V30 46 H 3.768019 3.218132 4.726578 0
M  V30 47 H 5.219520 2.421842 3.966251 0
M  V30 48 H 3.353230 -0.397846 2.646635 0
M  V30 49 H 4.853283 0.123533 3.417046 0
M  V30 50 H 4.605675 0.642298 1.757584 0
M  V30 51 H 1.965098 0.460372 4.223332 0
M  V30 52 H 1.227464 1.371633 2.843468 0
M  V30 53 H 1.607528 2.239288 4.357384 0
M  V30 54 H 4.213723 2.704226 1.438296 0
M  V30 55 H 0.849512 5.061792 1.882077 0
M  V30 56 H -0.790247 3.523571 0.172726 0
M  V30 57 H -1.018284 1.457997 -1.020997 0
M  V30 58 H 2.850706 -0.833472 -1.453063 0
M  V30 59 H 0.384604 -3.805236 -3.042785 0
M  V30 60 H -2.200235 -4.674630 -2.292983 0
M  V30 61 H -3.709773 -3.791421 -2.408225 0
M  V30 62 H -1.450371 -4.143886 -4.465067 0
M  V30 63 H -2.874777 -5.505177 -5.441809 0
M  V30 64 H -3.291947 -5.729528 -3.811700 0
M  V30 65 H -2.716183 -3.032814 -6.103416 0
M  V30 66 H -2.169766 -1.863998 -4.915835 0
M  V30 67 H -3.845398 -0.495388 -3.504613 0
M  V30 68 H -6.340306 -0.051718 -3.567996 0
M  V30 69 H -8.524197 -1.283960 -4.872034 0
M  V30 70 H -9.168449 -3.133205 -6.407373 0
M  V30 71 H -7.374836 -4.645336 -7.282191 0
M  V30 72 H -5.043515 -4.248791 -6.598288 0
M  V30 73 H -1.343710 -0.548571 -0.905744 0
M  V30 74 H 2.702859 0.163610 0.410609 0
M  V30 75 H 5.107004 -2.118448 8.001315 0
M  V30 76 H 6.548956 -1.210329 7.470376 0
M  V30 77 H 5.633393 -2.262231 6.320836 0
M  V30 END ATOM
M  V30 BEGIN BOND
M  V30 1 1 1 2
M  V30 2 1 2 3
M  V30 3 2 3 4
M  V30 4 1 4 5
M  V30 5 1 5 6
M  V30 6 1 6 7
M  V30 7 1 6 8
M  V30 8 1 6 9
M  V30 9 1 9 10
M  V30 10 2 10 11
M  V30 11 1 10 12
M  V30 12 1 12 13
M  V30 13 2 13 14
M  V30 14 1 14 15
M  V30 15 2 15 16
M  V30 16 1 16 17
M  V30 17 2 17 18
M  V30 18 1 18 19
M  V30 19 2 19 20
M  V30 20 1 20 21
M  V30 21 1 21 22
M  V30 22 1 22 23
M  V30 23 1 23 24
M  V30 24 1 24 25
M  V30 25 1 24 26
M  V30 26 1 26 27
M  V30 27 2 27 28
M  V30 28 1 28 29
M  V30 29 1 29 30
M  V30 30 2 30 31
M  V30 31 1 31 32
M  V30 32 2 32 33
M  V30 33 1 33 34
M  V30 34 2 34 35
M  V30 35 2 21 36
M  V30 36 1 16 37
M  V30 37 2 37 38
M  V30 38 1 4 39
M  V30 39 1 39 40
M  V30 40 1 40 41
M  V30 41 2 40 2
M  V30 42 1 38 9
M  V30 43 1 38 13
M  V30 44 1 36 17
M  V30 45 1 35 27
M  V30 46 1 35 30
M  V30 47 1 1 42
M  V30 48 1 1 43
M  V30 49 1 1 44
M  V30 50 1 3 45
M  V30 51 1 5 46
M  V30 52 1 5 47
M  V30 53 1 7 48
M  V30 54 1 7 49
M  V30 55 1 7 50
M  V30 56 1 8 51
M  V30 57 1 8 52
M  V30 58 1 8 53
M  V30 59 1 9 54
M  V30 60 1 12 55
M  V30 61 1 14 56
M  V30 62 1 15 57
M  V30 63 1 18 58
M  V30 64 1 20 59
M  V30 65 1 23 60
M  V30 66 1 23 61
M  V30 67 1 24 62 CFG=1
M  V30 68 1 25 63
M  V30 69 1 25 64
M  V30 70 1 26 65
M  V30 71 1 26 66
M  V30 72 1 28 67
M  V30 73 1 29 68
M  V30 74 1 31 69
M  V30 75 1 32 70
M  V30 76 1 33 71
M  V30 77 1 34 72
M  V30 78 1 36 73
M  V30 79 1 37 74
M  V30 80 1 41 75
M  V30 81 1 41 76
M  V30 82 1 41 77
M  V30 END BOND
M  V30 END CTAB
M  END
>  <Dataset>  (306) 
ChEMBL_Kinases

>  <Ligand_Instance>  (306) 
nan

>  <PDB_ID>  (306) 
nan

>  <Standardized_SMILES>  (306) 
Cc1cc(CC(C)(C)C2C(=O)Nc3ccc(-c4cncc(OC[C@@H](N)Cc5c[nH]c6ccccc56)c4)cc32)oc1C

>  <Name>  (306) 
nan

>  <Pocket>  (306) 
nan

>  <ATP_Site>  (306) 
nan

>  <Peripheral>  (306) 
nan

>  <Num_H_Atoms_ProtBoundConf>  (306) 
nan

>  <Num_Resolved_Atoms>  (306) 
nan

>  <Num_Not_Resolved_Atoms>  (306) 
nan

$$$$
CHEMBL211049
     RDKit          3D

  0  0  0  0  0  0  0  0  0  0999 V3000
M  V30 BEGIN CTAB
M  V30 COUNTS 58 59 0 0 0
M  V30 BEGIN ATOM
M  V30 1 C -1.031931 -3.517218 3.248800 0
M  V30 2 C 0.258805 -2.894507 2.907571 0
M  V30 3 C 0.179280 -1.425984 3.376802 0
M  V30 4 C 0.533105 -2.849188 1.400825 0
M  V30 5 C 1.868878 -2.110756 1.284274 0
M  V30 6 C 2.332425 -1.903814 -0.060381 0
M  V30 7 C 2.370040 -0.596528 -0.442895 0
M  V30 8 C 1.971588 0.536388 0.435015 0
M  V30 9 C 2.126504 1.752130 -0.437442 0
M  V30 10 C 3.403444 2.502219 -0.112328 0
M  V30 11 O 3.471981 3.593006 -0.974062 0
M  V30 12 C 0.939253 2.649069 -0.168168 0
M  V30 13 O -0.241772 1.929205 -0.497594 0
M  V30 14 C -1.502479 2.475641 -0.362090 0
M  V30 15 O -1.670422 3.645209 0.062312 0
M  V30 16 C -2.688682 1.677830 -0.720675 0
M  V30 17 C -2.524187 0.385128 -1.190896 0
M  V30 18 C -3.623527 -0.387258 -1.535444 0
M  V30 19 C -4.897908 0.136153 -1.409187 0
M  V30 20 C -5.010704 1.432659 -0.934810 0
M  V30 21 C -3.938005 2.252778 -0.573990 0
M  V30 22 O -4.117498 3.529553 -0.110464 0
M  V30 23 O 2.211682 1.349662 -1.769134 0
M  V30 24 C 2.772967 0.057272 -1.712830 0
M  V30 25 O 3.515796 -0.547511 -2.554264 0
M  V30 26 C 0.542623 -4.173724 0.765154 0
M  V30 27 C -0.727762 -4.985112 0.832472 0
M  V30 28 C 0.995545 -4.229374 -0.679565 0
M  V30 29 H -1.536543 -2.914845 4.122236 0
M  V30 30 H -1.834615 -3.481919 2.503880 0
M  V30 31 H -0.877611 -4.505002 3.749861 0
M  V30 32 H 1.122673 -3.382410 3.430210 0
M  V30 33 H -0.549350 -1.351275 4.210195 0
M  V30 34 H -0.179857 -0.763550 2.585948 0
M  V30 35 H 1.155558 -1.119785 3.833730 0
M  V30 36 H -0.249933 -2.211191 0.962767 0
M  V30 37 H 2.603553 -2.703503 1.916457 0
M  V30 38 H 1.721454 -1.183435 1.875577 0
M  V30 39 H 2.706466 -2.434228 -0.917160 0
M  V30 40 H 0.956502 0.431396 0.842629 0
M  V30 41 H 2.645173 0.659793 1.305981 0
M  V30 42 H 3.398030 2.882464 0.924719 0
M  V30 43 H 4.283511 1.863020 -0.328868 0
M  V30 44 H 3.248981 3.245494 -1.881799 0
M  V30 45 H 0.897701 2.816924 0.924424 0
M  V30 46 H 1.001740 3.629208 -0.659755 0
M  V30 47 H -1.558138 -0.071046 -1.308619 0
M  V30 48 H -3.568472 -1.401486 -1.908308 0
M  V30 49 H -5.800628 -0.399906 -1.655732 0
M  V30 50 H -5.997274 1.850060 -0.832541 0
M  V30 51 H -4.539400 3.683363 0.795885 0
M  V30 52 H 1.309972 -4.814999 1.317787 0
M  V30 53 H -0.934709 -5.500663 1.754513 0
M  V30 54 H -0.649440 -5.798776 0.003322 0
M  V30 55 H -1.588641 -4.403464 0.469622 0
M  V30 56 H 0.379431 -5.052525 -1.194251 0
M  V30 57 H 2.015613 -4.562777 -0.831234 0
M  V30 58 H 0.643822 -3.325715 -1.191213 0
M  V30 END ATOM
M  V30 BEGIN BOND
M  V30 1 1 1 2
M  V30 2 1 2 3
M  V30 3 1 2 4
M  V30 4 1 4 5
M  V30 5 1 5 6
M  V30 6 2 6 7
M  V30 7 1 7 8
M  V30 8 1 8 9
M  V30 9 1 9 10
M  V30 10 1 10 11
M  V30 11 1 9 12
M  V30 12 1 12 13
M  V30 13 1 13 14
M  V30 14 2 14 15
M  V30 15 1 14 16
M  V30 16 2 16 17
M  V30 17 1 17 18
M  V30 18 2 18 19
M  V30 19 1 19 20
M  V30 20 2 20 21
M  V30 21 1 21 22
M  V30 22 1 9 23
M  V30 23 1 23 24
M  V30 24 2 24 25
M  V30 25 1 4 26
M  V30 26 1 26 27
M  V30 27 1 26 28
M  V30 28 1 24 7
M  V30 29 1 21 16
M  V30 30 1 1 29
M  V30 31 1 1 30
M  V30 32 1 1 31
M  V30 33 1 2 32
M  V30 34 1 3 33
M  V30 35 1 3 34
M  V30 36 1 3 35
M  V30 37 1 4 36
M  V30 38 1 5 37
M  V30 39 1 5 38
M  V30 40 1 6 39
M  V30 41 1 8 40
M  V30 42 1 8 41
M  V30 43 1 10 42
M  V30 44 1 10 43
M  V30 45 1 11 44
M  V30 46 1 12 45
M  V30 47 1 12 46
M  V30 48 1 17 47
M  V30 49 1 18 48
M  V30 50 1 19 49
M  V30 51 1 20 50
M  V30 52 1 22 51
M  V30 53 1 26 52
M  V30 54 1 27 53
M  V30 55 1 27 54
M  V30 56 1 27 55
M  V30 57 1 28 56
M  V30 58 1 28 57
M  V30 59 1 28 58
M  V30 END BOND
M  V30 END CTAB
M  END
>  <Dataset>  (307) 
ChEMBL_Kinases

>  <Ligand_Instance>  (307) 
nan

>  <PDB_ID>  (307) 
nan

>  <Standardized_SMILES>  (307) 
CC(C)C(C/C=C1\CC(CO)(COC(=O)c2ccccc2O)OC1=O)C(C)C

>  <Name>  (307) 
nan

>  <Pocket>  (307) 
nan

>  <ATP_Site>  (307) 
nan

>  <Peripheral>  (307) 
nan

>  <Num_H_Atoms_ProtBoundConf>  (307) 
nan

>  <Num_Resolved_Atoms>  (307) 
nan

>  <Num_Not_Resolved_Atoms>  (307) 
nan

$$$$
CHEMBL2110353
     RDKit          3D

  0  0  0  0  0  0  0  0  0  0999 V3000
M  V30 BEGIN CTAB
M  V30 COUNTS 43 46 0 0 0
M  V30 BEGIN ATOM
M  V30 1 C -2.543128 -1.991533 1.879892 0
M  V30 2 C -1.170448 -1.448580 2.272459 0
M  V30 3 C -0.196125 -2.552922 2.191805 0
M  V30 4 C 1.206258 -2.191233 1.805274 0
M  V30 5 C 1.645119 -2.883433 0.511582 0
M  V30 6 C 1.451063 -1.908680 -0.621357 0
M  V30 7 O 2.188511 -1.733723 -1.564133 0
M  V30 8 C 0.183946 -1.102374 -0.498979 0
M  V30 9 C -0.220140 -0.452710 -1.786474 0
M  V30 10 C 0.355816 0.886179 -2.052191 0
M  V30 11 C 0.283589 1.737579 -0.814873 0
M  V30 12 N 0.675729 1.139068 0.392200 0
M  V30 13 C 1.875333 1.642359 0.990204 0
M  V30 14 C 1.864427 1.498520 2.493798 0
M  V30 15 C 1.570947 0.081396 2.844802 0
M  V30 16 C 1.414743 -0.724419 1.598534 0
M  V30 17 C 0.325404 -0.190077 0.679906 0 CFG=2
M  V30 18 C -0.937489 -0.225955 1.473024 0
M  V30 19 H -2.500211 -2.650370 1.009909 0
M  V30 20 H -3.231290 -1.112413 1.741250 0
M  V30 21 H -2.985117 -2.562794 2.719298 0
M  V30 22 H -1.344397 -1.150683 3.349760 0
M  V30 23 H -0.504712 -3.407926 1.521849 0
M  V30 24 H -0.127160 -3.043109 3.193964 0
M  V30 25 H 1.968434 -2.504405 2.559565 0
M  V30 26 H 2.722511 -3.145550 0.519446 0
M  V30 27 H 1.058856 -3.805939 0.324830 0
M  V30 28 H -0.616449 -1.845366 -0.296433 0
M  V30 29 H -1.334043 -0.387237 -1.860471 0
M  V30 30 H 0.057312 -1.168095 -2.605805 0
M  V30 31 H -0.292827 1.375398 -2.812520 0
M  V30 32 H 1.348304 0.815975 -2.503918 0
M  V30 33 H 0.957488 2.614407 -1.009519 0
M  V30 34 H -0.737579 2.187071 -0.713470 0
M  V30 35 H 1.885103 2.756258 0.801016 0
M  V30 36 H 2.809548 1.285279 0.517625 0
M  V30 37 H 2.822696 1.852058 2.882799 0
M  V30 38 H 1.078095 2.194451 2.883775 0
M  V30 39 H 2.471162 -0.322367 3.363844 0
M  V30 40 H 0.756247 0.020952 3.572489 0
M  V30 41 H 2.409509 -0.644819 1.067158 0
M  V30 42 H -1.755120 -0.000982 0.744972 0
M  V30 43 H -0.914950 0.691365 2.121903 0
M  V30 END ATOM
M  V30 BEGIN BOND
M  V30 1 1 1 2
M  V30 2 1 2 3
M  V30 3 1 3 4
M  V30 4 1 4 5
M  V30 5 1 5 6
M  V30 6 2 6 7
M  V30 7 1 6 8
M  V30 8 1 8 9
M  V30 9 1 9 10
M  V30 10 1 10 11
M  V30 11 1 11 12
M  V30 12 1 12 13
M  V30 13 1 13 14
M  V30 14 1 14 15
M  V30 15 1 15 16
M  V30 16 1 16 17
M  V30 17 1 17 18 CFG=1
M  V30 18 1 18 2
M  V30 19 1 16 4
M  V30 20 1 17 8
M  V30 21 1 17 12
M  V30 22 1 1 19
M  V30 23 1 1 20
M  V30 24 1 1 21
M  V30 25 1 2 22
M  V30 26 1 3 23
M  V30 27 1 3 24
M  V30 28 1 4 25
M  V30 29 1 5 26
M  V30 30 1 5 27
M  V30 31 1 8 28
M  V30 32 1 9 29
M  V30 33 1 9 30
M  V30 34 1 10 31
M  V30 35 1 10 32
M  V30 36 1 11 33
M  V30 37 1 11 34
M  V30 38 1 13 35
M  V30 39 1 13 36
M  V30 40 1 14 37
M  V30 41 1 14 38
M  V30 42 1 15 39
M  V30 43 1 15 40
M  V30 44 1 16 41
M  V30 45 1 18 42
M  V30 46 1 18 43
M  V30 END BOND
M  V30 END CTAB
M  END
>  <Dataset>  (308) 
ChEMBL_Kinases

>  <Ligand_Instance>  (308) 
nan

>  <PDB_ID>  (308) 
nan

>  <Standardized_SMILES>  (308) 
CC1CC2CC(=O)C3CCCN4CCCC2[C@]34C1

>  <Name>  (308) 
nan

>  <Pocket>  (308) 
nan

>  <ATP_Site>  (308) 
nan

>  <Peripheral>  (308) 
nan

>  <Num_H_Atoms_ProtBoundConf>  (308) 
nan

>  <Num_Resolved_Atoms>  (308) 
nan

>  <Num_Not_Resolved_Atoms>  (308) 
nan

$$$$
CHEMBL211018
     RDKit          3D

  0  0  0  0  0  0  0  0  0  0999 V3000
M  V30 BEGIN CTAB
M  V30 COUNTS 54 58 0 0 0
M  V30 BEGIN ATOM
M  V30 1 N -3.218099 -1.097515 3.266593 0
M  V30 2 C -2.606116 -2.092451 2.436533 0 CFG=2
M  V30 3 C -1.108199 -1.967266 2.371962 0
M  V30 4 O -0.690652 -0.719349 1.855845 0
M  V30 5 C 0.680313 -0.418421 1.720740 0
M  V30 6 C 1.642568 -1.359076 2.098641 0
M  V30 7 N 2.952941 -1.020725 1.948968 0
M  V30 8 C 3.279683 0.193162 1.448268 0
M  V30 9 C 2.370542 1.155561 1.061059 0
M  V30 10 C 2.801071 2.444378 0.530001 0
M  V30 11 C 3.942548 2.664488 -0.208616 0
M  V30 12 C 4.242405 3.948749 -0.657868 0
M  V30 13 C 3.361062 4.964770 -0.334434 0
M  V30 14 C 3.628058 6.259123 -0.765512 0
M  V30 15 N 2.791513 7.269798 -0.467840 0
M  V30 16 C 1.674022 7.143675 0.236673 0
M  V30 17 C 1.404976 5.857316 0.667283 0
M  V30 18 C 2.208523 4.775578 0.404385 0
M  V30 19 C 1.939911 3.493156 0.834290 0
M  V30 20 C 1.060162 0.804941 1.215739 0
M  V30 21 C -3.251349 -2.100309 1.090128 0
M  V30 22 C -2.644259 -3.127747 0.183220 0
M  V30 23 C -1.579481 -2.936543 -0.671738 0
M  V30 24 C -1.164071 -4.023695 -1.432472 0
M  V30 25 C -1.768311 -5.260665 -1.362207 0
M  V30 26 C -1.317714 -6.299352 -2.135462 0
M  V30 27 C -1.915060 -7.559659 -2.079546 0
M  V30 28 C -2.974807 -7.689208 -1.206306 0
M  V30 29 C -3.473525 -6.684976 -0.403842 0
M  V30 30 C -2.846812 -5.454026 -0.496093 0
M  V30 31 C -3.262941 -4.374132 0.262566 0
M  V30 32 H -3.079127 -1.379048 4.269430 0
M  V30 33 H -2.793424 -0.158154 3.119340 0
M  V30 34 H -2.825121 -3.079904 2.937715 0
M  V30 35 H -0.680198 -2.731203 1.692072 0
M  V30 36 H -0.702396 -2.120272 3.400355 0
M  V30 37 H 1.297585 -2.314450 2.493430 0
M  V30 38 H 4.352040 0.369952 1.366786 0
M  V30 39 H 4.567570 1.822635 -0.413005 0
M  V30 40 H 5.117485 4.143078 -1.229333 0
M  V30 41 H 4.529386 6.421270 -1.346134 0
M  V30 42 H 1.025353 7.985741 0.455268 0
M  V30 43 H 0.518080 5.647299 1.249000 0
M  V30 44 H 1.021697 3.387079 1.413464 0
M  V30 45 H 0.280608 1.505844 0.934764 0
M  V30 46 H -3.107986 -1.078957 0.662651 0
M  V30 47 H -4.332183 -2.255755 1.193809 0
M  V30 48 H -1.162992 -1.958256 -0.674157 0
M  V30 49 H -0.316444 -3.849947 -2.105313 0
M  V30 50 H -0.492267 -6.207092 -2.818796 0
M  V30 51 H -1.602551 -8.416852 -2.666213 0
M  V30 52 H -3.475054 -8.648432 -1.124316 0
M  V30 53 H -4.301492 -6.820895 0.265686 0
M  V30 54 H -4.106512 -4.576712 0.921235 0
M  V30 END ATOM
M  V30 BEGIN BOND
M  V30 1 1 1 2
M  V30 2 1 2 3
M  V30 3 1 3 4
M  V30 4 1 4 5
M  V30 5 2 5 6
M  V30 6 1 6 7
M  V30 7 2 7 8
M  V30 8 1 8 9
M  V30 9 1 9 10
M  V30 10 2 10 11
M  V30 11 1 11 12
M  V30 12 2 12 13
M  V30 13 1 13 14
M  V30 14 2 14 15
M  V30 15 1 15 16
M  V30 16 2 16 17
M  V30 17 1 17 18
M  V30 18 2 18 19
M  V30 19 2 9 20
M  V30 20 1 2 21
M  V30 21 1 21 22
M  V30 22 2 22 23
M  V30 23 1 23 24
M  V30 24 2 24 25
M  V30 25 1 25 26
M  V30 26 2 26 27
M  V30 27 1 27 28
M  V30 28 2 28 29
M  V30 29 1 29 30
M  V30 30 2 30 31
M  V30 31 1 20 5
M  V30 32 1 31 22
M  V30 33 1 19 10
M  V30 34 1 30 25
M  V30 35 1 18 13
M  V30 36 1 1 32
M  V30 37 1 1 33
M  V30 38 1 2 34 CFG=1
M  V30 39 1 3 35
M  V30 40 1 3 36
M  V30 41 1 6 37
M  V30 42 1 8 38
M  V30 43 1 11 39
M  V30 44 1 12 40
M  V30 45 1 14 41
M  V30 46 1 16 42
M  V30 47 1 17 43
M  V30 48 1 19 44
M  V30 49 1 20 45
M  V30 50 1 21 46
M  V30 51 1 21 47
M  V30 52 1 23 48
M  V30 53 1 24 49
M  V30 54 1 26 50
M  V30 55 1 27 51
M  V30 56 1 28 52
M  V30 57 1 29 53
M  V30 58 1 31 54
M  V30 END BOND
M  V30 END CTAB
M  END
>  <Dataset>  (309) 
ChEMBL_Kinases

>  <Ligand_Instance>  (309) 
nan

>  <PDB_ID>  (309) 
nan

>  <Standardized_SMILES>  (309) 
N[C@H](COc1cncc(-c2ccc3cnccc3c2)c1)Cc1ccc2ccccc2c1

>  <Name>  (309) 
nan

>  <Pocket>  (309) 
nan

>  <ATP_Site>  (309) 
nan

>  <Peripheral>  (309) 
nan

>  <Num_H_Atoms_ProtBoundConf>  (309) 
nan

>  <Num_Resolved_Atoms>  (309) 
nan

>  <Num_Not_Resolved_Atoms>  (309) 
nan

$$$$
CHEMBL211011
     RDKit          3D

  0  0  0  0  0  0  0  0  0  0999 V3000
M  V30 BEGIN CTAB
M  V30 COUNTS 79 85 0 0 0
M  V30 BEGIN ATOM
M  V30 1 C 1.674788 -5.584007 -0.116975 0
M  V30 2 C 3.039492 -4.941701 -0.176014 0
M  V30 3 C 3.722389 -5.337457 -1.454230 0
M  V30 4 C 3.792145 -5.394571 1.013377 0
M  V30 5 O 4.083862 -6.581739 1.306779 0
M  V30 6 N 4.157777 -4.295107 1.809568 0
M  V30 7 C 3.661098 -3.129425 1.171516 0
M  V30 8 C 3.760076 -1.812626 1.558753 0
M  V30 9 C 3.170840 -0.885617 0.727173 0
M  V30 10 C 2.502743 -1.172867 -0.441927 0
M  V30 11 N 1.923141 -0.194767 -1.292417 0
M  V30 12 C 1.883339 1.233780 -1.299906 0 CFG=2
M  V30 13 C 0.796971 1.781095 -2.206879 0
M  V30 14 O -0.485046 1.423134 -1.928763 0
M  V30 15 C -1.274723 1.636165 -0.836420 0
M  V30 16 C -1.150510 2.267060 0.380531 0
M  V30 17 N -2.147180 2.300910 1.273201 0
M  V30 18 C -3.346395 1.732434 1.072353 0
M  V30 19 C -3.549643 1.077344 -0.131095 0
M  V30 20 C -4.865243 0.467980 -0.316810 0
M  V30 21 C -5.467196 0.346919 -1.561168 0
M  V30 22 C -6.729318 -0.251832 -1.664327 0
M  V30 23 C -7.372272 -0.719315 -0.537292 0
M  V30 24 C -6.796128 -0.612154 0.719069 0
M  V30 25 C -5.552665 -0.016706 0.780137 0
M  V30 26 C -7.670749 -1.180251 1.778258 0
M  V30 27 C -6.946139 -2.306002 2.444968 0
M  V30 28 C -8.034968 -0.067825 2.727007 0
M  V30 29 C -8.841712 -1.650911 0.996297 0
M  V30 30 O -9.912161 -2.230453 1.359727 0
M  V30 31 N -8.645940 -1.360384 -0.404346 0
M  V30 32 C -2.506534 1.040259 -1.068427 0
M  V30 33 C 3.172843 1.790916 -1.939588 0
M  V30 34 C 4.402413 1.438602 -1.269346 0
M  V30 35 C 5.285971 0.442460 -1.663437 0
M  V30 36 N 6.346241 0.319523 -0.869842 0
M  V30 37 C 6.219956 1.238978 0.104306 0
M  V30 38 C 7.025667 1.544126 1.177073 0
M  V30 39 C 6.614349 2.559498 2.010659 0
M  V30 40 C 5.435986 3.269545 1.805629 0
M  V30 41 C 4.618651 2.960066 0.717795 0
M  V30 42 C 5.039578 1.930771 -0.123858 0
M  V30 43 C 2.431946 -2.502418 -0.783356 0
M  V30 44 C 3.002115 -3.468575 0.010297 0
M  V30 45 H 1.735081 -6.593839 0.367552 0
M  V30 46 H 1.315407 -5.784205 -1.160277 0
M  V30 47 H 0.946593 -4.988815 0.453184 0
M  V30 48 H 3.615490 -4.568925 -2.250243 0
M  V30 49 H 3.290233 -6.308637 -1.794025 0
M  V30 50 H 4.807566 -5.510521 -1.320701 0
M  V30 51 H 4.700570 -4.302891 2.718225 0
M  V30 52 H 4.276764 -1.495941 2.478506 0
M  V30 53 H 3.240612 0.128738 1.049153 0
M  V30 54 H 1.390491 -0.582483 -2.128522 0
M  V30 55 H 1.720332 1.613656 -0.290899 0
M  V30 56 H 1.049589 1.428538 -3.247885 0
M  V30 57 H 0.934599 2.900722 -2.205465 0
M  V30 58 H -0.174911 2.714076 0.491529 0
M  V30 59 H -4.069739 1.833094 1.879475 0
M  V30 60 H -4.960684 0.713576 -2.435637 0
M  V30 61 H -7.171927 -0.331522 -2.647517 0
M  V30 62 H -5.089811 0.071234 1.773528 0
M  V30 63 H -6.364521 -2.850132 1.672719 0
M  V30 64 H -7.624420 -3.063060 2.886384 0
M  V30 65 H -6.227308 -1.939795 3.179595 0
M  V30 66 H -9.042639 0.306027 2.388037 0
M  V30 67 H -7.342442 0.784765 2.588329 0
M  V30 68 H -8.097453 -0.391441 3.783595 0
M  V30 69 H -9.305803 -1.571410 -1.206346 0
M  V30 70 H -2.851257 0.484521 -1.947370 0
M  V30 71 H 3.083268 2.911698 -2.003698 0
M  V30 72 H 3.192990 1.396555 -2.985357 0
M  V30 73 H 5.142166 -0.189293 -2.536531 0
M  V30 74 H 7.129016 -0.354936 -0.973469 0
M  V30 75 H 7.929070 0.969593 1.299147 0
M  V30 76 H 7.295093 2.754916 2.843653 0
M  V30 77 H 5.165453 4.058989 2.497042 0
M  V30 78 H 3.697397 3.492867 0.531359 0
M  V30 79 H 1.915735 -2.816855 -1.701318 0
M  V30 END ATOM
M  V30 BEGIN BOND
M  V30 1 1 1 2
M  V30 2 1 2 3
M  V30 3 1 2 4
M  V30 4 2 4 5
M  V30 5 1 4 6
M  V30 6 1 6 7
M  V30 7 2 7 8
M  V30 8 1 8 9
M  V30 9 2 9 10
M  V30 10 1 10 11
M  V30 11 1 11 12
M  V30 12 1 12 13
M  V30 13 1 13 14
M  V30 14 1 14 15
M  V30 15 2 15 16
M  V30 16 1 16 17
M  V30 17 2 17 18
M  V30 18 1 18 19
M  V30 19 1 19 20
M  V30 20 2 20 21
M  V30 21 1 21 22
M  V30 22 2 22 23
M  V30 23 1 23 24
M  V30 24 2 24 25
M  V30 25 1 24 26
M  V30 26 1 26 27
M  V30 27 1 26 28
M  V30 28 1 26 29
M  V30 29 2 29 30
M  V30 30 1 29 31
M  V30 31 2 19 32
M  V30 32 1 12 33
M  V30 33 1 33 34
M  V30 34 2 34 35
M  V30 35 1 35 36
M  V30 36 1 36 37
M  V30 37 2 37 38
M  V30 38 1 38 39
M  V30 39 2 39 40
M  V30 40 1 40 41
M  V30 41 2 41 42
M  V30 42 1 10 43
M  V30 43 2 43 44
M  V30 44 1 44 2
M  V30 45 1 44 7
M  V30 46 1 32 15
M  V30 47 1 42 34
M  V30 48 1 25 20
M  V30 49 1 42 37
M  V30 50 1 31 23
M  V30 51 1 1 45
M  V30 52 1 1 46
M  V30 53 1 1 47
M  V30 54 1 3 48
M  V30 55 1 3 49
M  V30 56 1 3 50
M  V30 57 1 6 51
M  V30 58 1 8 52
M  V30 59 1 9 53
M  V30 60 1 11 54
M  V30 61 1 12 55 CFG=1
M  V30 62 1 13 56
M  V30 63 1 13 57
M  V30 64 1 16 58
M  V30 65 1 18 59
M  V30 66 1 21 60
M  V30 67 1 22 61
M  V30 68 1 25 62
M  V30 69 1 27 63
M  V30 70 1 27 64
M  V30 71 1 27 65
M  V30 72 1 28 66
M  V30 73 1 28 67
M  V30 74 1 28 68
M  V30 75 1 31 69
M  V30 76 1 32 70
M  V30 77 1 33 71
M  V30 78 1 33 72
M  V30 79 1 35 73
M  V30 80 1 36 74
M  V30 81 1 38 75
M  V30 82 1 39 76
M  V30 83 1 40 77
M  V30 84 1 41 78
M  V30 85 1 43 79
M  V30 END BOND
M  V30 END CTAB
M  END
>  <Dataset>  (310) 
ChEMBL_Kinases

>  <Ligand_Instance>  (310) 
nan

>  <PDB_ID>  (310) 
nan

>  <Standardized_SMILES>  (310) 
CC1(C)C(=O)Nc2ccc(N[C@H](COc3cncc(-c4ccc5c(c4)C(C)(C)C(=O)N5)c3)Cc3c[nH]c4ccccc34)cc21

>  <Name>  (310) 
nan

>  <Pocket>  (310) 
nan

>  <ATP_Site>  (310) 
nan

>  <Peripheral>  (310) 
nan

>  <Num_H_Atoms_ProtBoundConf>  (310) 
nan

>  <Num_Resolved_Atoms>  (310) 
nan

>  <Num_Not_Resolved_Atoms>  (310) 
nan

$$$$
CHEMBL211002
     RDKit          3D

  0  0  0  0  0  0  0  0  0  0999 V3000
M  V30 BEGIN CTAB
M  V30 COUNTS 21 22 0 0 0
M  V30 BEGIN ATOM
M  V30 1 N 0.050909 0.550885 4.642561 0
M  V30 2 C -0.613006 0.082965 3.479805 0
M  V30 3 O -1.792321 -0.341566 3.464908 0
M  V30 4 C 0.059874 0.072083 2.211984 0
M  V30 5 S 1.803222 0.657424 2.021259 0
M  V30 6 C 1.888237 0.347716 0.306166 0
M  V30 7 C 2.927455 0.541558 -0.589617 0
M  V30 8 C 2.799208 0.230306 -1.928100 0
M  V30 9 C 1.555867 -0.276785 -2.244078 0
M  V30 10 C 0.504813 -0.480929 -1.378901 0
M  V30 11 C 0.684815 -0.152773 -0.048491 0
M  V30 12 C -0.282909 -0.308324 0.911503 0
M  V30 13 N -1.608978 -0.806127 0.791551 0
M  V30 14 H 0.846871 0.293437 5.259566 0
M  V30 15 H -0.299444 1.419477 5.088027 0
M  V30 16 H 3.842065 0.949439 -0.181417 0
M  V30 17 H 3.586980 0.374018 -2.623422 0
M  V30 18 H 1.412460 -0.538261 -3.304281 0
M  V30 19 H -0.420608 -0.896730 -1.807543 0
M  V30 20 H -2.451308 -0.221310 1.046822 0
M  V30 21 H -2.446364 -0.211338 1.050255 0
M  V30 END ATOM
M  V30 BEGIN BOND
M  V30 1 1 1 2
M  V30 2 2 2 3
M  V30 3 1 2 4
M  V30 4 1 4 5
M  V30 5 1 5 6
M  V30 6 2 6 7
M  V30 7 1 7 8
M  V30 8 2 8 9
M  V30 9 1 9 10
M  V30 10 2 10 11
M  V30 11 1 11 12
M  V30 12 1 12 13
M  V30 13 2 12 4
M  V30 14 1 11 6
M  V30 15 1 1 14
M  V30 16 1 1 15
M  V30 17 1 7 16
M  V30 18 1 8 17
M  V30 19 1 9 18
M  V30 20 1 10 19
M  V30 21 1 13 20
M  V30 22 1 13 21
M  V30 END BOND
M  V30 END CTAB
M  END
>  <Dataset>  (311) 
ChEMBL_Kinases

>  <Ligand_Instance>  (311) 
nan

>  <PDB_ID>  (311) 
nan

>  <Standardized_SMILES>  (311) 
NC(=O)c1sc2ccccc2c1N

>  <Name>  (311) 
nan

>  <Pocket>  (311) 
nan

>  <ATP_Site>  (311) 
nan

>  <Peripheral>  (311) 
nan

>  <Num_H_Atoms_ProtBoundConf>  (311) 
nan

>  <Num_Resolved_Atoms>  (311) 
nan

>  <Num_Not_Resolved_Atoms>  (311) 
nan

$$$$
CHEMBL210954
     RDKit          3D

  0  0  0  0  0  0  0  0  0  0999 V3000
M  V30 BEGIN CTAB
M  V30 COUNTS 71 76 0 0 0
M  V30 BEGIN ATOM
M  V30 1 C 3.149579 2.416683 -1.343189 0
M  V30 2 C 1.843237 2.623733 -1.998838 0
M  V30 3 C 1.903228 4.192477 -2.296015 0
M  V30 4 C 1.806632 2.073886 -3.359707 0
M  V30 5 C 2.153904 0.664166 -3.636898 0
M  V30 6 C 2.071589 0.336485 -4.982703 0
M  V30 7 C 2.386559 -1.045656 -5.116831 0
M  V30 8 C 2.661319 -1.427960 -3.752473 0
M  V30 9 O 2.483095 -0.375572 -3.086030 0
M  V30 10 C 0.717083 2.478782 -1.117882 0
M  V30 11 C 0.516568 3.502937 -0.056222 0
M  V30 12 O 1.678030 3.769827 0.399999 0
M  V30 13 N -0.824625 3.712521 -0.052748 0
M  V30 14 C -1.611473 2.881327 -0.934998 0
M  V30 15 C -2.926554 2.612056 -1.076994 0
M  V30 16 C -3.339827 1.552609 -1.824959 0
M  V30 17 C -2.301570 0.767676 -2.457961 0
M  V30 18 C -2.968615 -0.456741 -2.854009 0
M  V30 19 C -3.578545 -1.606969 -3.219466 0
M  V30 20 N -3.552991 -2.887185 -2.952062 0
M  V30 21 C -2.779464 -3.466167 -2.088318 0
M  V30 22 C -1.907821 -2.652790 -1.428604 0
M  V30 23 O -0.942513 -3.133623 -0.445401 0
M  V30 24 C -0.010681 -2.131295 -0.059192 0
M  V30 25 C 1.076063 -2.257004 0.841101 0 CFG=1
M  V30 26 N 1.907855 -0.953696 0.514017 0
M  V30 27 C 1.015818 -2.086364 2.307295 0
M  V30 28 C 0.333452 -3.069580 3.114318 0
M  V30 29 C 1.113662 -4.207943 3.314451 0
M  V30 30 N 0.393164 -5.136948 4.014173 0
M  V30 31 C -0.824199 -4.702846 4.309256 0
M  V30 32 C -1.979368 -5.068158 4.966072 0
M  V30 33 C -3.002512 -4.209544 5.031525 0
M  V30 34 C -3.049117 -2.970212 4.522003 0
M  V30 35 C -1.903677 -2.521455 3.828413 0
M  V30 36 C -0.858484 -3.410876 3.740988 0
M  V30 37 C -2.072498 -1.285019 -1.851693 0
M  V30 38 C -0.908632 1.029719 -2.349735 0
M  V30 39 C -0.679244 2.161918 -1.522399 0
M  V30 40 H 3.553310 3.316887 -0.900534 0
M  V30 41 H 3.902608 1.969844 -1.988357 0
M  V30 42 H 3.019968 1.676622 -0.472822 0
M  V30 43 H 2.409597 4.626268 -1.442653 0
M  V30 44 H 2.559366 4.243180 -3.186198 0
M  V30 45 H 0.900111 4.522392 -2.534130 0
M  V30 46 H 2.400696 2.749054 -4.092826 0
M  V30 47 H 0.745160 2.238470 -3.732251 0
M  V30 48 H 1.802229 1.003671 -5.815732 0
M  V30 49 H 2.343602 -1.332751 -6.176181 0
M  V30 50 H 2.889811 -2.449464 -3.946695 0
M  V30 51 H 1.027570 1.547142 -0.414042 0
M  V30 52 H -1.221702 4.433349 0.605673 0
M  V30 53 H -3.575754 3.334055 -0.535053 0
M  V30 54 H -4.401575 1.381822 -1.911216 0
M  V30 55 H -4.167049 -0.966978 -3.946378 0
M  V30 56 H -2.696042 -4.499155 -1.813159 0
M  V30 57 H -0.672512 -1.243813 0.326062 0
M  V30 58 H 0.384533 -1.682425 -1.079918 0
M  V30 59 H 1.859314 -3.036219 0.494459 0
M  V30 60 H 2.090193 -1.174646 -0.535278 0
M  V30 61 H 2.862004 -1.142619 0.948994 0
M  V30 62 H 1.980904 -1.779968 2.776219 0
M  V30 63 H 0.424946 -1.062366 2.457850 0
M  V30 64 H 2.107935 -4.528425 3.047609 0
M  V30 65 H 0.714102 -6.123041 4.329088 0
M  V30 66 H -1.820445 -6.100438 5.315196 0
M  V30 67 H -3.872889 -4.605905 5.590505 0
M  V30 68 H -3.902010 -2.261399 4.590303 0
M  V30 69 H -1.881252 -1.535184 3.383176 0
M  V30 70 H -1.297954 -0.794669 -1.182818 0
M  V30 71 H -0.472624 0.273960 -2.931129 0
M  V30 END ATOM
M  V30 BEGIN BOND
M  V30 1 1 1 2
M  V30 2 1 2 3
M  V30 3 1 2 4
M  V30 4 1 4 5
M  V30 5 2 5 6
M  V30 6 1 6 7
M  V30 7 2 7 8
M  V30 8 1 8 9
M  V30 9 1 2 10
M  V30 10 1 10 11
M  V30 11 2 11 12
M  V30 12 1 11 13
M  V30 13 1 13 14
M  V30 14 2 14 15
M  V30 15 1 15 16
M  V30 16 2 16 17
M  V30 17 1 17 18
M  V30 18 2 18 19
M  V30 19 1 19 20
M  V30 20 2 20 21
M  V30 21 1 21 22
M  V30 22 1 22 23
M  V30 23 1 23 24
M  V30 24 1 24 25
M  V30 25 1 25 26
M  V30 26 1 25 27
M  V30 27 1 27 28
M  V30 28 2 28 29
M  V30 29 1 29 30
M  V30 30 1 30 31
M  V30 31 2 31 32
M  V30 32 1 32 33
M  V30 33 2 33 34
M  V30 34 1 34 35
M  V30 35 2 35 36
M  V30 36 2 22 37
M  V30 37 1 17 38
M  V30 38 2 38 39
M  V30 39 1 9 5
M  V30 40 1 39 10
M  V30 41 1 39 14
M  V30 42 1 37 18
M  V30 43 1 36 28
M  V30 44 1 36 31
M  V30 45 1 1 40
M  V30 46 1 1 41
M  V30 47 1 1 42
M  V30 48 1 3 43
M  V30 49 1 3 44
M  V30 50 1 3 45
M  V30 51 1 4 46
M  V30 52 1 4 47
M  V30 53 1 6 48
M  V30 54 1 7 49
M  V30 55 1 8 50
M  V30 56 1 10 51
M  V30 57 1 13 52
M  V30 58 1 15 53
M  V30 59 1 16 54
M  V30 60 1 19 55
M  V30 61 1 21 56
M  V30 62 1 24 57
M  V30 63 1 24 58
M  V30 64 1 25 59 CFG=1
M  V30 65 1 26 60
M  V30 66 1 26 61
M  V30 67 1 27 62
M  V30 68 1 27 63
M  V30 69 1 29 64
M  V30 70 1 30 65
M  V30 71 1 32 66
M  V30 72 1 33 67
M  V30 73 1 34 68
M  V30 74 1 35 69
M  V30 75 1 37 70
M  V30 76 1 38 71
M  V30 END BOND
M  V30 END CTAB
M  END
>  <Dataset>  (312) 
ChEMBL_Kinases

>  <Ligand_Instance>  (312) 
nan

>  <PDB_ID>  (312) 
nan

>  <Standardized_SMILES>  (312) 
CC(C)(Cc1ccco1)C1C(=O)Nc2ccc(-c3cncc(OC[C@@H](N)Cc4c[nH]c5ccccc45)c3)cc21

>  <Name>  (312) 
nan

>  <Pocket>  (312) 
nan

>  <ATP_Site>  (312) 
nan

>  <Peripheral>  (312) 
nan

>  <Num_H_Atoms_ProtBoundConf>  (312) 
nan

>  <Num_Resolved_Atoms>  (312) 
nan

>  <Num_Not_Resolved_Atoms>  (312) 
nan

$$$$
CHEMBL210940
     RDKit          3D

  0  0  0  0  0  0  0  0  0  0999 V3000
M  V30 BEGIN CTAB
M  V30 COUNTS 72 77 0 0 0
M  V30 BEGIN ATOM
M  V30 1 C 1.798902 1.565770 -4.558280 0
M  V30 2 C 0.545417 2.426184 -4.772596 0
M  V30 3 C 0.354741 3.174879 -3.474526 0
M  V30 4 C 0.851495 3.332953 -5.919029 0
M  V30 5 C 2.012011 4.220085 -5.674748 0
M  V30 6 C 3.322763 3.843589 -5.986494 0
M  V30 7 C 4.149317 4.891302 -5.641277 0
M  V30 8 N 3.416459 5.896073 -5.132161 0
M  V30 9 C 2.124728 5.490466 -5.152426 0
M  V30 10 C -0.613590 1.487925 -5.074375 0
M  V30 11 C -0.347887 0.686396 -6.290927 0
M  V30 12 O -0.185565 0.960080 -7.509876 0
M  V30 13 N -0.262763 -0.716217 -5.971969 0
M  V30 14 C -0.520139 -0.814326 -4.557315 0
M  V30 15 C -0.574869 -1.965583 -3.762616 0
M  V30 16 C -0.859632 -1.897976 -2.415758 0
M  V30 17 C -1.092760 -0.656952 -1.859360 0
M  V30 18 C -1.395561 -0.572030 -0.426784 0
M  V30 19 C -2.206563 0.385081 0.144860 0
M  V30 20 N -2.420187 0.377112 1.469650 0
M  V30 21 C -1.877021 -0.531913 2.296411 0
M  V30 22 C -1.046062 -1.537016 1.820809 0
M  V30 23 O -0.430827 -2.524159 2.566208 0
M  V30 24 C 0.397795 -3.517852 2.046571 0
M  V30 25 C 0.855170 -4.390339 3.224717 0 CFG=1
M  V30 26 N 1.575061 -3.634597 4.194056 0
M  V30 27 C -0.298362 -5.114696 3.838779 0
M  V30 28 C -1.364305 -4.236473 4.375253 0
M  V30 29 C -2.542574 -3.991862 3.658627 0
M  V30 30 N -3.364287 -3.156436 4.316161 0
M  V30 31 C -2.754768 -2.829306 5.477336 0
M  V30 32 C -3.076057 -2.027805 6.569268 0
M  V30 33 C -2.200246 -1.907571 7.637274 0
M  V30 34 C -0.993122 -2.576135 7.645803 0
M  V30 35 C -0.663344 -3.372361 6.571156 0
M  V30 36 C -1.524367 -3.489771 5.521295 0
M  V30 37 C -0.846850 -1.496869 0.437865 0
M  V30 38 C -1.031478 0.458833 -2.667262 0
M  V30 39 C -0.752086 0.454362 -4.013462 0
M  V30 40 H 2.069921 0.991556 -5.456987 0
M  V30 41 H 2.642485 2.178282 -4.200329 0
M  V30 42 H 1.499925 0.897380 -3.697882 0
M  V30 43 H -0.705816 3.390237 -3.299646 0
M  V30 44 H 0.981897 4.095314 -3.489589 0
M  V30 45 H 0.756463 2.594024 -2.596285 0
M  V30 46 H 1.026609 2.813302 -6.864519 0
M  V30 47 H -0.075626 3.953457 -6.095337 0
M  V30 48 H 3.671974 2.910190 -6.420776 0
M  V30 49 H 5.231496 4.915626 -5.757342 0
M  V30 50 H 3.801593 6.804000 -4.794342 0
M  V30 51 H 1.271981 6.061317 -4.814077 0
M  V30 52 H -1.525226 2.100982 -5.146707 0
M  V30 53 H -0.060702 -1.563192 -6.573981 0
M  V30 54 H -0.400513 -2.947487 -4.157003 0
M  V30 55 H -0.898535 -2.793158 -1.816059 0
M  V30 56 H -2.651234 1.124928 -0.512680 0
M  V30 57 H -2.050677 -0.537356 3.366318 0
M  V30 58 H 1.342838 -3.125043 1.582043 0
M  V30 59 H -0.073301 -4.144604 1.270318 0
M  V30 60 H 1.565255 -5.135510 2.795346 0
M  V30 61 H 2.587244 -3.895778 4.279041 0
M  V30 62 H 1.499969 -2.597752 4.065131 0
M  V30 63 H -0.741386 -5.881692 3.155635 0
M  V30 64 H 0.076851 -5.733699 4.704017 0
M  V30 65 H -2.833066 -4.388656 2.686295 0
M  V30 66 H -4.299112 -2.808091 4.015642 0
M  V30 67 H -4.021524 -1.495561 6.578197 0
M  V30 68 H -2.411016 -1.294007 8.507767 0
M  V30 69 H -0.296480 -2.492803 8.473835 0
M  V30 70 H 0.270043 -3.883934 6.602117 0
M  V30 71 H -0.200892 -2.268018 0.023393 0
M  V30 72 H -1.229090 1.366268 -2.153717 0
M  V30 END ATOM
M  V30 BEGIN BOND
M  V30 1 1 1 2
M  V30 2 1 2 3
M  V30 3 1 2 4
M  V30 4 1 4 5
M  V30 5 1 5 6
M  V30 6 2 6 7
M  V30 7 1 7 8
M  V30 8 1 8 9
M  V30 9 1 2 10
M  V30 10 1 10 11
M  V30 11 2 11 12
M  V30 12 1 11 13
M  V30 13 1 13 14
M  V30 14 2 14 15
M  V30 15 1 15 16
M  V30 16 2 16 17
M  V30 17 1 17 18
M  V30 18 2 18 19
M  V30 19 1 19 20
M  V30 20 2 20 21
M  V30 21 1 21 22
M  V30 22 1 22 23
M  V30 23 1 23 24
M  V30 24 1 24 25
M  V30 25 1 25 26
M  V30 26 1 25 27
M  V30 27 1 27 28
M  V30 28 2 28 29
M  V30 29 1 29 30
M  V30 30 1 30 31
M  V30 31 2 31 32
M  V30 32 1 32 33
M  V30 33 2 33 34
M  V30 34 1 34 35
M  V30 35 2 35 36
M  V30 36 2 22 37
M  V30 37 1 17 38
M  V30 38 2 38 39
M  V30 39 2 9 5
M  V30 40 1 39 10
M  V30 41 1 39 14
M  V30 42 1 37 18
M  V30 43 1 36 28
M  V30 44 1 36 31
M  V30 45 1 1 40
M  V30 46 1 1 41
M  V30 47 1 1 42
M  V30 48 1 3 43
M  V30 49 1 3 44
M  V30 50 1 3 45
M  V30 51 1 4 46
M  V30 52 1 4 47
M  V30 53 1 6 48
M  V30 54 1 7 49
M  V30 55 1 8 50
M  V30 56 1 9 51
M  V30 57 1 10 52
M  V30 58 1 13 53
M  V30 59 1 15 54
M  V30 60 1 16 55
M  V30 61 1 19 56
M  V30 62 1 21 57
M  V30 63 1 24 58
M  V30 64 1 24 59
M  V30 65 1 25 60 CFG=3
M  V30 66 1 26 61
M  V30 67 1 26 62
M  V30 68 1 27 63
M  V30 69 1 27 64
M  V30 70 1 29 65
M  V30 71 1 30 66
M  V30 72 1 32 67
M  V30 73 1 33 68
M  V30 74 1 34 69
M  V30 75 1 35 70
M  V30 76 1 37 71
M  V30 77 1 38 72
M  V30 END BOND
M  V30 END CTAB
M  END
>  <Dataset>  (313) 
ChEMBL_Kinases

>  <Ligand_Instance>  (313) 
nan

>  <PDB_ID>  (313) 
nan

>  <Standardized_SMILES>  (313) 
CC(C)(Cc1cc[nH]c1)C1C(=O)Nc2ccc(-c3cncc(OC[C@@H](N)Cc4c[nH]c5ccccc45)c3)cc21

>  <Name>  (313) 
nan

>  <Pocket>  (313) 
nan

>  <ATP_Site>  (313) 
nan

>  <Peripheral>  (313) 
nan

>  <Num_H_Atoms_ProtBoundConf>  (313) 
nan

>  <Num_Resolved_Atoms>  (313) 
nan

>  <Num_Not_Resolved_Atoms>  (313) 
nan

$$$$
CHEMBL210804
     RDKit          3D

  0  0  0  0  0  0  0  0  0  0999 V3000
M  V30 BEGIN CTAB
M  V30 COUNTS 42 42 0 0 0
M  V30 BEGIN ATOM
M  V30 1 C -2.006176 -2.904781 1.803131 0
M  V30 2 C -3.016888 -3.242309 0.740834 0
M  V30 3 C -2.431167 -3.669872 -0.554630 0
M  V30 4 C -1.548377 -2.654016 -1.238427 0
M  V30 5 N -2.218706 -1.439789 -1.539774 0
M  V30 6 C -1.375060 -0.522660 -2.236877 0
M  V30 7 C -0.282633 0.103643 -1.490883 0
M  V30 8 O 0.332676 0.843598 -2.342955 0
M  V30 9 N 0.249851 0.123407 -0.182835 0
M  V30 10 C 1.353601 0.822962 0.340897 0
M  V30 11 C 2.183058 1.710477 -0.278574 0
M  V30 12 C 3.248000 2.338757 0.329363 0
M  V30 13 N 4.059790 3.256884 -0.406070 0
M  V30 14 C 3.465090 2.027728 1.655887 0
M  V30 15 C 4.554703 2.644268 2.348576 0
M  V30 16 N 5.451306 3.143588 2.898261 0
M  V30 17 C 2.636336 1.132313 2.298432 0
M  V30 18 O 2.908087 0.862170 3.631725 0
M  V30 19 C 2.036421 -0.071820 4.279754 0
M  V30 20 C 2.076242 -1.423910 3.585512 0
M  V30 21 N 1.633294 0.575705 1.630962 0
M  V30 22 H -1.739782 -1.832101 1.777315 0
M  V30 23 H -2.423063 -3.117599 2.829827 0
M  V30 24 H -1.115130 -3.563918 1.690833 0
M  V30 25 H -3.761904 -2.430821 0.611586 0
M  V30 26 H -3.581830 -4.137091 1.138519 0
M  V30 27 H -3.175211 -3.997861 -1.282921 0
M  V30 28 H -1.762672 -4.551478 -0.360345 0
M  V30 29 H -0.610238 -2.471338 -0.721876 0
M  V30 30 H -1.335272 -3.137874 -2.250618 0
M  V30 31 H -2.702792 -1.015447 -0.720471 0
M  V30 32 H -1.000679 -1.057386 -3.153022 0
M  V30 33 H -2.016244 0.317592 -2.659536 0
M  V30 34 H -0.340027 -0.489051 0.399632 0
M  V30 35 H 2.007374 1.942725 -1.294183 0
M  V30 36 H 4.425624 3.120508 -1.386648 0
M  V30 37 H 4.238559 4.094181 0.181322 0
M  V30 38 H 1.009307 0.353473 4.175748 0
M  V30 39 H 2.250197 -0.163155 5.363342 0
M  V30 40 H 1.316116 -1.463972 2.801575 0
M  V30 41 H 3.103069 -1.668874 3.267941 0
M  V30 42 H 1.770041 -2.179401 4.351385 0
M  V30 END ATOM
M  V30 BEGIN BOND
M  V30 1 1 1 2
M  V30 2 1 2 3
M  V30 3 1 3 4
M  V30 4 1 4 5
M  V30 5 1 5 6
M  V30 6 1 6 7
M  V30 7 2 7 8
M  V30 8 1 7 9
M  V30 9 1 9 10
M  V30 10 2 10 11
M  V30 11 1 11 12
M  V30 12 1 12 13
M  V30 13 2 12 14
M  V30 14 1 14 15
M  V30 15 3 15 16
M  V30 16 1 14 17
M  V30 17 1 17 18
M  V30 18 1 18 19
M  V30 19 1 19 20
M  V30 20 2 17 21
M  V30 21 1 21 10
M  V30 22 1 1 22
M  V30 23 1 1 23
M  V30 24 1 1 24
M  V30 25 1 2 25
M  V30 26 1 2 26
M  V30 27 1 3 27
M  V30 28 1 3 28
M  V30 29 1 4 29
M  V30 30 1 4 30
M  V30 31 1 5 31
M  V30 32 1 6 32
M  V30 33 1 6 33
M  V30 34 1 9 34
M  V30 35 1 11 35
M  V30 36 1 13 36
M  V30 37 1 13 37
M  V30 38 1 19 38
M  V30 39 1 19 39
M  V30 40 1 20 40
M  V30 41 1 20 41
M  V30 42 1 20 42
M  V30 END BOND
M  V30 END CTAB
M  END
>  <Dataset>  (314) 
ChEMBL_Kinases

>  <Ligand_Instance>  (314) 
nan

>  <PDB_ID>  (314) 
nan

>  <Standardized_SMILES>  (314) 
CCCCNCC(=O)Nc1cc(N)c(C#N)c(OCC)n1

>  <Name>  (314) 
nan

>  <Pocket>  (314) 
nan

>  <ATP_Site>  (314) 
nan

>  <Peripheral>  (314) 
nan

>  <Num_H_Atoms_ProtBoundConf>  (314) 
nan

>  <Num_Resolved_Atoms>  (314) 
nan

>  <Num_Not_Resolved_Atoms>  (314) 
nan

$$$$
CHEMBL210783
     RDKit          3D

  0  0  0  0  0  0  0  0  0  0999 V3000
M  V30 BEGIN CTAB
M  V30 COUNTS 52 56 0 0 0
M  V30 BEGIN ATOM
M  V30 1 N 0.414102 -2.735567 4.709712 0
M  V30 2 C 0.296281 -3.447612 3.465771 0 CFG=2
M  V30 3 C 1.221703 -3.035124 2.383902 0
M  V30 4 O 1.216887 -1.766899 1.917455 0
M  V30 5 C 1.442171 -0.524025 2.339239 0
M  V30 6 C 1.816462 0.116544 3.497433 0
M  V30 7 N 1.960625 1.448200 3.606470 0
M  V30 8 C 1.739194 2.266604 2.546377 0
M  V30 9 C 1.359949 1.723445 1.337372 0
M  V30 10 C 1.150935 2.694951 0.273016 0
M  V30 11 C 1.916884 3.836596 0.277799 0
M  V30 12 C 1.739420 4.790146 -0.731049 0
M  V30 13 C 0.786616 4.524376 -1.692141 0
M  V30 14 C 0.549877 5.424012 -2.729435 0
M  V30 15 N -0.379220 5.160370 -3.662469 0
M  V30 16 C -1.141455 4.062813 -3.699107 0
M  V30 17 Cl -2.328424 3.808596 -4.959486 0
M  V30 18 C -0.927295 3.143942 -2.673860 0
M  V30 19 C 0.015008 3.369423 -1.693006 0
M  V30 20 C 0.195122 2.418259 -0.682888 0
M  V30 21 C 1.214953 0.331160 1.245848 0
M  V30 22 C -1.140680 -3.627520 3.100114 0
M  V30 23 C -1.391300 -4.344335 1.846845 0
M  V30 24 C -1.652241 -5.722809 1.863160 0
M  V30 25 N -1.819337 -6.203743 0.624642 0
M  V30 26 C -1.682451 -5.201233 -0.242649 0
M  V30 27 C -1.745561 -5.047779 -1.606281 0
M  V30 28 C -1.565144 -3.830329 -2.266823 0
M  V30 29 C -1.306680 -2.725737 -1.448357 0
M  V30 30 C -1.233815 -2.831704 -0.077151 0
M  V30 31 C -1.423060 -4.071602 0.497492 0
M  V30 32 H -0.114701 -1.835497 4.656866 0
M  V30 33 H 0.187843 -3.294395 5.542390 0
M  V30 34 H 0.642953 -4.513036 3.742167 0
M  V30 35 H 2.277372 -3.389258 2.653535 0
M  V30 36 H 0.991951 -3.726585 1.506925 0
M  V30 37 H 1.989718 -0.579093 4.299349 0
M  V30 38 H 1.905140 3.296940 2.827158 0
M  V30 39 H 2.660808 4.031871 1.037915 0
M  V30 40 H 2.300140 5.704592 -0.792238 0
M  V30 41 H 1.111655 6.347714 -2.798316 0
M  V30 42 H -1.521649 2.225130 -2.651034 0
M  V30 43 H -0.390728 1.510068 -0.657962 0
M  V30 44 H 0.910137 0.102174 0.211291 0
M  V30 45 H -1.712880 -4.103863 3.943906 0
M  V30 46 H -1.627091 -2.603573 3.031260 0
M  V30 47 H -1.725779 -6.387369 2.726212 0
M  V30 48 H -2.023455 -7.186326 0.339836 0
M  V30 49 H -1.952883 -5.970289 -2.161355 0
M  V30 50 H -1.629415 -3.787769 -3.347918 0
M  V30 51 H -1.168963 -1.780936 -1.989520 0
M  V30 52 H -1.045359 -1.960460 0.495280 0
M  V30 END ATOM
M  V30 BEGIN BOND
M  V30 1 1 1 2
M  V30 2 1 2 3
M  V30 3 1 3 4
M  V30 4 1 4 5
M  V30 5 2 5 6
M  V30 6 1 6 7
M  V30 7 2 7 8
M  V30 8 1 8 9
M  V30 9 1 9 10
M  V30 10 2 10 11
M  V30 11 1 11 12
M  V30 12 2 12 13
M  V30 13 1 13 14
M  V30 14 2 14 15
M  V30 15 1 15 16
M  V30 16 1 16 17
M  V30 17 2 16 18
M  V30 18 1 18 19
M  V30 19 2 19 20
M  V30 20 2 9 21
M  V30 21 1 2 22
M  V30 22 1 22 23
M  V30 23 2 23 24
M  V30 24 1 24 25
M  V30 25 1 25 26
M  V30 26 2 26 27
M  V30 27 1 27 28
M  V30 28 2 28 29
M  V30 29 1 29 30
M  V30 30 2 30 31
M  V30 31 1 21 5
M  V30 32 1 31 23
M  V30 33 1 20 10
M  V30 34 1 31 26
M  V30 35 1 19 13
M  V30 36 1 1 32
M  V30 37 1 1 33
M  V30 38 1 2 34 CFG=1
M  V30 39 1 3 35
M  V30 40 1 3 36
M  V30 41 1 6 37
M  V30 42 1 8 38
M  V30 43 1 11 39
M  V30 44 1 12 40
M  V30 45 1 14 41
M  V30 46 1 18 42
M  V30 47 1 20 43
M  V30 48 1 21 44
M  V30 49 1 22 45
M  V30 50 1 22 46
M  V30 51 1 24 47
M  V30 52 1 25 48
M  V30 53 1 27 49
M  V30 54 1 28 50
M  V30 55 1 29 51
M  V30 56 1 30 52
M  V30 END BOND
M  V30 END CTAB
M  END
>  <Dataset>  (315) 
ChEMBL_Kinases

>  <Ligand_Instance>  (315) 
nan

>  <PDB_ID>  (315) 
nan

>  <Standardized_SMILES>  (315) 
N[C@H](COc1cncc(-c2ccc3cnc(Cl)cc3c2)c1)Cc1c[nH]c2ccccc12

>  <Name>  (315) 
nan

>  <Pocket>  (315) 
nan

>  <ATP_Site>  (315) 
nan

>  <Peripheral>  (315) 
nan

>  <Num_H_Atoms_ProtBoundConf>  (315) 
nan

>  <Num_Resolved_Atoms>  (315) 
nan

>  <Num_Not_Resolved_Atoms>  (315) 
nan

$$$$
CHEMBL2107823
     RDKit          3D

  0  0  0  0  0  0  0  0  0  0999 V3000
M  V30 BEGIN CTAB
M  V30 COUNTS 58 62 0 0 0
M  V30 BEGIN ATOM
M  V30 1 C 2.236162 -6.917237 3.000403 0
M  V30 2 C 1.992218 -5.527856 2.594618 0
M  V30 3 C 2.777584 -4.410202 2.762911 0
M  V30 4 C 2.078661 -3.379548 2.188911 0
M  V30 5 N 2.444197 -2.003696 2.090811 0
M  V30 6 C 1.636729 -1.034676 1.393900 0
M  V30 7 C 2.057932 0.278165 1.366909 0
M  V30 8 C 1.261416 1.185694 0.680705 0
M  V30 9 C 1.560180 2.625552 0.541373 0
M  V30 10 N 0.811639 3.507994 1.302044 0
M  V30 11 C 1.030804 4.899866 1.217774 0
M  V30 12 C -0.044822 5.603980 2.056674 0
M  V30 13 O -0.041419 5.069247 3.333397 0
M  V30 14 C -0.432841 3.746663 3.396853 0
M  V30 15 C -0.342611 3.142990 1.991368 0
M  V30 16 C 0.135913 0.632856 0.110016 0
M  V30 17 N -0.813997 1.308538 -0.603356 0
M  V30 18 C -1.764047 0.438583 -0.987795 0
M  V30 19 C -2.981135 0.745362 -1.772661 0
M  V30 20 C -1.476740 -0.825516 -0.547366 0
M  V30 21 C -2.083020 -2.172906 -0.602005 0
M  V30 22 C -2.001291 -2.879247 -1.873689 0
M  V30 23 C -0.937338 -3.748566 -2.056724 0
M  V30 24 C -0.762025 -4.439088 -3.259942 0
M  V30 25 C -1.629246 -4.293759 -4.313982 0
M  V30 26 Cl -1.419269 -5.151828 -5.822709 0
M  V30 27 C -2.702568 -3.436437 -4.169085 0
M  V30 28 C -2.823804 -2.789291 -2.973632 0
M  V30 29 F -3.916837 -1.986456 -2.869205 0
M  V30 30 N -0.292794 -0.637954 0.122465 0
M  V30 31 N 0.513652 -1.462074 0.797083 0
M  V30 32 N 0.913707 -3.864687 1.694266 0
M  V30 33 N 0.862104 -5.161454 1.939395 0
M  V30 34 H 1.405444 -7.350157 3.595831 0
M  V30 35 H 3.153626 -7.050380 3.610897 0
M  V30 36 H 2.314693 -7.600769 2.107148 0
M  V30 37 H 3.740195 -4.362157 3.246104 0
M  V30 38 H 3.341695 -1.726092 2.560123 0
M  V30 39 H 2.956339 0.645570 1.840243 0
M  V30 40 H 1.492101 2.847137 -0.549431 0
M  V30 41 H 2.640659 2.736266 0.805964 0
M  V30 42 H 1.981320 5.136326 1.744492 0
M  V30 43 H 0.988192 5.346572 0.209420 0
M  V30 44 H -1.031159 5.593946 1.575815 0
M  V30 45 H 0.258316 6.682550 2.172278 0
M  V30 46 H 0.229986 3.134481 4.042527 0
M  V30 47 H -1.494487 3.640867 3.694013 0
M  V30 48 H -1.225100 3.580676 1.454790 0
M  V30 49 H -0.562925 2.079492 2.091245 0
M  V30 50 H -3.854850 0.228929 -1.279105 0
M  V30 51 H -3.240850 1.837868 -1.710536 0
M  V30 52 H -2.896119 0.497263 -2.830503 0
M  V30 53 H -3.147852 -2.048910 -0.265849 0
M  V30 54 H -1.651514 -2.844534 0.192017 0
M  V30 55 H -0.160380 -3.991663 -1.347347 0
M  V30 56 H 0.067492 -5.135251 -3.442080 0
M  V30 57 H -3.425758 -3.285624 -4.978869 0
M  V30 58 H 0.018450 -5.693266 1.618354 0
M  V30 END ATOM
M  V30 BEGIN BOND
M  V30 1 1 1 2
M  V30 2 2 2 3
M  V30 3 1 3 4
M  V30 4 1 4 5
M  V30 5 1 5 6
M  V30 6 1 6 7
M  V30 7 2 7 8
M  V30 8 1 8 9
M  V30 9 1 9 10
M  V30 10 1 10 11
M  V30 11 1 11 12
M  V30 12 1 12 13
M  V30 13 1 13 14
M  V30 14 1 14 15
M  V30 15 1 8 16
M  V30 16 2 16 17
M  V30 17 1 17 18
M  V30 18 1 18 19
M  V30 19 2 18 20
M  V30 20 1 20 21
M  V30 21 1 21 22
M  V30 22 2 22 23
M  V30 23 1 23 24
M  V30 24 2 24 25
M  V30 25 1 25 26
M  V30 26 1 25 27
M  V30 27 2 27 28
M  V30 28 1 28 29
M  V30 29 1 20 30
M  V30 30 1 30 31
M  V30 31 2 4 32
M  V30 32 1 32 33
M  V30 33 1 33 2
M  V30 34 2 31 6
M  V30 35 1 15 10
M  V30 36 1 30 16
M  V30 37 1 28 22
M  V30 38 1 1 34
M  V30 39 1 1 35
M  V30 40 1 1 36
M  V30 41 1 3 37
M  V30 42 1 5 38
M  V30 43 1 7 39
M  V30 44 1 9 40
M  V30 45 1 9 41
M  V30 46 1 11 42
M  V30 47 1 11 43
M  V30 48 1 12 44
M  V30 49 1 12 45
M  V30 50 1 14 46
M  V30 51 1 14 47
M  V30 52 1 15 48
M  V30 53 1 15 49
M  V30 54 1 19 50
M  V30 55 1 19 51
M  V30 56 1 19 52
M  V30 57 1 21 53
M  V30 58 1 21 54
M  V30 59 1 23 55
M  V30 60 1 24 56
M  V30 61 1 27 57
M  V30 62 1 33 58
M  V30 END BOND
M  V30 END CTAB
M  END
>  <Dataset>  (316) 
ChEMBL_Kinases

>  <Ligand_Instance>  (316) 
nan

>  <PDB_ID>  (316) 
nan

>  <Standardized_SMILES>  (316) 
Cc1cc(Nc2cc(CN3CCOCC3)c3nc(C)c(Cc4ccc(Cl)cc4F)n3n2)n[nH]1

>  <Name>  (316) 
GANDOTINIB

>  <Pocket>  (316) 
nan

>  <ATP_Site>  (316) 
nan

>  <Peripheral>  (316) 
nan

>  <Num_H_Atoms_ProtBoundConf>  (316) 
nan

>  <Num_Resolved_Atoms>  (316) 
nan

>  <Num_Not_Resolved_Atoms>  (316) 
nan

$$$$
CHEMBL210752
     RDKit          3D

  0  0  0  0  0  0  0  0  0  0999 V3000
M  V30 BEGIN CTAB
M  V30 COUNTS 54 54 0 0 0
M  V30 BEGIN ATOM
M  V30 1 C 1.082593 -4.527327 1.691707 0
M  V30 2 C 1.787532 -3.136808 1.711833 0
M  V30 3 C 1.280818 -2.415281 0.519221 0
M  V30 4 C 1.754243 -1.094376 0.122238 0
M  V30 5 N 1.734877 0.091616 0.798171 0
M  V30 6 C 2.494927 0.580169 1.832077 0
M  V30 7 C 2.363491 -0.058900 3.169203 0
M  V30 8 C 3.227590 0.753228 4.165920 0
M  V30 9 C 4.648467 0.690151 3.653959 0
M  V30 10 C 1.146504 1.202073 -0.010469 0
M  V30 11 C -0.279620 0.895153 -0.156934 0
M  V30 12 O -1.036251 -0.061322 0.239844 0
M  V30 13 N -1.204863 1.728839 -0.868971 0
M  V30 14 C -2.426298 0.958391 -0.697525 0
M  V30 15 C -3.336365 1.037255 0.334218 0
M  V30 16 C -4.394761 0.164267 0.242998 0
M  V30 17 N -5.334742 0.239652 1.305125 0
M  V30 18 C -4.503697 -0.708548 -0.814790 0
M  V30 19 C -5.645788 -1.605258 -0.842391 0
M  V30 20 N -6.573905 -2.320461 -0.856327 0
M  V30 21 C -3.590386 -0.780602 -1.842594 0
M  V30 22 O -3.694368 -1.657777 -2.910285 0
M  V30 23 C -2.679772 -1.616285 -3.898558 0
M  V30 24 C -1.343330 -1.905056 -3.264627 0
M  V30 25 N -2.574394 0.089831 -1.711517 0
M  V30 26 H 1.391685 -5.070697 2.618471 0
M  V30 27 H -0.001834 -4.423984 1.704012 0
M  V30 28 H 1.380965 -5.097198 0.802645 0
M  V30 29 H 1.348274 -2.641428 2.640474 0
M  V30 30 H 2.857201 -3.274228 1.747931 0
M  V30 31 H 1.397801 -3.158575 -0.367366 0
M  V30 32 H 0.140157 -2.458189 0.625111 0
M  V30 33 H 2.869327 -1.282854 -0.210047 0
M  V30 34 H 1.329330 -0.962572 -0.962543 0
M  V30 35 H 2.264337 1.706008 1.932471 0
M  V30 36 H 3.607627 0.596149 1.536065 0
M  V30 37 H 2.887899 -1.062149 3.108519 0
M  V30 38 H 1.353565 -0.222177 3.542145 0
M  V30 39 H 3.089820 0.311957 5.159065 0
M  V30 40 H 2.832232 1.778156 4.192722 0
M  V30 41 H 5.320193 0.559313 4.553541 0
M  V30 42 H 4.925324 1.629690 3.093319 0
M  V30 43 H 4.786755 -0.198008 2.995290 0
M  V30 44 H 1.319299 2.141223 0.551053 0
M  V30 45 H 1.740579 1.235258 -0.922391 0
M  V30 46 H -0.862546 2.631072 -1.324421 0
M  V30 47 H -3.099833 1.770698 1.075652 0
M  V30 48 H -6.297177 0.508594 1.595830 0
M  V30 49 H -5.086449 -0.084664 2.282372 0
M  V30 50 H -2.619981 -0.649925 -4.407942 0
M  V30 51 H -2.892265 -2.391391 -4.696668 0
M  V30 52 H -0.805857 -2.679719 -3.852524 0
M  V30 53 H -1.507465 -2.271753 -2.248685 0
M  V30 54 H -0.680504 -1.004686 -3.266926 0
M  V30 END ATOM
M  V30 BEGIN BOND
M  V30 1 1 1 2
M  V30 2 1 2 3
M  V30 3 1 3 4
M  V30 4 1 4 5
M  V30 5 1 5 6
M  V30 6 1 6 7
M  V30 7 1 7 8
M  V30 8 1 8 9
M  V30 9 1 5 10
M  V30 10 1 10 11
M  V30 11 2 11 12
M  V30 12 1 11 13
M  V30 13 1 13 14
M  V30 14 2 14 15
M  V30 15 1 15 16
M  V30 16 1 16 17
M  V30 17 2 16 18
M  V30 18 1 18 19
M  V30 19 3 19 20
M  V30 20 1 18 21
M  V30 21 1 21 22
M  V30 22 1 22 23
M  V30 23 1 23 24
M  V30 24 2 21 25
M  V30 25 1 25 14
M  V30 26 1 1 26
M  V30 27 1 1 27
M  V30 28 1 1 28
M  V30 29 1 2 29
M  V30 30 1 2 30
M  V30 31 1 3 31
M  V30 32 1 3 32
M  V30 33 1 4 33
M  V30 34 1 4 34
M  V30 35 1 6 35
M  V30 36 1 6 36
M  V30 37 1 7 37
M  V30 38 1 7 38
M  V30 39 1 8 39
M  V30 40 1 8 40
M  V30 41 1 9 41
M  V30 42 1 9 42
M  V30 43 1 9 43
M  V30 44 1 10 44
M  V30 45 1 10 45
M  V30 46 1 13 46
M  V30 47 1 15 47
M  V30 48 1 17 48
M  V30 49 1 17 49
M  V30 50 1 23 50
M  V30 51 1 23 51
M  V30 52 1 24 52
M  V30 53 1 24 53
M  V30 54 1 24 54
M  V30 END BOND
M  V30 END CTAB
M  END
>  <Dataset>  (317) 
ChEMBL_Kinases

>  <Ligand_Instance>  (317) 
nan

>  <PDB_ID>  (317) 
nan

>  <Standardized_SMILES>  (317) 
CCCCN(CCCC)CC(=O)Nc1cc(N)c(C#N)c(OCC)n1

>  <Name>  (317) 
nan

>  <Pocket>  (317) 
nan

>  <ATP_Site>  (317) 
nan

>  <Peripheral>  (317) 
nan

>  <Num_H_Atoms_ProtBoundConf>  (317) 
nan

>  <Num_Resolved_Atoms>  (317) 
nan

>  <Num_Not_Resolved_Atoms>  (317) 
nan

$$$$
CHEMBL210746
     RDKit          3D

  0  0  0  0  0  0  0  0  0  0999 V3000
M  V30 BEGIN CTAB
M  V30 COUNTS 66 67 0 0 0
M  V30 BEGIN ATOM
M  V30 1 C 1.609776 -5.429134 3.953580 0
M  V30 2 C 2.676845 -4.743166 3.108832 0
M  V30 3 C 2.514422 -3.241683 3.145233 0
M  V30 4 C 3.623673 -2.659602 2.273726 0
M  V30 5 C 3.515906 -1.134993 2.268888 0
M  V30 6 C 4.617536 -0.607602 1.404181 0
M  V30 7 C 4.637950 0.901974 1.303869 0
M  V30 8 C 3.352330 1.441385 0.723856 0
M  V30 9 C 3.127633 0.876211 -0.689168 0
M  V30 10 C 1.877567 1.437163 -1.180494 0
M  V30 11 C 0.724053 0.934348 -1.582129 0
M  V30 12 C -0.564717 1.470541 -2.086683 0
M  V30 13 C -1.021277 0.288120 -2.954279 0
M  V30 14 C -0.315688 0.431760 -4.299235 0
M  V30 15 O -0.585697 -0.721073 -5.060194 0
M  V30 16 C -2.499703 0.402936 -3.133465 0
M  V30 17 O -3.261018 0.468266 -1.978485 0
M  V30 18 C -3.387391 -0.435171 -0.967816 0
M  V30 19 O -2.754785 -1.520190 -1.008350 0
M  V30 20 C -4.283058 -0.131964 0.193755 0
M  V30 21 C -3.876226 1.096371 0.927267 0
M  V30 22 C -4.509004 1.115297 2.277653 0
M  V30 23 C -5.774470 0.304177 2.393105 0
M  V30 24 C -5.581875 -1.130592 1.967323 0
M  V30 25 C -4.292233 -1.285340 1.148726 0
M  V30 26 O -0.575507 -0.831696 -2.260671 0
M  V30 27 C 0.580305 -0.515984 -1.561315 0
M  V30 28 O 1.283213 -1.401469 -1.053651 0
M  V30 29 H 1.638043 -5.036290 4.986305 0
M  V30 30 H 0.622728 -5.230636 3.479709 0
M  V30 31 H 1.784677 -6.517157 3.896687 0
M  V30 32 H 3.682280 -5.053292 3.510156 0
M  V30 33 H 2.536875 -5.075744 2.062747 0
M  V30 34 H 2.615500 -2.892773 4.179107 0
M  V30 35 H 1.533242 -3.020515 2.693679 0
M  V30 36 H 3.518324 -3.035029 1.246197 0
M  V30 37 H 4.602194 -2.936016 2.737198 0
M  V30 38 H 2.498438 -0.889833 1.915153 0
M  V30 39 H 3.711599 -0.776325 3.308948 0
M  V30 40 H 5.574855 -0.907918 1.906763 0
M  V30 41 H 4.673572 -1.084537 0.405138 0
M  V30 42 H 5.447455 1.160306 0.608626 0
M  V30 43 H 4.841941 1.381212 2.258064 0
M  V30 44 H 3.458559 2.547875 0.684523 0
M  V30 45 H 2.468826 1.225377 1.363033 0
M  V30 46 H 4.026079 1.209701 -1.248068 0
M  V30 47 H 3.106027 -0.212986 -0.563139 0
M  V30 48 H 1.905982 2.540092 -1.225829 0
M  V30 49 H -0.409686 2.377817 -2.725951 0
M  V30 50 H -1.305314 1.679154 -1.293662 0
M  V30 51 H 0.772377 0.468462 -4.189199 0
M  V30 52 H -0.760207 1.287072 -4.842477 0
M  V30 53 H -1.254505 -0.523203 -5.781045 0
M  V30 54 H -2.796417 -0.426789 -3.820856 0
M  V30 55 H -2.717618 1.323467 -3.716574 0
M  V30 56 H -5.334204 -0.000468 -0.175624 0
M  V30 57 H -2.760821 1.013228 1.084908 0
M  V30 58 H -4.002014 2.043404 0.365576 0
M  V30 59 H -4.770226 2.171513 2.500610 0
M  V30 60 H -3.802764 0.814179 3.085209 0
M  V30 61 H -6.025459 0.276257 3.483296 0
M  V30 62 H -6.617599 0.815147 1.886716 0
M  V30 63 H -6.402603 -1.353105 1.251994 0
M  V30 64 H -5.639395 -1.859657 2.791555 0
M  V30 65 H -4.260985 -2.252197 0.641189 0
M  V30 66 H -3.461535 -1.202984 1.892511 0
M  V30 END ATOM
M  V30 BEGIN BOND
M  V30 1 1 1 2
M  V30 2 1 2 3
M  V30 3 1 3 4
M  V30 4 1 4 5
M  V30 5 1 5 6
M  V30 6 1 6 7
M  V30 7 1 7 8
M  V30 8 1 8 9
M  V30 9 1 9 10
M  V30 10 2 10 11
M  V30 11 1 11 12
M  V30 12 1 12 13
M  V30 13 1 13 14
M  V30 14 1 14 15
M  V30 15 1 13 16
M  V30 16 1 16 17
M  V30 17 1 17 18
M  V30 18 2 18 19
M  V30 19 1 18 20
M  V30 20 1 20 21
M  V30 21 1 21 22
M  V30 22 1 22 23
M  V30 23 1 23 24
M  V30 24 1 24 25
M  V30 25 1 13 26
M  V30 26 1 26 27
M  V30 27 2 27 28
M  V30 28 1 27 11
M  V30 29 1 25 20
M  V30 30 1 1 29
M  V30 31 1 1 30
M  V30 32 1 1 31
M  V30 33 1 2 32
M  V30 34 1 2 33
M  V30 35 1 3 34
M  V30 36 1 3 35
M  V30 37 1 4 36
M  V30 38 1 4 37
M  V30 39 1 5 38
M  V30 40 1 5 39
M  V30 41 1 6 40
M  V30 42 1 6 41
M  V30 43 1 7 42
M  V30 44 1 7 43
M  V30 45 1 8 44
M  V30 46 1 8 45
M  V30 47 1 9 46
M  V30 48 1 9 47
M  V30 49 1 10 48
M  V30 50 1 12 49
M  V30 51 1 12 50
M  V30 52 1 14 51
M  V30 53 1 14 52
M  V30 54 1 15 53
M  V30 55 1 16 54
M  V30 56 1 16 55
M  V30 57 1 20 56
M  V30 58 1 21 57
M  V30 59 1 21 58
M  V30 60 1 22 59
M  V30 61 1 22 60
M  V30 62 1 23 61
M  V30 63 1 23 62
M  V30 64 1 24 63
M  V30 65 1 24 64
M  V30 66 1 25 65
M  V30 67 1 25 66
M  V30 END BOND
M  V30 END CTAB
M  END
>  <Dataset>  (318) 
ChEMBL_Kinases

>  <Ligand_Instance>  (318) 
nan

>  <PDB_ID>  (318) 
nan

>  <Standardized_SMILES>  (318) 
CCCCCCCCC/C=C1/CC(CO)(COC(=O)C2CCCCC2)OC1=O

>  <Name>  (318) 
nan

>  <Pocket>  (318) 
nan

>  <ATP_Site>  (318) 
nan

>  <Peripheral>  (318) 
nan

>  <Num_H_Atoms_ProtBoundConf>  (318) 
nan

>  <Num_Resolved_Atoms>  (318) 
nan

>  <Num_Not_Resolved_Atoms>  (318) 
nan

$$$$
CHEMBL210740
     RDKit          3D

  0  0  0  0  0  0  0  0  0  0999 V3000
M  V30 BEGIN CTAB
M  V30 COUNTS 55 59 0 0 0
M  V30 BEGIN ATOM
M  V30 1 C 4.533135 -0.065947 6.074356 0
M  V30 2 C 4.137716 -1.029508 5.031148 0
M  V30 3 N 4.355239 -2.340701 5.066010 0
M  V30 4 N 3.886617 -2.952666 3.985155 0
M  V30 5 C 3.340631 -1.970663 3.221932 0
M  V30 6 C 2.716895 -2.011568 2.009503 0
M  V30 7 C 2.252811 -0.835766 1.460257 0
M  V30 8 C 2.377765 0.418669 2.067815 0
M  V30 9 C 1.850415 1.609438 1.401882 0
M  V30 10 C 2.379146 2.878062 1.512543 0
M  V30 11 N 1.799678 3.916959 0.841706 0
M  V30 12 C 0.701969 3.670060 0.072307 0
M  V30 13 C 0.117451 2.398896 -0.079333 0
M  V30 14 O -0.935697 2.541305 -0.904132 0
M  V30 15 C -1.879429 1.660929 -1.400544 0
M  V30 16 C -2.685755 1.062419 -0.302959 0 CFG=1
M  V30 17 N -3.345244 2.184554 0.384720 0
M  V30 18 C -3.812333 0.183181 -0.805348 0
M  V30 19 C -3.330335 -0.947954 -1.613348 0
M  V30 20 C -3.137129 -0.956971 -2.978582 0
M  V30 21 C -2.676667 -2.078257 -3.653905 0
M  V30 22 C -2.390484 -3.248459 -2.964352 0
M  V30 23 C -1.930311 -4.396157 -3.577317 0
M  V30 24 C -1.665406 -5.531461 -2.817645 0
M  V30 25 C -1.851471 -5.544632 -1.451331 0
M  V30 26 C -2.312118 -4.402418 -0.822562 0
M  V30 27 C -2.574993 -3.266852 -1.597279 0
M  V30 28 C -3.034060 -2.140712 -0.943417 0
M  V30 29 C 0.740412 1.409279 0.612453 0
M  V30 30 C 3.016312 0.432223 3.300851 0
M  V30 31 C 3.475161 -0.752793 3.837251 0
M  V30 32 H 3.970796 0.874437 6.011424 0
M  V30 33 H 4.416688 -0.534992 7.076912 0
M  V30 34 H 5.625793 0.134640 5.963541 0
M  V30 35 H 3.893558 -3.958345 3.704200 0
M  V30 36 H 2.591757 -2.944487 1.495590 0
M  V30 37 H 1.761975 -0.930570 0.487505 0
M  V30 38 H 3.253769 2.975351 2.148461 0
M  V30 39 H 0.420335 4.636590 -0.358290 0
M  V30 40 H -2.541652 2.267853 -2.092744 0
M  V30 41 H -1.336288 0.899452 -2.010140 0
M  V30 42 H -2.047136 0.544596 0.410387 0
M  V30 43 H -3.814761 1.863917 1.261690 0
M  V30 44 H -2.617310 2.881811 0.691248 0
M  V30 45 H -4.548813 0.774924 -1.373750 0
M  V30 46 H -4.350440 -0.213195 0.080264 0
M  V30 47 H -3.362580 -0.042744 -3.503080 0
M  V30 48 H -2.533010 -2.062202 -4.722946 0
M  V30 49 H -1.779107 -4.401611 -4.648312 0
M  V30 50 H -1.304035 -6.448337 -3.262687 0
M  V30 51 H -1.643870 -6.436258 -0.849759 0
M  V30 52 H -2.466590 -4.381619 0.236721 0
M  V30 53 H -3.169331 -2.184215 0.128669 0
M  V30 54 H 0.275831 0.464467 0.465592 0
M  V30 55 H 3.129581 1.387114 3.798915 0
M  V30 END ATOM
M  V30 BEGIN BOND
M  V30 1 1 1 2
M  V30 2 2 2 3
M  V30 3 1 3 4
M  V30 4 1 4 5
M  V30 5 2 5 6
M  V30 6 1 6 7
M  V30 7 2 7 8
M  V30 8 1 8 9
M  V30 9 2 9 10
M  V30 10 1 10 11
M  V30 11 2 11 12
M  V30 12 1 12 13
M  V30 13 1 13 14
M  V30 14 1 14 15
M  V30 15 1 15 16
M  V30 16 1 16 17
M  V30 17 1 16 18
M  V30 18 1 18 19
M  V30 19 2 19 20
M  V30 20 1 20 21
M  V30 21 2 21 22
M  V30 22 1 22 23
M  V30 23 2 23 24
M  V30 24 1 24 25
M  V30 25 2 25 26
M  V30 26 1 26 27
M  V30 27 2 27 28
M  V30 28 2 13 29
M  V30 29 1 8 30
M  V30 30 2 30 31
M  V30 31 1 31 2
M  V30 32 1 31 5
M  V30 33 1 29 9
M  V30 34 1 28 19
M  V30 35 1 27 22
M  V30 36 1 1 32
M  V30 37 1 1 33
M  V30 38 1 1 34
M  V30 39 1 4 35
M  V30 40 1 6 36
M  V30 41 1 7 37
M  V30 42 1 10 38
M  V30 43 1 12 39
M  V30 44 1 15 40
M  V30 45 1 15 41
M  V30 46 1 16 42 CFG=1
M  V30 47 1 17 43
M  V30 48 1 17 44
M  V30 49 1 18 45
M  V30 50 1 18 46
M  V30 51 1 20 47
M  V30 52 1 21 48
M  V30 53 1 23 49
M  V30 54 1 24 50
M  V30 55 1 25 51
M  V30 56 1 26 52
M  V30 57 1 28 53
M  V30 58 1 29 54
M  V30 59 1 30 55
M  V30 END BOND
M  V30 END CTAB
M  END
>  <Dataset>  (319) 
ChEMBL_Kinases

>  <Ligand_Instance>  (319) 
nan

>  <PDB_ID>  (319) 
nan

>  <Standardized_SMILES>  (319) 
Cc1n[nH]c2ccc(-c3cncc(OC[C@@H](N)Cc4ccc5ccccc5c4)c3)cc12

>  <Name>  (319) 
nan

>  <Pocket>  (319) 
nan

>  <ATP_Site>  (319) 
nan

>  <Peripheral>  (319) 
nan

>  <Num_H_Atoms_ProtBoundConf>  (319) 
nan

>  <Num_Resolved_Atoms>  (319) 
nan

>  <Num_Not_Resolved_Atoms>  (319) 
nan

$$$$
CHEMBL210725
     RDKit          3D

  0  0  0  0  0  0  0  0  0  0999 V3000
M  V30 BEGIN CTAB
M  V30 COUNTS 57 58 0 0 0
M  V30 BEGIN ATOM
M  V30 1 C 0.034514 -4.033011 3.692569 0
M  V30 2 C -0.816301 -3.422495 2.625671 0
M  V30 3 C -1.303174 -2.074810 3.162433 0
M  V30 4 C -0.092056 -3.217786 1.301522 0
M  V30 5 C 1.064813 -2.315874 1.520492 0
M  V30 6 C 1.885647 -1.990316 0.363246 0
M  V30 7 C 1.997962 -0.706210 -0.030436 0
M  V30 8 C 1.319954 0.424511 0.659610 0
M  V30 9 C 1.992707 1.624614 0.026630 0
M  V30 10 C 3.329329 1.952345 0.677096 0
M  V30 11 O 4.120691 0.796902 0.649562 0
M  V30 12 C 1.095586 2.841394 0.042989 0
M  V30 13 O -0.099938 2.478468 -0.652224 0
M  V30 14 C -1.161976 3.338928 -0.841912 0
M  V30 15 O -1.098684 4.506275 -0.389728 0
M  V30 16 C -2.339305 2.880475 -1.563139 0
M  V30 17 C -3.424551 3.707100 -1.775945 0
M  V30 18 C -4.524785 3.227817 -2.468330 0
M  V30 19 C -4.561238 1.921718 -2.958101 0
M  V30 20 C -3.489065 1.079710 -2.757029 0
M  V30 21 C -2.430359 1.616410 -2.063462 0
M  V30 22 O 2.307887 1.225606 -1.294205 0
M  V30 23 C 2.750792 -0.101220 -1.150153 0
M  V30 24 O 3.628691 -0.759426 -1.805317 0
M  V30 25 C 0.189113 -4.578454 0.778380 0
M  V30 26 C -1.175657 -5.268034 0.614339 0
M  V30 27 C 0.888203 -4.687616 -0.521196 0
M  V30 28 H 0.330748 -5.078348 3.525597 0
M  V30 29 H 0.876237 -3.378626 4.017796 0
M  V30 30 H -0.627132 -4.078400 4.608113 0
M  V30 31 H -1.730118 -4.042606 2.525626 0
M  V30 32 H -2.303860 -2.163944 3.642593 0
M  V30 33 H -0.625817 -1.638137 3.896912 0
M  V30 34 H -1.427807 -1.338639 2.329171 0
M  V30 35 H -0.817433 -2.716771 0.628883 0
M  V30 36 H 1.750615 -2.808187 2.270910 0
M  V30 37 H 0.687797 -1.385348 1.982166 0
M  V30 38 H 2.473403 -2.612075 -0.295211 0
M  V30 39 H 0.243489 0.483051 0.468074 0
M  V30 40 H 1.587507 0.463301 1.742186 0
M  V30 41 H 3.230257 2.389154 1.683064 0
M  V30 42 H 3.834710 2.656379 -0.038250 0
M  V30 43 H 3.873047 0.170218 1.358372 0
M  V30 44 H 0.898833 3.206376 1.054044 0
M  V30 45 H 1.596259 3.635382 -0.539539 0
M  V30 46 H -3.427523 4.720531 -1.410603 0
M  V30 47 H -5.418900 3.836044 -2.669951 0
M  V30 48 H -5.440716 1.579675 -3.496569 0
M  V30 49 H -3.469466 0.057875 -3.117519 0
M  V30 50 H -1.555602 0.975041 -1.882860 0
M  V30 51 H 0.721728 -5.189782 1.530438 0
M  V30 52 H -1.118510 -5.987323 -0.213539 0
M  V30 53 H -1.458319 -5.802046 1.540785 0
M  V30 54 H -1.899853 -4.484856 0.329415 0
M  V30 55 H 1.961932 -4.927606 -0.332344 0
M  V30 56 H 0.516523 -5.627144 -1.036493 0
M  V30 57 H 0.711185 -3.893964 -1.253539 0
M  V30 END ATOM
M  V30 BEGIN BOND
M  V30 1 1 1 2
M  V30 2 1 2 3
M  V30 3 1 2 4
M  V30 4 1 4 5
M  V30 5 1 5 6
M  V30 6 2 6 7
M  V30 7 1 7 8
M  V30 8 1 8 9
M  V30 9 1 9 10
M  V30 10 1 10 11
M  V30 11 1 9 12
M  V30 12 1 12 13
M  V30 13 1 13 14
M  V30 14 2 14 15
M  V30 15 1 14 16
M  V30 16 2 16 17
M  V30 17 1 17 18
M  V30 18 2 18 19
M  V30 19 1 19 20
M  V30 20 2 20 21
M  V30 21 1 9 22
M  V30 22 1 22 23
M  V30 23 2 23 24
M  V30 24 1 4 25
M  V30 25 1 25 26
M  V30 26 1 25 27
M  V30 27 1 23 7
M  V30 28 1 21 16
M  V30 29 1 1 28
M  V30 30 1 1 29
M  V30 31 1 1 30
M  V30 32 1 2 31
M  V30 33 1 3 32
M  V30 34 1 3 33
M  V30 35 1 3 34
M  V30 36 1 4 35
M  V30 37 1 5 36
M  V30 38 1 5 37
M  V30 39 1 6 38
M  V30 40 1 8 39
M  V30 41 1 8 40
M  V30 42 1 10 41
M  V30 43 1 10 42
M  V30 44 1 11 43
M  V30 45 1 12 44
M  V30 46 1 12 45
M  V30 47 1 17 46
M  V30 48 1 18 47
M  V30 49 1 19 48
M  V30 50 1 20 49
M  V30 51 1 21 50
M  V30 52 1 25 51
M  V30 53 1 26 52
M  V30 54 1 26 53
M  V30 55 1 26 54
M  V30 56 1 27 55
M  V30 57 1 27 56
M  V30 58 1 27 57
M  V30 END BOND
M  V30 END CTAB
M  END
>  <Dataset>  (320) 
ChEMBL_Kinases

>  <Ligand_Instance>  (320) 
nan

>  <PDB_ID>  (320) 
nan

>  <Standardized_SMILES>  (320) 
CC(C)C(C/C=C1\CC(CO)(COC(=O)c2ccccc2)OC1=O)C(C)C

>  <Name>  (320) 
nan

>  <Pocket>  (320) 
nan

>  <ATP_Site>  (320) 
nan

>  <Peripheral>  (320) 
nan

>  <Num_H_Atoms_ProtBoundConf>  (320) 
nan

>  <Num_Resolved_Atoms>  (320) 
nan

>  <Num_Not_Resolved_Atoms>  (320) 
nan

$$$$
CHEMBL210237
     RDKit          3D

  0  0  0  0  0  0  0  0  0  0999 V3000
M  V30 BEGIN CTAB
M  V30 COUNTS 78 84 0 0 0
M  V30 BEGIN ATOM
M  V30 1 C -1.102905 -4.009899 3.660222 0
M  V30 2 C -0.391470 -3.116987 4.651158 0
M  V30 3 C -0.170146 -3.956020 5.879265 0
M  V30 4 C 0.846047 -2.509688 4.183907 0
M  V30 5 C 1.967131 -3.311692 3.751937 0
M  V30 6 C 2.207163 -3.551279 2.390067 0
M  V30 7 N 3.274623 -4.331000 2.173995 0
M  V30 8 C 3.794824 -4.646502 3.379670 0
M  V30 9 C 4.876617 -5.399522 3.781104 0
M  V30 10 C 5.094377 -5.482466 5.134963 0
M  V30 11 C 4.337926 -4.887027 6.130031 0
M  V30 12 C 3.253568 -4.135116 5.678347 0
M  V30 13 C 2.999414 -4.026697 4.327348 0
M  V30 14 C -1.334463 -1.976447 5.071827 0
M  V30 15 C -0.590229 -1.134795 6.040051 0
M  V30 16 O -0.090898 -1.237836 7.205316 0
M  V30 17 N -0.375908 0.181453 5.491531 0
M  V30 18 C -0.984714 0.219991 4.190713 0
M  V30 19 C -1.099575 1.215139 3.218792 0
M  V30 20 C -1.750195 1.032725 2.017225 0
M  V30 21 C -2.316301 -0.200503 1.766694 0
M  V30 22 C -3.009788 -0.425014 0.500393 0
M  V30 23 C -4.089975 -1.310828 0.435013 0
M  V30 24 N -4.686807 -1.471995 -0.782593 0
M  V30 25 C -4.215033 -0.783728 -1.838844 0
M  V30 26 C -3.141482 0.110527 -1.824087 0
M  V30 27 O -2.779402 0.742040 -3.008461 0
M  V30 28 C -1.688934 1.638400 -2.948680 0
M  V30 29 C -1.396573 2.254083 -4.300549 0 CFG=1
M  V30 30 N -2.502320 2.996472 -4.830000 0
M  V30 31 C -0.115778 3.059263 -4.276318 0
M  V30 32 C 0.181951 3.673477 -5.615507 0
M  V30 33 C 0.050354 4.977831 -6.093044 0
M  V30 34 N 0.461244 4.995330 -7.380515 0
M  V30 35 C 0.852925 3.770715 -7.764524 0
M  V30 36 C 1.350549 3.264144 -8.964019 0
M  V30 37 C 1.667391 1.917076 -9.030865 0
M  V30 38 C 1.520404 1.024630 -7.967978 0
M  V30 39 C 1.019321 1.599947 -6.804857 0
M  V30 40 C 0.685595 2.929130 -6.673259 0
M  V30 41 C -2.539662 0.274796 -0.602339 0
M  V30 42 C -2.195885 -1.193150 2.748516 0
M  V30 43 C -1.547670 -1.024325 3.954002 0
M  V30 44 H -2.186974 -3.953465 3.885259 0
M  V30 45 H -0.956502 -3.754405 2.614809 0
M  V30 46 H -0.886476 -5.101393 3.869406 0
M  V30 47 H 0.293808 -3.455633 6.723808 0
M  V30 48 H 0.456608 -4.819251 5.556906 0
M  V30 49 H -1.154854 -4.428224 6.140174 0
M  V30 50 H 0.601204 -1.728583 3.401592 0
M  V30 51 H 1.235890 -1.861471 5.033393 0
M  V30 52 H 1.637364 -3.182228 1.539825 0
M  V30 53 H 3.670725 -4.660764 1.270947 0
M  V30 54 H 5.520353 -5.898977 3.071311 0
M  V30 55 H 5.939280 -6.068682 5.485666 0
M  V30 56 H 4.595019 -5.013983 7.174188 0
M  V30 57 H 2.639709 -3.648379 6.420399 0
M  V30 58 H -2.257070 -2.330648 5.527750 0
M  V30 59 H 0.107586 1.065370 5.832963 0
M  V30 60 H -0.672144 2.183179 3.380948 0
M  V30 61 H -1.820714 1.824746 1.287124 0
M  V30 62 H -4.398256 -1.816347 1.326848 0
M  V30 63 H -4.713066 -0.937136 -2.788734 0
M  V30 64 H -0.783237 1.147823 -2.569910 0
M  V30 65 H -1.901607 2.502661 -2.267724 0
M  V30 66 H -1.221284 1.386473 -4.984101 0
M  V30 67 H -2.650974 2.780809 -5.860146 0
M  V30 68 H -3.408652 2.720692 -4.383104 0
M  V30 69 H 0.758864 2.437045 -4.008292 0
M  V30 70 H -0.209392 3.903031 -3.560423 0
M  V30 71 H -0.326583 5.770201 -5.461215 0
M  V30 72 H 0.470579 5.850246 -7.989844 0
M  V30 73 H 1.490019 3.892612 -9.825417 0
M  V30 74 H 2.050645 1.560239 -9.976354 0
M  V30 75 H 1.765925 -0.007793 -8.027084 0
M  V30 76 H 0.907233 0.889846 -5.974167 0
M  V30 77 H -1.710979 0.954420 -0.553632 0
M  V30 78 H -2.672507 -2.107156 2.453100 0
M  V30 END ATOM
M  V30 BEGIN BOND
M  V30 1 1 1 2
M  V30 2 1 2 3
M  V30 3 1 2 4
M  V30 4 1 4 5
M  V30 5 2 5 6
M  V30 6 1 6 7
M  V30 7 1 7 8
M  V30 8 2 8 9
M  V30 9 1 9 10
M  V30 10 2 10 11
M  V30 11 1 11 12
M  V30 12 2 12 13
M  V30 13 1 2 14
M  V30 14 1 14 15
M  V30 15 2 15 16
M  V30 16 1 15 17
M  V30 17 1 17 18
M  V30 18 2 18 19
M  V30 19 1 19 20
M  V30 20 2 20 21
M  V30 21 1 21 22
M  V30 22 2 22 23
M  V30 23 1 23 24
M  V30 24 2 24 25
M  V30 25 1 25 26
M  V30 26 1 26 27
M  V30 27 1 27 28
M  V30 28 1 28 29
M  V30 29 1 29 30
M  V30 30 1 29 31
M  V30 31 1 31 32
M  V30 32 2 32 33
M  V30 33 1 33 34
M  V30 34 1 34 35
M  V30 35 2 35 36
M  V30 36 1 36 37
M  V30 37 2 37 38
M  V30 38 1 38 39
M  V30 39 2 39 40
M  V30 40 2 26 41
M  V30 41 1 21 42
M  V30 42 2 42 43
M  V30 43 1 13 5
M  V30 44 1 43 14
M  V30 45 1 13 8
M  V30 46 1 43 18
M  V30 47 1 41 22
M  V30 48 1 40 32
M  V30 49 1 40 35
M  V30 50 1 1 44
M  V30 51 1 1 45
M  V30 52 1 1 46
M  V30 53 1 3 47
M  V30 54 1 3 48
M  V30 55 1 3 49
M  V30 56 1 4 50
M  V30 57 1 4 51
M  V30 58 1 6 52
M  V30 59 1 7 53
M  V30 60 1 9 54
M  V30 61 1 10 55
M  V30 62 1 11 56
M  V30 63 1 12 57
M  V30 64 1 14 58
M  V30 65 1 17 59
M  V30 66 1 19 60
M  V30 67 1 20 61
M  V30 68 1 23 62
M  V30 69 1 25 63
M  V30 70 1 28 64
M  V30 71 1 28 65
M  V30 72 1 29 66 CFG=3
M  V30 73 1 30 67
M  V30 74 1 30 68
M  V30 75 1 31 69
M  V30 76 1 31 70
M  V30 77 1 33 71
M  V30 78 1 34 72
M  V30 79 1 36 73
M  V30 80 1 37 74
M  V30 81 1 38 75
M  V30 82 1 39 76
M  V30 83 1 41 77
M  V30 84 1 42 78
M  V30 END BOND
M  V30 END CTAB
M  END
>  <Dataset>  (321) 
ChEMBL_Kinases

>  <Ligand_Instance>  (321) 
nan

>  <PDB_ID>  (321) 
nan

>  <Standardized_SMILES>  (321) 
CC(C)(Cc1c[nH]c2ccccc12)C1C(=O)Nc2ccc(-c3cncc(OC[C@@H](N)Cc4c[nH]c5ccccc45)c3)cc21

>  <Name>  (321) 
nan

>  <Pocket>  (321) 
nan

>  <ATP_Site>  (321) 
nan

>  <Peripheral>  (321) 
nan

>  <Num_H_Atoms_ProtBoundConf>  (321) 
nan

>  <Num_Resolved_Atoms>  (321) 
nan

>  <Num_Not_Resolved_Atoms>  (321) 
nan

$$$$
CHEMBL210242
     RDKit          3D

  0  0  0  0  0  0  0  0  0  0999 V3000
M  V30 BEGIN CTAB
M  V30 COUNTS 51 55 0 0 0
M  V30 BEGIN ATOM
M  V30 1 C -0.807553 -5.888064 1.395854 0
M  V30 2 C 0.303167 -4.903635 1.405677 0
M  V30 3 C 1.580633 -5.349582 1.662921 0
M  V30 4 C 2.610834 -4.441199 1.673565 0
M  V30 5 C 2.307403 -3.126819 1.424603 0
M  V30 6 N 3.285303 -2.209877 1.439749 0
M  V30 7 C 3.079692 -0.910491 1.221668 0
M  V30 8 O 4.232664 -0.152867 1.286415 0
M  V30 9 C 1.857914 -0.359535 0.957991 0
M  V30 10 C 1.790578 1.075820 0.870716 0
M  V30 11 N 2.874716 1.859815 0.878009 0
M  V30 12 C 2.612165 3.159828 0.848094 0
M  V30 13 C 3.528031 4.202377 0.846636 0
M  V30 14 C 2.971381 5.484941 0.811198 0
M  V30 15 C 1.588049 5.659084 0.780245 0
M  V30 16 C 0.748887 4.539373 0.784679 0
M  V30 17 C 1.243473 3.257900 0.818840 0
M  V30 18 N 0.835656 2.001796 0.834932 0
M  V30 19 C 0.837248 -1.254801 0.927998 0
M  V30 20 N -0.477867 -0.891191 0.558095 0
M  V30 21 C -1.881351 -1.042489 0.313032 0
M  V30 22 C -2.659107 0.259844 0.116460 0
M  V30 23 C -4.101183 -0.139968 0.049222 0
M  V30 24 N -4.332582 -1.555144 -0.006460 0
M  V30 25 C -3.549995 -2.267178 -0.969175 0
M  V30 26 C -2.120994 -1.776579 -1.028566 0
M  V30 27 C 1.066584 -2.593178 1.158391 0
M  V30 28 C 0.095400 -3.564127 1.166925 0
M  V30 29 H -1.224527 -5.934889 2.429126 0
M  V30 30 H -1.572606 -5.540955 0.669702 0
M  V30 31 H -0.398472 -6.883958 1.142996 0
M  V30 32 H 1.855139 -6.374342 1.862377 0
M  V30 33 H 3.637287 -4.702167 1.865369 0
M  V30 34 H 4.996615 -0.370602 0.673322 0
M  V30 35 H 4.590459 4.005457 0.871474 0
M  V30 36 H 3.639602 6.334949 0.808443 0
M  V30 37 H 1.150467 6.647675 0.752774 0
M  V30 38 H -0.349128 4.622286 0.761191 0
M  V30 39 H -0.190315 1.908092 0.842753 0
M  V30 40 H -0.486125 0.045755 0.156250 0
M  V30 41 H -2.450452 -1.595735 1.064321 0
M  V30 42 H -2.474662 0.906881 0.974788 0
M  V30 43 H -2.379369 0.781057 -0.800462 0
M  V30 44 H -4.631073 0.317186 -0.822451 0
M  V30 45 H -4.648339 0.230140 0.950127 0
M  V30 46 H -4.443939 -2.019464 0.914235 0
M  V30 47 H -3.477685 -3.329292 -0.593297 0
M  V30 48 H -4.019938 -2.344714 -1.961565 0
M  V30 49 H -1.388738 -2.569821 -1.201682 0
M  V30 50 H -2.072461 -1.009403 -1.854626 0
M  V30 51 H -0.933185 -3.324899 0.991781 0
M  V30 END ATOM
M  V30 BEGIN BOND
M  V30 1 1 1 2
M  V30 2 2 2 3
M  V30 3 1 3 4
M  V30 4 2 4 5
M  V30 5 1 5 6
M  V30 6 2 6 7
M  V30 7 1 7 8
M  V30 8 1 7 9
M  V30 9 1 9 10
M  V30 10 2 10 11
M  V30 11 1 11 12
M  V30 12 2 12 13
M  V30 13 1 13 14
M  V30 14 2 14 15
M  V30 15 1 15 16
M  V30 16 2 16 17
M  V30 17 1 17 18
M  V30 18 2 9 19
M  V30 19 1 19 20
M  V30 20 1 20 21
M  V30 21 1 21 22
M  V30 22 1 22 23
M  V30 23 1 23 24
M  V30 24 1 24 25
M  V30 25 1 25 26
M  V30 26 1 19 27
M  V30 27 2 27 28
M  V30 28 1 28 2
M  V30 29 1 27 5
M  V30 30 1 18 10
M  V30 31 1 26 21
M  V30 32 1 17 12
M  V30 33 1 1 29
M  V30 34 1 1 30
M  V30 35 1 1 31
M  V30 36 1 3 32
M  V30 37 1 4 33
M  V30 38 1 8 34
M  V30 39 1 13 35
M  V30 40 1 14 36
M  V30 41 1 15 37
M  V30 42 1 16 38
M  V30 43 1 18 39
M  V30 44 1 20 40
M  V30 45 1 21 41
M  V30 46 1 22 42
M  V30 47 1 22 43
M  V30 48 1 23 44
M  V30 49 1 23 45
M  V30 50 1 24 46
M  V30 51 1 25 47
M  V30 52 1 25 48
M  V30 53 1 26 49
M  V30 54 1 26 50
M  V30 55 1 28 51
M  V30 END BOND
M  V30 END CTAB
M  END
>  <Dataset>  (322) 
ChEMBL_Kinases

>  <Ligand_Instance>  (322) 
nan

>  <PDB_ID>  (322) 
nan

>  <Standardized_SMILES>  (322) 
Cc1ccc2nc(O)c(-c3nc4ccccc4[nH]3)c(NC3CCNCC3)c2c1

>  <Name>  (322) 
nan

>  <Pocket>  (322) 
nan

>  <ATP_Site>  (322) 
nan

>  <Peripheral>  (322) 
nan

>  <Num_H_Atoms_ProtBoundConf>  (322) 
nan

>  <Num_Resolved_Atoms>  (322) 
nan

>  <Num_Not_Resolved_Atoms>  (322) 
nan

$$$$
CHEMBL210256
     RDKit          3D

  0  0  0  0  0  0  0  0  0  0999 V3000
M  V30 BEGIN CTAB
M  V30 COUNTS 25 25 0 0 0
M  V30 BEGIN ATOM
M  V30 1 C 1.709202 -0.660147 3.419919 0
M  V30 2 C 2.463155 -1.781956 2.757091 0
M  V30 3 O 1.501081 -2.663884 2.190410 0
M  V30 4 C 0.645622 -2.132917 1.232867 0
M  V30 5 C -0.299646 -3.008695 0.679290 0
M  V30 6 C -1.134354 -2.448621 -0.269507 0
M  V30 7 C -1.091237 -1.132793 -0.684376 0
M  V30 8 C -0.123580 -0.319317 -0.089044 0
M  V30 9 N -0.064674 1.043120 -0.505710 0
M  V30 10 C -0.773390 2.162898 0.061341 0
M  V30 11 C -0.404292 3.383909 -0.692035 0
M  V30 12 O -1.466766 1.684898 1.015610 0
M  V30 13 N 0.700716 -0.844953 0.838451 0
M  V30 14 H 0.628284 -0.828921 3.418766 0
M  V30 15 H 1.889401 0.269836 2.845373 0
M  V30 16 H 2.116737 -0.543176 4.465572 0
M  V30 17 H 3.076369 -1.418139 1.903968 0
M  V30 18 H 3.104013 -2.318789 3.487559 0
M  V30 19 H -0.396853 -4.052645 0.951403 0
M  V30 20 H -1.905514 -3.051421 -0.759659 0
M  V30 21 H -1.737669 -0.708437 -1.415916 0
M  V30 22 H 0.612190 0.939982 -1.292608 0
M  V30 23 H 0.671393 3.548991 -0.621745 0
M  V30 24 H -0.965346 4.271947 -0.340830 0
M  V30 25 H -0.669397 3.204591 -1.766229 0
M  V30 END ATOM
M  V30 BEGIN BOND
M  V30 1 1 1 2
M  V30 2 1 2 3
M  V30 3 1 3 4
M  V30 4 2 4 5
M  V30 5 1 5 6
M  V30 6 2 6 7
M  V30 7 1 7 8
M  V30 8 1 8 9
M  V30 9 1 9 10
M  V30 10 1 10 11
M  V30 11 2 10 12
M  V30 12 2 8 13
M  V30 13 1 13 4
M  V30 14 1 1 14
M  V30 15 1 1 15
M  V30 16 1 1 16
M  V30 17 1 2 17
M  V30 18 1 2 18
M  V30 19 1 5 19
M  V30 20 1 6 20
M  V30 21 1 7 21
M  V30 22 1 9 22
M  V30 23 1 11 23
M  V30 24 1 11 24
M  V30 25 1 11 25
M  V30 END BOND
M  V30 END CTAB
M  END
>  <Dataset>  (323) 
ChEMBL_Kinases

>  <Ligand_Instance>  (323) 
nan

>  <PDB_ID>  (323) 
nan

>  <Standardized_SMILES>  (323) 
CCOc1cccc(NC(C)=O)n1

>  <Name>  (323) 
nan

>  <Pocket>  (323) 
nan

>  <ATP_Site>  (323) 
nan

>  <Peripheral>  (323) 
nan

>  <Num_H_Atoms_ProtBoundConf>  (323) 
nan

>  <Num_Resolved_Atoms>  (323) 
nan

>  <Num_Not_Resolved_Atoms>  (323) 
nan

$$$$
CHEMBL210333
     RDKit          3D

  0  0  0  0  0  0  0  0  0  0999 V3000
M  V30 BEGIN CTAB
M  V30 COUNTS 59 64 0 0 0
M  V30 BEGIN ATOM
M  V30 1 N 2.877982 -3.889813 -0.221756 0
M  V30 2 C 1.946925 -3.695157 0.874501 0 CFG=2
M  V30 3 C 2.613562 -3.724643 2.204079 0
M  V30 4 O 3.594857 -2.784870 2.442714 0
M  V30 5 C 3.546770 -1.427178 2.471836 0
M  V30 6 C 4.832138 -0.950642 2.749505 0
M  V30 7 N 5.123030 0.380751 2.847845 0
M  V30 8 C 4.122621 1.290904 2.668625 0
M  V30 9 C 2.843127 0.859304 2.393792 0
M  V30 10 C 1.720976 1.769120 2.194629 0
M  V30 11 C 1.795999 2.934948 2.923667 0
M  V30 12 C 0.814470 3.899742 2.852308 0
M  V30 13 C -0.249896 3.639208 2.012047 0
M  V30 14 C -1.251833 4.582215 1.916793 0
M  V30 15 N -2.308699 4.374166 1.113790 0
M  V30 16 C -2.404212 3.246955 0.393829 0
M  V30 17 C -3.583684 3.062228 -0.474644 0
M  V30 18 C -3.878092 1.993787 -1.293796 0
M  V30 19 C -5.092442 2.223756 -1.940843 0
M  V30 20 C -5.479034 3.467684 -1.457454 0
M  V30 21 O -4.586702 3.923475 -0.613671 0
M  V30 22 C -1.435326 2.238075 0.429129 0
M  V30 23 C -0.339064 2.461260 1.266533 0
M  V30 24 C 0.659104 1.504622 1.353834 0
M  V30 25 C 2.556825 -0.491356 2.295804 0
M  V30 26 C 0.949981 -4.860493 0.839474 0
M  V30 27 C 0.217980 -4.883373 -0.449657 0
M  V30 28 C 0.464657 -5.757600 -1.496201 0
M  V30 29 N -0.340521 -5.565874 -2.557805 0
M  V30 30 C -1.147689 -4.545533 -2.229783 0
M  V30 31 C -2.176100 -3.880941 -2.879633 0
M  V30 32 C -2.868064 -2.824756 -2.292533 0
M  V30 33 C -2.515418 -2.422473 -1.010237 0
M  V30 34 C -1.488659 -3.063984 -0.324675 0
M  V30 35 C -0.820522 -4.113451 -0.940629 0
M  V30 36 H 2.347502 -3.670439 -1.100407 0
M  V30 37 H 3.216238 -4.878369 -0.177950 0
M  V30 38 H 1.377657 -2.792162 0.681871 0
M  V30 39 H 1.791236 -3.651369 2.975572 0
M  V30 40 H 3.070550 -4.734253 2.376150 0
M  V30 41 H 5.773501 -1.491002 2.926150 0
M  V30 42 H 4.313902 2.363859 2.738716 0
M  V30 43 H 2.621186 3.165690 3.590476 0
M  V30 44 H 0.864685 4.817459 3.421061 0
M  V30 45 H -1.170529 5.505919 2.508611 0
M  V30 46 H -3.285178 1.108637 -1.433660 0
M  V30 47 H -5.571986 1.545086 -2.650828 0
M  V30 48 H -6.401585 3.922368 -1.784576 0
M  V30 49 H -1.512830 1.325763 -0.152700 0
M  V30 50 H 0.641708 0.575662 0.801016 0
M  V30 51 H 1.614028 -0.932075 2.095035 0
M  V30 52 H 1.463962 -5.829371 0.967860 0
M  V30 53 H 0.190464 -4.751140 1.643033 0
M  V30 54 H 1.243588 -6.533149 -1.462221 0
M  V30 55 H -0.315760 -6.109074 -3.427871 0
M  V30 56 H -2.387217 -4.256423 -3.875391 0
M  V30 57 H -3.660777 -2.340664 -2.841186 0
M  V30 58 H -3.064947 -1.596787 -0.563264 0
M  V30 59 H -1.205572 -2.749166 0.692637 0
M  V30 END ATOM
M  V30 BEGIN BOND
M  V30 1 1 1 2
M  V30 2 1 2 3
M  V30 3 1 3 4
M  V30 4 1 4 5
M  V30 5 2 5 6
M  V30 6 1 6 7
M  V30 7 2 7 8
M  V30 8 1 8 9
M  V30 9 1 9 10
M  V30 10 2 10 11
M  V30 11 1 11 12
M  V30 12 2 12 13
M  V30 13 1 13 14
M  V30 14 2 14 15
M  V30 15 1 15 16
M  V30 16 1 16 17
M  V30 17 2 17 18
M  V30 18 1 18 19
M  V30 19 2 19 20
M  V30 20 1 20 21
M  V30 21 2 16 22
M  V30 22 1 22 23
M  V30 23 2 23 24
M  V30 24 2 9 25
M  V30 25 1 2 26
M  V30 26 1 26 27
M  V30 27 2 27 28
M  V30 28 1 28 29
M  V30 29 1 29 30
M  V30 30 2 30 31
M  V30 31 1 31 32
M  V30 32 2 32 33
M  V30 33 1 33 34
M  V30 34 2 34 35
M  V30 35 1 25 5
M  V30 36 1 35 27
M  V30 37 1 24 10
M  V30 38 1 35 30
M  V30 39 1 23 13
M  V30 40 1 21 17
M  V30 41 1 1 36
M  V30 42 1 1 37
M  V30 43 1 2 38 CFG=3
M  V30 44 1 3 39
M  V30 45 1 3 40
M  V30 46 1 6 41
M  V30 47 1 8 42
M  V30 48 1 11 43
M  V30 49 1 12 44
M  V30 50 1 14 45
M  V30 51 1 18 46
M  V30 52 1 19 47
M  V30 53 1 20 48
M  V30 54 1 22 49
M  V30 55 1 24 50
M  V30 56 1 25 51
M  V30 57 1 26 52
M  V30 58 1 26 53
M  V30 59 1 28 54
M  V30 60 1 29 55
M  V30 61 1 31 56
M  V30 62 1 32 57
M  V30 63 1 33 58
M  V30 64 1 34 59
M  V30 END BOND
M  V30 END CTAB
M  END
>  <Dataset>  (324) 
ChEMBL_Kinases

>  <Ligand_Instance>  (324) 
nan

>  <PDB_ID>  (324) 
nan

>  <Standardized_SMILES>  (324) 
N[C@H](COc1cncc(-c2ccc3cnc(-c4ccco4)cc3c2)c1)Cc1c[nH]c2ccccc12

>  <Name>  (324) 
nan

>  <Pocket>  (324) 
nan

>  <ATP_Site>  (324) 
nan

>  <Peripheral>  (324) 
nan

>  <Num_H_Atoms_ProtBoundConf>  (324) 
nan

>  <Num_Resolved_Atoms>  (324) 
nan

>  <Num_Not_Resolved_Atoms>  (324) 
nan

$$$$
CHEMBL210349
     RDKit          3D

  0  0  0  0  0  0  0  0  0  0999 V3000
M  V30 BEGIN CTAB
M  V30 COUNTS 55 59 0 0 0
M  V30 BEGIN ATOM
M  V30 1 C 7.405639 1.762936 4.153054 0
M  V30 2 C 6.911986 0.393535 3.815232 0
M  V30 3 N 7.485786 -0.766992 4.196631 0
M  V30 4 N 6.768334 -1.752852 3.710151 0
M  V30 5 C 5.708706 -1.306571 2.999082 0
M  V30 6 C 4.678386 -1.915582 2.303448 0
M  V30 7 C 3.769116 -1.076737 1.694587 0
M  V30 8 C 3.797612 0.301758 1.718853 0
M  V30 9 C 2.761284 1.069100 1.024627 0
M  V30 10 C 3.131729 2.305848 0.506006 0
M  V30 11 N 2.125153 2.955573 -0.119175 0
M  V30 12 C 0.879529 2.461022 -0.234134 0
M  V30 13 C 0.529707 1.230200 0.287467 0
M  V30 14 O -0.790234 0.827994 0.103894 0
M  V30 15 C -1.117370 -0.450373 0.655939 0
M  V30 16 C -2.594329 -0.771669 0.387223 0 CFG=1
M  V30 17 N -3.325608 0.292134 1.034644 0
M  V30 18 C -2.763277 -0.807101 -1.086892 0
M  V30 19 C -4.099841 -1.101575 -1.591191 0
M  V30 20 C -4.915369 -0.074380 -2.022561 0
M  V30 21 C -6.206587 -0.193753 -2.503713 0
M  V30 22 C -6.738406 -1.459595 -2.561425 0
M  V30 23 C -5.989716 -2.539389 -2.150220 0
M  V30 24 C -6.491736 -3.821702 -2.202017 0
M  V30 25 C -5.717321 -4.889606 -1.789885 0
M  V30 26 C -4.412206 -4.734423 -1.308695 0
M  V30 27 C -3.948570 -3.436662 -1.273097 0
M  V30 28 C -4.689742 -2.345613 -1.674406 0
M  V30 29 C 1.499174 0.517981 0.933556 0
M  V30 30 C 4.837675 0.875606 2.421159 0
M  V30 31 C 5.795380 0.087042 3.062829 0
M  V30 32 H 7.100159 2.513336 3.402586 0
M  V30 33 H 7.036404 2.124734 5.134248 0
M  V30 34 H 8.509628 1.682159 4.257899 0
M  V30 35 H 6.917875 -2.765795 3.806565 0
M  V30 36 H 4.610564 -2.991689 2.254098 0
M  V30 37 H 2.963458 -1.566339 1.150673 0
M  V30 38 H 4.138651 2.685628 0.609161 0
M  V30 39 H 0.160199 3.066248 -0.752917 0
M  V30 40 H -0.545553 -1.261757 0.200194 0
M  V30 41 H -0.927094 -0.471646 1.748624 0
M  V30 42 H -2.780124 -1.754414 0.822204 0
M  V30 43 H -3.927538 -0.044905 1.812993 0
M  V30 44 H -3.795582 0.950401 0.386267 0
M  V30 45 H -2.066461 -1.579823 -1.507787 0
M  V30 46 H -2.447568 0.189184 -1.475512 0
M  V30 47 H -4.529921 0.941116 -1.992406 0
M  V30 48 H -6.793156 0.641159 -2.824992 0
M  V30 49 H -7.735855 -1.662766 -2.920100 0
M  V30 50 H -7.492509 -3.978422 -2.566629 0
M  V30 51 H -6.102321 -5.916125 -1.825286 0
M  V30 52 H -3.818233 -5.578405 -0.990194 0
M  V30 53 H -2.938100 -3.329162 -0.909164 0
M  V30 54 H 1.238690 -0.430209 1.337844 0
M  V30 55 H 4.884583 1.960405 2.457908 0
M  V30 END ATOM
M  V30 BEGIN BOND
M  V30 1 1 1 2
M  V30 2 2 2 3
M  V30 3 1 3 4
M  V30 4 1 4 5
M  V30 5 2 5 6
M  V30 6 1 6 7
M  V30 7 2 7 8
M  V30 8 1 8 9
M  V30 9 2 9 10
M  V30 10 1 10 11
M  V30 11 2 11 12
M  V30 12 1 12 13
M  V30 13 1 13 14
M  V30 14 1 14 15
M  V30 15 1 15 16
M  V30 16 1 16 17
M  V30 17 1 16 18
M  V30 18 1 18 19
M  V30 19 2 19 20
M  V30 20 1 20 21
M  V30 21 2 21 22
M  V30 22 1 22 23
M  V30 23 2 23 24
M  V30 24 1 24 25
M  V30 25 2 25 26
M  V30 26 1 26 27
M  V30 27 2 27 28
M  V30 28 2 13 29
M  V30 29 1 8 30
M  V30 30 2 30 31
M  V30 31 1 31 2
M  V30 32 1 31 5
M  V30 33 1 29 9
M  V30 34 1 28 19
M  V30 35 1 28 23
M  V30 36 1 1 32
M  V30 37 1 1 33
M  V30 38 1 1 34
M  V30 39 1 4 35
M  V30 40 1 6 36
M  V30 41 1 7 37
M  V30 42 1 10 38
M  V30 43 1 12 39
M  V30 44 1 15 40
M  V30 45 1 15 41
M  V30 46 1 16 42 CFG=1
M  V30 47 1 17 43
M  V30 48 1 17 44
M  V30 49 1 18 45
M  V30 50 1 18 46
M  V30 51 1 20 47
M  V30 52 1 21 48
M  V30 53 1 22 49
M  V30 54 1 24 50
M  V30 55 1 25 51
M  V30 56 1 26 52
M  V30 57 1 27 53
M  V30 58 1 29 54
M  V30 59 1 30 55
M  V30 END BOND
M  V30 END CTAB
M  END
>  <Dataset>  (325) 
ChEMBL_Kinases

>  <Ligand_Instance>  (325) 
nan

>  <PDB_ID>  (325) 
nan

>  <Standardized_SMILES>  (325) 
Cc1n[nH]c2ccc(-c3cncc(OC[C@@H](N)Cc4cccc5ccccc45)c3)cc12

>  <Name>  (325) 
nan

>  <Pocket>  (325) 
nan

>  <ATP_Site>  (325) 
nan

>  <Peripheral>  (325) 
nan

>  <Num_H_Atoms_ProtBoundConf>  (325) 
nan

>  <Num_Resolved_Atoms>  (325) 
nan

>  <Num_Not_Resolved_Atoms>  (325) 
nan

$$$$
CHEMBL2103839
     RDKit          3D

  0  0  0  0  0  0  0  0  0  0999 V3000
M  V30 BEGIN CTAB
M  V30 COUNTS 153 156 0 0 0
M  V30 BEGIN ATOM
M  V30 1 C 1.459286 4.201303 0.174119 0
M  V30 2 O 0.889113 4.330848 1.432008 0
M  V30 3 C 0.292346 3.183762 1.872681 0 CFG=1
M  V30 4 C 0.756466 2.674001 3.199174 0
M  V30 5 C 2.195836 2.257802 3.249778 0 CFG=2
M  V30 6 C 3.152816 3.300075 3.725029 0
M  V30 7 C 4.387341 2.510104 4.204433 0
M  V30 8 C 4.889015 1.776440 3.010883 0 CFG=1
M  V30 9 C 6.174125 1.054500 3.204218 0
M  V30 10 C 3.831382 0.909529 2.315789 0 CFG=1
M  V30 11 O 3.563302 -0.132321 3.201744 0
M  V30 12 O 2.631311 1.541906 2.158441 0
M  V30 13 C 4.408714 0.384915 1.028532 0
M  V30 14 O 5.061125 1.358297 0.502631 0
M  V30 15 C 4.073800 -1.014244 0.776549 0
M  V30 16 O 3.381257 -1.937356 1.229971 0
M  V30 17 N 4.442590 -2.005111 -0.177598 0
M  V30 18 C 5.497380 -1.437311 -0.982049 0
M  V30 19 C 6.786978 -2.213136 -0.788146 0
M  V30 20 C 6.675234 -3.679391 -0.731009 0
M  V30 21 C 5.385763 -4.256789 -0.203695 0
M  V30 22 C 4.284198 -3.354503 -0.691235 0 CFG=1
M  V30 23 C 2.941105 -3.887639 -0.534975 0
M  V30 24 O 2.068786 -4.733676 -0.335253 0
M  V30 25 O 1.725888 -3.458475 -0.577271 0
M  V30 26 C 0.488688 -3.109444 -0.604454 0 CFG=2
M  V30 27 C 0.081610 -2.565819 -1.965420 0 CFG=2
M  V30 28 C 0.272386 -3.771773 -2.923350 0
M  V30 29 C 1.260380 -1.666114 -2.363121 0
M  V30 30 C 1.059209 -0.990810 -3.691800 0 CFG=2
M  V30 31 C 2.311865 -0.210794 -3.984323 0
M  V30 32 C 2.065866 0.893364 -4.990396 0
M  V30 33 C 1.247768 1.915042 -4.174708 0 CFG=1
M  V30 34 O 1.125275 3.015763 -5.018507 0
M  V30 35 P 1.999477 4.349387 -4.448844 0
M  V30 36 C 1.590454 5.786375 -5.483862 0
M  V30 37 C 3.755126 3.975745 -4.740105 0
M  V30 38 O 1.695625 4.706610 -3.035665 0
M  V30 39 C -0.077921 1.290240 -3.973719 0 CFG=2
M  V30 40 O -0.749988 2.105410 -3.017429 0
M  V30 41 C -1.790122 2.783302 -3.630466 0
M  V30 42 C -0.166521 -0.137864 -3.632341 0
M  V30 43 C -0.154279 -2.211999 0.432461 0
M  V30 44 C -0.158797 -2.795482 1.767133 0
M  V30 45 O 0.448859 -3.788924 2.140690 0
M  V30 46 C -0.605990 -2.804851 3.153005 0 CFG=2
M  V30 47 C 0.146851 -3.842148 3.987977 0
M  V30 48 C -2.090768 -3.066544 3.253600 0
M  V30 49 C -3.277839 -2.620772 3.610859 0
M  V30 50 C -3.200045 -1.247027 4.181259 0
M  V30 51 C -4.535498 -3.419177 3.465216 0 CFG=1
M  V30 52 O -5.048260 -3.459741 4.797132 0
M  V30 53 C -5.559174 -2.671163 2.636025 0 CFG=1
M  V30 54 O -5.676805 -1.357274 3.132465 0
M  V30 55 C -6.953697 -1.185019 3.677495 0
M  V30 56 C -5.211295 -2.588198 1.215920 0
M  V30 57 O -5.074669 -1.559157 1.860172 0
M  V30 58 C -5.191920 -3.474272 0.051219 0 CFG=2
M  V30 59 C -4.313603 -4.694601 0.413909 0
M  V30 60 C -4.645525 -2.943073 -1.211528 0
M  V30 61 C -5.230586 -1.657870 -1.756312 0 CFG=2
M  V30 62 C -4.557833 -1.536681 -3.163826 0
M  V30 63 C -4.829634 -0.486263 -0.981234 0
M  V30 64 C -5.012457 0.619190 -0.309390 0
M  V30 65 C -3.958215 1.384448 0.286108 0
M  V30 66 C -3.420927 2.350710 0.953408 0
M  V30 67 C -2.051957 2.676807 1.305846 0
M  V30 68 C -1.203935 3.456775 1.897887 0
M  V30 69 C -1.706901 4.621855 2.690146 0
M  V30 70 H 2.232255 3.415498 0.219340 0
M  V30 71 H 1.964157 5.129835 -0.154115 0
M  V30 72 H 0.694603 3.860444 -0.564456 0
M  V30 73 H 0.464022 2.403991 1.090493 0
M  V30 74 H 0.102432 1.821896 3.542665 0
M  V30 75 H 0.630073 3.512293 3.948565 0
M  V30 76 H 2.218375 1.481270 4.092535 0
M  V30 77 H 3.419470 4.079991 3.018613 0
M  V30 78 H 2.786475 3.805368 4.639962 0
M  V30 79 H 4.054391 1.882267 5.038884 0
M  V30 80 H 5.145237 3.264334 4.509704 0
M  V30 81 H 5.118911 2.586379 2.243065 0
M  V30 82 H 7.065966 1.664707 2.917433 0
M  V30 83 H 6.184262 0.155000 2.545469 0
M  V30 84 H 6.244711 0.698607 4.249786 0
M  V30 85 H 3.783792 0.134359 4.098394 0
M  V30 86 H 5.711482 -0.411837 -0.729849 0
M  V30 87 H 5.183747 -1.494410 -2.056529 0
M  V30 88 H 7.394750 -1.957352 -1.706911 0
M  V30 89 H 7.378976 -1.738591 0.047771 0
M  V30 90 H 6.953299 -4.170918 -1.706948 0
M  V30 91 H 7.475318 -4.052811 -0.030300 0
M  V30 92 H 5.229393 -5.226936 -0.717400 0
M  V30 93 H 5.377824 -4.456188 0.874210 0
M  V30 94 H 4.444925 -3.312973 -1.817649 0
M  V30 95 H -0.148018 -4.106727 -0.558673 0
M  V30 96 H -0.880900 -2.118791 -2.012755 0
M  V30 97 H -0.218880 -4.678285 -2.522071 0
M  V30 98 H -0.115660 -3.519053 -3.916441 0
M  V30 99 H 1.345999 -3.999129 -3.026536 0
M  V30 100 H 2.149011 -2.343193 -2.381356 0
M  V30 101 H 1.406627 -0.925321 -1.553486 0
M  V30 102 H 0.944246 -1.764773 -4.461254 0
M  V30 103 H 3.117752 -0.845662 -4.394790 0
M  V30 104 H 2.707774 0.269954 -3.072240 0
M  V30 105 H 3.024314 1.374033 -5.204737 0
M  V30 106 H 1.461802 0.595547 -5.851663 0
M  V30 107 H 1.811508 2.175271 -3.247059 0
M  V30 108 H 0.824864 6.437507 -5.030478 0
M  V30 109 H 1.343048 5.476064 -6.509586 0
M  V30 110 H 2.513322 6.426155 -5.543403 0
M  V30 111 H 4.089632 3.216439 -4.027056 0
M  V30 112 H 4.322727 4.919566 -4.676523 0
M  V30 113 H 3.854967 3.576573 -5.767211 0
M  V30 114 H -0.667781 1.502139 -4.918813 0
M  V30 115 H -2.550516 2.116145 -4.085082 0
M  V30 116 H -1.325368 3.337558 -4.504431 0
M  V30 117 H -2.220196 3.573307 -2.997525 0
M  V30 118 H -0.610587 -0.184133 -2.587860 0
M  V30 119 H -0.978678 -0.604426 -4.246661 0
M  V30 120 H 0.346197 -1.237867 0.374006 0
M  V30 121 H -1.204757 -2.047857 0.110873 0
M  V30 122 H -0.450457 -1.842801 3.669144 0
M  V30 123 H 1.216346 -3.613073 3.895695 0
M  V30 124 H -0.032312 -4.868488 3.687051 0
M  V30 125 H -0.153987 -3.686833 5.043934 0
M  V30 126 H -2.087540 -4.095416 2.834401 0
M  V30 127 H -4.083693 -1.022719 4.777946 0
M  V30 128 H -2.332836 -1.131976 4.866546 0
M  V30 129 H -3.066654 -0.512017 3.387918 0
M  V30 130 H -4.336690 -4.423577 3.148079 0
M  V30 131 H -4.600666 -4.244531 5.221028 0
M  V30 132 H -6.541484 -3.169290 2.839371 0
M  V30 133 H -7.049866 -1.947564 4.505343 0
M  V30 134 H -7.682205 -1.495890 2.894744 0
M  V30 135 H -7.116379 -0.164037 4.015512 0
M  V30 136 H -6.231050 -3.826176 -0.142184 0
M  V30 137 H -4.916839 -5.344687 1.049711 0
M  V30 138 H -3.477159 -4.284070 0.961916 0
M  V30 139 H -3.976540 -5.187546 -0.527090 0
M  V30 140 H -3.532182 -2.872060 -1.121281 0
M  V30 141 H -4.794072 -3.708759 -2.016388 0
M  V30 142 H -6.289845 -1.759201 -1.943373 0
M  V30 143 H -3.491598 -1.790199 -3.041901 0
M  V30 144 H -4.713046 -0.529131 -3.561327 0
M  V30 145 H -5.023100 -2.292889 -3.798638 0
M  V30 146 H -3.752183 -0.666673 -0.982013 0
M  V30 147 H -5.694503 1.343606 0.069505 0
M  V30 148 H -2.998286 0.876682 0.063262 0
M  V30 149 H -3.805200 3.216227 1.457573 0
M  V30 150 H -1.505485 1.868066 0.839107 0
M  V30 151 H -2.380818 5.268005 2.110208 0
M  V30 152 H -2.300888 4.198800 3.527732 0
M  V30 153 H -0.865654 5.241713 3.015149 0
M  V30 END ATOM
M  V30 BEGIN BOND
M  V30 1 1 1 2
M  V30 2 1 2 3
M  V30 3 1 3 4
M  V30 4 1 4 5
M  V30 5 1 5 6
M  V30 6 1 6 7
M  V30 7 1 7 8
M  V30 8 1 8 9
M  V30 9 1 8 10
M  V30 10 1 10 11 CFG=1
M  V30 11 1 10 12
M  V30 12 1 10 13
M  V30 13 2 13 14
M  V30 14 1 13 15
M  V30 15 2 15 16
M  V30 16 1 15 17
M  V30 17 1 17 18
M  V30 18 1 18 19
M  V30 19 1 19 20
M  V30 20 1 20 21
M  V30 21 1 21 22
M  V30 22 1 22 23
M  V30 23 2 23 24
M  V30 24 1 23 25
M  V30 25 1 25 26
M  V30 26 1 26 27
M  V30 27 1 27 28
M  V30 28 1 27 29
M  V30 29 1 29 30
M  V30 30 1 30 31
M  V30 31 1 31 32
M  V30 32 1 32 33
M  V30 33 1 33 34
M  V30 34 1 34 35
M  V30 35 1 35 36
M  V30 36 1 35 37
M  V30 37 2 35 38
M  V30 38 1 33 39
M  V30 39 1 39 40
M  V30 40 1 40 41
M  V30 41 1 39 42
M  V30 42 1 26 43
M  V30 43 1 43 44
M  V30 44 2 44 45
M  V30 45 1 44 46
M  V30 46 1 46 47
M  V30 47 1 46 48
M  V30 48 2 48 49
M  V30 49 1 49 50
M  V30 50 1 49 51
M  V30 51 1 51 52
M  V30 52 1 51 53
M  V30 53 1 53 54
M  V30 54 1 54 55
M  V30 55 1 53 56
M  V30 56 2 56 57
M  V30 57 1 56 58
M  V30 58 1 58 59
M  V30 59 1 58 60
M  V30 60 1 60 61
M  V30 61 1 61 62
M  V30 62 1 61 63
M  V30 63 2 63 64
M  V30 64 1 64 65
M  V30 65 2 65 66
M  V30 66 1 66 67
M  V30 67 2 67 68
M  V30 68 1 68 69
M  V30 69 1 68 3
M  V30 70 1 12 5
M  V30 71 1 22 17
M  V30 72 1 42 30
M  V30 73 1 1 70
M  V30 74 1 1 71
M  V30 75 1 1 72
M  V30 76 1 3 73 CFG=3
M  V30 77 1 4 74
M  V30 78 1 4 75
M  V30 79 1 5 76 CFG=1
M  V30 80 1 6 77
M  V30 81 1 6 78
M  V30 82 1 7 79
M  V30 83 1 7 80
M  V30 84 1 8 81 CFG=3
M  V30 85 1 9 82
M  V30 86 1 9 83
M  V30 87 1 9 84
M  V30 88 1 11 85
M  V30 89 1 18 86
M  V30 90 1 18 87
M  V30 91 1 19 88
M  V30 92 1 19 89
M  V30 93 1 20 90
M  V30 94 1 20 91
M  V30 95 1 21 92
M  V30 96 1 21 93
M  V30 97 1 22 94 CFG=3
M  V30 98 1 26 95 CFG=1
M  V30 99 1 27 96 CFG=1
M  V30 100 1 28 97
M  V30 101 1 28 98
M  V30 102 1 28 99
M  V30 103 1 29 100
M  V30 104 1 29 101
M  V30 105 1 30 102 CFG=3
M  V30 106 1 31 103
M  V30 107 1 31 104
M  V30 108 1 32 105
M  V30 109 1 32 106
M  V30 110 1 33 107 CFG=1
M  V30 111 1 36 108
M  V30 112 1 36 109
M  V30 113 1 36 110
M  V30 114 1 37 111
M  V30 115 1 37 112
M  V30 116 1 37 113
M  V30 117 1 39 114 CFG=3
M  V30 118 1 41 115
M  V30 119 1 41 116
M  V30 120 1 41 117
M  V30 121 1 42 118
M  V30 122 1 42 119
M  V30 123 1 43 120
M  V30 124 1 43 121
M  V30 125 1 46 122 CFG=1
M  V30 126 1 47 123
M  V30 127 1 47 124
M  V30 128 1 47 125
M  V30 129 1 48 126
M  V30 130 1 50 127
M  V30 131 1 50 128
M  V30 132 1 50 129
M  V30 133 1 51 130 CFG=3
M  V30 134 1 52 131
M  V30 135 1 53 132 CFG=3
M  V30 136 1 55 133
M  V30 137 1 55 134
M  V30 138 1 55 135
M  V30 139 1 58 136 CFG=3
M  V30 140 1 59 137
M  V30 141 1 59 138
M  V30 142 1 59 139
M  V30 143 1 60 140
M  V30 144 1 60 141
M  V30 145 1 61 142 CFG=3
M  V30 146 1 62 143
M  V30 147 1 62 144
M  V30 148 1 62 145
M  V30 149 1 63 146
M  V30 150 1 64 147
M  V30 151 1 65 148
M  V30 152 1 66 149
M  V30 153 1 67 150
M  V30 154 1 69 151
M  V30 155 1 69 152
M  V30 156 1 69 153
M  V30 END BOND
M  V30 END CTAB
M  END
>  <Dataset>  (326) 
ChEMBL_Kinases

>  <Ligand_Instance>  (326) 
nan

>  <PDB_ID>  (326) 
nan

>  <Standardized_SMILES>  (326) 
CO[C@H]1C[C@@H]2CC[C@@H](C)[C@@](O)(O2)C(=O)C(=O)N2CCCC[C@H]2C(=O)O[C@H]([C@H](C)C[C@@H]2CC[C@@H](OP(C)(C)=O)[C@H](OC)C2)CC(=O)[C@H](C)/C=C(\C)[C@@H](O)[C@@H](OC)C(=O)[C@H](C)C[C@H](C)/C=C/C=C/C=C/1C

>  <Name>  (326) 
RIDAFOROLIMUS

>  <Pocket>  (326) 
nan

>  <ATP_Site>  (326) 
nan

>  <Peripheral>  (326) 
nan

>  <Num_H_Atoms_ProtBoundConf>  (326) 
nan

>  <Num_Resolved_Atoms>  (326) 
nan

>  <Num_Not_Resolved_Atoms>  (326) 
nan

$$$$
CHEMBL2103842
     RDKit          3D

  0  0  0  0  0  0  0  0  0  0999 V3000
M  V30 BEGIN CTAB
M  V30 COUNTS 51 55 0 0 0
M  V30 BEGIN ATOM
M  V30 1 C -0.971921 -0.702115 3.429046 0
M  V30 2 C 0.360593 -1.226857 3.852281 0 CFG=2
M  V30 3 C 0.796096 -0.520337 5.115717 0
M  V30 4 O 2.211241 -0.473998 4.923017 0
M  V30 5 C 2.438690 -0.485177 3.563856 0
M  V30 6 N 3.632971 -0.094555 2.891090 0
M  V30 7 C 3.668839 0.632236 1.681371 0
M  V30 8 C 4.905325 0.924837 1.098348 0
M  V30 9 C 5.018999 1.628862 -0.079782 0
M  V30 10 C 3.907772 2.085829 -0.750477 0
M  V30 11 N 3.942387 2.774071 -1.903487 0
M  V30 12 C 2.810507 3.188018 -2.508797 0
M  V30 13 N 1.613059 2.903029 -1.940511 0
M  V30 14 C 1.528656 2.208085 -0.771922 0
M  V30 15 N 0.208032 1.990815 -0.300060 0
M  V30 16 C -0.752110 0.948202 -0.369625 0
M  V30 17 C -2.004924 1.234083 0.148753 0
M  V30 18 C -2.907561 0.194406 0.080787 0
M  V30 19 C -2.611201 -1.045484 -0.457355 0
M  V30 20 O -3.494871 -1.968586 -0.489469 0
M  V30 21 C -4.419244 -2.888777 -0.507077 0
M  V30 22 C -4.008876 -4.216519 -1.100749 0
M  V30 23 N -3.962277 -4.816654 -2.112939 0
M  V30 24 C -3.511209 -6.045498 -2.276543 0
M  V30 25 C -3.040379 -6.719416 -1.167633 0
M  V30 26 S -3.280443 -5.476368 0.157032 0
M  V30 27 C -1.335117 -1.222875 -0.945501 0
M  V30 28 Cl -0.971479 -2.814765 -1.631490 0
M  V30 29 C -0.350208 -0.249476 -0.928582 0
M  V30 30 C 2.708421 1.793688 -0.170291 0
M  V30 31 C 2.549253 1.083342 1.021343 0
M  V30 32 N 1.401460 -0.911124 2.905989 0
M  V30 33 H -0.834319 0.301746 2.951180 0
M  V30 34 H -1.632421 -0.604877 4.300189 0
M  V30 35 H -1.432429 -1.438947 2.733728 0
M  V30 36 H 0.271734 -2.326002 4.030491 0
M  V30 37 H 0.549922 -1.158001 6.001267 0
M  V30 38 H 0.362746 0.490368 5.171480 0
M  V30 39 H 4.553594 -0.373460 3.340851 0
M  V30 40 H 5.844689 0.602782 1.560440 0
M  V30 41 H 6.010431 1.841531 -0.509192 0
M  V30 42 H 2.789750 3.743239 -3.434106 0
M  V30 43 H 0.039868 2.908072 0.200538 0
M  V30 44 H -2.221168 2.206989 0.565807 0
M  V30 45 H -3.899335 0.375580 0.474332 0
M  V30 46 H -4.802975 -3.083342 0.551812 0
M  V30 47 H -5.400804 -2.626979 -1.035300 0
M  V30 48 H -3.579430 -6.372555 -3.330308 0
M  V30 49 H -2.657107 -7.816081 -1.411102 0
M  V30 50 H 0.638397 -0.400295 -1.312783 0
M  V30 51 H 1.566079 0.892602 1.418996 0
M  V30 END ATOM
M  V30 BEGIN BOND
M  V30 1 1 1 2
M  V30 2 1 2 3
M  V30 3 1 3 4
M  V30 4 1 4 5
M  V30 5 1 5 6
M  V30 6 1 6 7
M  V30 7 2 7 8
M  V30 8 1 8 9
M  V30 9 2 9 10
M  V30 10 1 10 11
M  V30 11 2 11 12
M  V30 12 1 12 13
M  V30 13 2 13 14
M  V30 14 1 14 15
M  V30 15 1 15 16
M  V30 16 2 16 17
M  V30 17 1 17 18
M  V30 18 2 18 19
M  V30 19 1 19 20
M  V30 20 1 20 21
M  V30 21 1 21 22
M  V30 22 2 22 23
M  V30 23 1 23 24
M  V30 24 2 24 25
M  V30 25 1 25 26
M  V30 26 1 19 27
M  V30 27 1 27 28
M  V30 28 2 27 29
M  V30 29 1 14 30
M  V30 30 2 30 31
M  V30 31 2 5 32
M  V30 32 1 32 2
M  V30 33 1 31 7
M  V30 34 1 30 10
M  V30 35 1 29 16
M  V30 36 1 26 22
M  V30 37 1 1 33
M  V30 38 1 1 34
M  V30 39 1 1 35
M  V30 40 1 2 36 CFG=1
M  V30 41 1 3 37
M  V30 42 1 3 38
M  V30 43 1 6 39
M  V30 44 1 8 40
M  V30 45 1 9 41
M  V30 46 1 12 42
M  V30 47 1 15 43
M  V30 48 1 17 44
M  V30 49 1 18 45
M  V30 50 1 21 46
M  V30 51 1 21 47
M  V30 52 1 24 48
M  V30 53 1 25 49
M  V30 54 1 29 50
M  V30 55 1 31 51
M  V30 END BOND
M  V30 END CTAB
M  END
>  <Dataset>  (327) 
ChEMBL_Kinases

>  <Ligand_Instance>  (327) 
nan

>  <PDB_ID>  (327) 
nan

>  <Standardized_SMILES>  (327) 
C[C@@H]1COC(Nc2ccc3ncnc(Nc4ccc(OCc5nccs5)c(Cl)c4)c3c2)=N1

>  <Name>  (327) 
VARLITINIB

>  <Pocket>  (327) 
nan

>  <ATP_Site>  (327) 
nan

>  <Peripheral>  (327) 
nan

>  <Num_H_Atoms_ProtBoundConf>  (327) 
nan

>  <Num_Resolved_Atoms>  (327) 
nan

>  <Num_Not_Resolved_Atoms>  (327) 
nan

$$$$
CHEMBL210403
     RDKit          3D

  0  0  0  0  0  0  0  0  0  0999 V3000
M  V30 BEGIN CTAB
M  V30 COUNTS 59 63 0 0 0
M  V30 BEGIN ATOM
M  V30 1 C 2.019403 -1.652499 -0.473210 0
M  V30 2 O 1.866484 -0.271952 -0.321739 0
M  V30 3 C 2.513372 0.516298 0.615038 0
M  V30 4 C 3.380390 -0.147332 1.457682 0
M  V30 5 C 4.080491 0.550398 2.430075 0
M  V30 6 C 3.880682 1.912122 2.522346 0
M  V30 7 C 4.582852 2.584365 3.497866 0
M  V30 8 C 4.428120 3.948016 3.651380 0
M  V30 9 C 3.560066 4.600413 2.806910 0
M  V30 10 C 2.887721 3.880160 1.853580 0
M  V30 11 C 3.000585 2.520821 1.652227 0
M  V30 12 C 2.278362 1.882293 0.668358 0
M  V30 13 C 1.342817 2.572860 -0.215719 0
M  V30 14 C -0.103968 2.511770 0.197841 0 CFG=2
M  V30 15 N -0.315508 3.114548 1.520320 0
M  V30 16 C -0.725733 1.158326 0.129628 0
M  V30 17 O -2.151816 1.234618 0.340324 0
M  V30 18 C -2.944505 0.093015 0.322977 0
M  V30 19 C -4.282129 0.416542 0.546687 0
M  V30 20 N -5.224328 -0.546455 0.570557 0
M  V30 21 C -4.944525 -1.845589 0.385560 0
M  V30 22 C -3.604806 -2.170326 0.161429 0
M  V30 23 C -3.186848 -3.568927 -0.052854 0
M  V30 24 C -3.870029 -4.603830 0.570883 0
M  V30 25 C -3.441029 -5.910854 0.342148 0
M  V30 26 C -2.372014 -6.229802 -0.472374 0
M  V30 27 N -1.768547 -7.367739 -0.852617 0
M  V30 28 N -0.777347 -7.090048 -1.655626 0
M  V30 29 C -0.698110 -5.749879 -1.829502 0
M  V30 30 C 0.249997 -4.952360 -2.642098 0
M  V30 31 C -1.706816 -5.202994 -1.081248 0
M  V30 32 C -2.117499 -3.902746 -0.866499 0
M  V30 33 C -2.611973 -1.220976 0.128836 0
M  V30 34 H 2.050382 -2.159108 0.521907 0
M  V30 35 H 1.167431 -2.044586 -1.072504 0
M  V30 36 H 2.941473 -1.965871 -1.003946 0
M  V30 37 H 3.580931 -1.204215 1.437491 0
M  V30 38 H 4.762342 0.059672 3.098887 0
M  V30 39 H 5.262786 2.064827 4.158667 0
M  V30 40 H 4.970748 4.481673 4.409168 0
M  V30 41 H 3.456033 5.663243 2.945288 0
M  V30 42 H 2.230574 4.487181 1.248760 0
M  V30 43 H 1.578209 3.643959 -0.388264 0
M  V30 44 H 1.357573 2.136043 -1.258519 0
M  V30 45 H -0.738992 3.156232 -0.491548 0
M  V30 46 H -1.320083 3.424558 1.617448 0
M  V30 47 H -0.113949 2.443896 2.298356 0
M  V30 48 H -0.597222 0.763706 -0.894258 0
M  V30 49 H -0.384157 0.478859 0.938344 0
M  V30 50 H -4.700447 1.404722 0.715545 0
M  V30 51 H -5.667450 -2.648844 0.396558 0
M  V30 52 H -4.702304 -4.410658 1.210375 0
M  V30 53 H -3.935679 -6.754086 0.801135 0
M  V30 54 H -2.064964 -8.311252 -0.540389 0
M  V30 55 H 0.797174 -4.190563 -2.077632 0
M  V30 56 H -0.293652 -4.538843 -3.527115 0
M  V30 57 H 1.009124 -5.642027 -3.088461 0
M  V30 58 H -1.631672 -3.045673 -1.320547 0
M  V30 59 H -1.569149 -1.370036 -0.034367 0
M  V30 END ATOM
M  V30 BEGIN BOND
M  V30 1 1 1 2
M  V30 2 1 2 3
M  V30 3 2 3 4
M  V30 4 1 4 5
M  V30 5 2 5 6
M  V30 6 1 6 7
M  V30 7 2 7 8
M  V30 8 1 8 9
M  V30 9 2 9 10
M  V30 10 1 10 11
M  V30 11 2 11 12
M  V30 12 1 12 13
M  V30 13 1 13 14
M  V30 14 1 14 15
M  V30 15 1 14 16
M  V30 16 1 16 17
M  V30 17 1 17 18
M  V30 18 2 18 19
M  V30 19 1 19 20
M  V30 20 2 20 21
M  V30 21 1 21 22
M  V30 22 1 22 23
M  V30 23 2 23 24
M  V30 24 1 24 25
M  V30 25 2 25 26
M  V30 26 1 26 27
M  V30 27 1 27 28
M  V30 28 2 28 29
M  V30 29 1 29 30
M  V30 30 1 29 31
M  V30 31 2 31 32
M  V30 32 2 22 33
M  V30 33 1 12 3
M  V30 34 1 33 18
M  V30 35 1 11 6
M  V30 36 1 32 23
M  V30 37 1 31 26
M  V30 38 1 1 34
M  V30 39 1 1 35
M  V30 40 1 1 36
M  V30 41 1 4 37
M  V30 42 1 5 38
M  V30 43 1 7 39
M  V30 44 1 8 40
M  V30 45 1 9 41
M  V30 46 1 10 42
M  V30 47 1 13 43
M  V30 48 1 13 44
M  V30 49 1 14 45 CFG=3
M  V30 50 1 15 46
M  V30 51 1 15 47
M  V30 52 1 16 48
M  V30 53 1 16 49
M  V30 54 1 19 50
M  V30 55 1 21 51
M  V30 56 1 24 52
M  V30 57 1 25 53
M  V30 58 1 27 54
M  V30 59 1 30 55
M  V30 60 1 30 56
M  V30 61 1 30 57
M  V30 62 1 32 58
M  V30 63 1 33 59
M  V30 END BOND
M  V30 END CTAB
M  END
>  <Dataset>  (328) 
ChEMBL_Kinases

>  <Ligand_Instance>  (328) 
nan

>  <PDB_ID>  (328) 
nan

>  <Standardized_SMILES>  (328) 
COc1ccc2ccccc2c1C[C@H](N)COc1cncc(-c2ccc3[nH]nc(C)c3c2)c1

>  <Name>  (328) 
nan

>  <Pocket>  (328) 
nan

>  <ATP_Site>  (328) 
nan

>  <Peripheral>  (328) 
nan

>  <Num_H_Atoms_ProtBoundConf>  (328) 
nan

>  <Num_Resolved_Atoms>  (328) 
nan

>  <Num_Not_Resolved_Atoms>  (328) 
nan

$$$$
CHEMBL210666
     RDKit          3D

  0  0  0  0  0  0  0  0  0  0999 V3000
M  V30 BEGIN CTAB
M  V30 COUNTS 63 64 0 0 0
M  V30 BEGIN ATOM
M  V30 1 C 1.773437 -1.900431 5.200058 0
M  V30 2 C 2.666378 -2.294419 4.057099 0
M  V30 3 C 4.081882 -1.795817 4.395434 0
M  V30 4 C 2.335570 -1.687310 2.738384 0
M  V30 5 C 2.419290 -0.177029 2.870366 0
M  V30 6 C 2.109977 0.506618 1.566164 0
M  V30 7 O 2.893755 -0.013175 0.743768 0
M  V30 8 O 1.160655 1.480395 1.390426 0
M  V30 9 C 0.921642 2.078063 0.151024 0
M  V30 10 C 0.463170 1.135273 -0.902205 0
M  V30 11 C 0.111551 1.894582 -2.187781 0
M  V30 12 O -0.776808 2.936873 -1.943582 0
M  V30 13 C -0.777903 0.407835 -0.410977 0
M  V30 14 C -0.671682 -0.878393 -1.156458 0
M  V30 15 C -1.571967 -1.849799 -1.121915 0
M  V30 16 C -2.840170 -1.839095 -0.344095 0
M  V30 17 C -3.998802 -1.978383 -1.339132 0
M  V30 18 C -3.940357 -0.841413 -2.281592 0
M  V30 19 C -4.588438 0.364187 -2.097310 0
M  V30 20 C -4.486873 1.380697 -3.002648 0
M  V30 21 C -3.710610 1.147119 -4.101852 0
M  V30 22 C -3.025738 -0.028632 -4.365784 0
M  V30 23 C -3.162731 -1.030418 -3.416172 0
M  V30 24 C 0.591497 -0.858913 -1.920557 0
M  V30 25 O 0.728601 -1.626850 -2.910090 0
M  V30 26 O 1.340665 0.111830 -1.243910 0
M  V30 27 C 1.061057 -2.126639 2.099535 0
M  V30 28 C 0.930265 -3.566872 1.800885 0
M  V30 29 C -0.181770 -1.651571 2.826409 0
M  V30 30 H 1.117311 -1.040826 4.994925 0
M  V30 31 H 1.168320 -2.747441 5.592943 0
M  V30 32 H 2.378861 -1.577561 6.100721 0
M  V30 33 H 2.796124 -3.410178 3.997936 0
M  V30 34 H 4.631706 -1.511882 3.480822 0
M  V30 35 H 4.060760 -0.920796 5.062472 0
M  V30 36 H 4.677232 -2.570746 4.891532 0
M  V30 37 H 3.185673 -1.951516 2.054183 0
M  V30 38 H 1.758828 0.267280 3.601091 0
M  V30 39 H 3.463382 0.134412 3.175851 0
M  V30 40 H 0.226653 2.947471 0.230796 0
M  V30 41 H 1.878056 2.548258 -0.247229 0
M  V30 42 H -0.275378 1.167516 -2.923769 0
M  V30 43 H 1.069645 2.324047 -2.594357 0
M  V30 44 H -0.343832 3.829763 -1.968518 0
M  V30 45 H -1.701432 0.956667 -0.670256 0
M  V30 46 H -0.656699 0.210220 0.666587 0
M  V30 47 H -1.380127 -2.732515 -1.702271 0
M  V30 48 H -2.960328 -0.874111 0.173914 0
M  V30 49 H -2.885826 -2.659894 0.402629 0
M  V30 50 H -4.929704 -1.920949 -0.724171 0
M  V30 51 H -3.892680 -2.924664 -1.879819 0
M  V30 52 H -5.184939 0.433812 -1.176740 0
M  V30 53 H -4.997010 2.319537 -2.848346 0
M  V30 54 H -3.563003 1.900705 -4.883868 0
M  V30 55 H -2.417681 -0.209892 -5.230124 0
M  V30 56 H -2.624315 -1.962709 -3.620513 0
M  V30 57 H 1.000882 -1.594262 1.116627 0
M  V30 58 H -0.113851 -3.948369 2.013858 0
M  V30 59 H 1.605404 -4.256629 2.316668 0
M  V30 60 H 1.068021 -3.809784 0.704664 0
M  V30 61 H -0.461949 -2.281758 3.684931 0
M  V30 62 H -1.032758 -1.799393 2.095166 0
M  V30 63 H -0.176354 -0.564694 3.038465 0
M  V30 END ATOM
M  V30 BEGIN BOND
M  V30 1 1 1 2
M  V30 2 1 2 3
M  V30 3 1 2 4
M  V30 4 1 4 5
M  V30 5 1 5 6
M  V30 6 2 6 7
M  V30 7 1 6 8
M  V30 8 1 8 9
M  V30 9 1 9 10
M  V30 10 1 10 11
M  V30 11 1 11 12
M  V30 12 1 10 13
M  V30 13 1 13 14
M  V30 14 2 14 15
M  V30 15 1 15 16
M  V30 16 1 16 17
M  V30 17 1 17 18
M  V30 18 2 18 19
M  V30 19 1 19 20
M  V30 20 2 20 21
M  V30 21 1 21 22
M  V30 22 2 22 23
M  V30 23 1 14 24
M  V30 24 2 24 25
M  V30 25 1 24 26
M  V30 26 1 4 27
M  V30 27 1 27 28
M  V30 28 1 27 29
M  V30 29 1 26 10
M  V30 30 1 23 18
M  V30 31 1 1 30
M  V30 32 1 1 31
M  V30 33 1 1 32
M  V30 34 1 2 33
M  V30 35 1 3 34
M  V30 36 1 3 35
M  V30 37 1 3 36
M  V30 38 1 4 37
M  V30 39 1 5 38
M  V30 40 1 5 39
M  V30 41 1 9 40
M  V30 42 1 9 41
M  V30 43 1 11 42
M  V30 44 1 11 43
M  V30 45 1 12 44
M  V30 46 1 13 45
M  V30 47 1 13 46
M  V30 48 1 15 47
M  V30 49 1 16 48
M  V30 50 1 16 49
M  V30 51 1 17 50
M  V30 52 1 17 51
M  V30 53 1 19 52
M  V30 54 1 20 53
M  V30 55 1 21 54
M  V30 56 1 22 55
M  V30 57 1 23 56
M  V30 58 1 27 57
M  V30 59 1 28 58
M  V30 60 1 28 59
M  V30 61 1 28 60
M  V30 62 1 29 61
M  V30 63 1 29 62
M  V30 64 1 29 63
M  V30 END BOND
M  V30 END CTAB
M  END
>  <Dataset>  (329) 
ChEMBL_Kinases

>  <Ligand_Instance>  (329) 
nan

>  <PDB_ID>  (329) 
nan

>  <Standardized_SMILES>  (329) 
CC(C)C(CC(=O)OCC1(CO)C/C(=C\CCc2ccccc2)C(=O)O1)C(C)C

>  <Name>  (329) 
nan

>  <Pocket>  (329) 
nan

>  <ATP_Site>  (329) 
nan

>  <Peripheral>  (329) 
nan

>  <Num_H_Atoms_ProtBoundConf>  (329) 
nan

>  <Num_Resolved_Atoms>  (329) 
nan

>  <Num_Not_Resolved_Atoms>  (329) 
nan

$$$$
CHEMBL210460
     RDKit          3D

  0  0  0  0  0  0  0  0  0  0999 V3000
M  V30 BEGIN CTAB
M  V30 COUNTS 58 59 0 0 0
M  V30 BEGIN ATOM
M  V30 1 C -1.526130 -3.616607 2.545141 0
M  V30 2 C -0.135308 -3.001136 2.520294 0
M  V30 3 C -0.357121 -1.588885 3.067314 0
M  V30 4 C 0.522743 -3.039617 1.197759 0
M  V30 5 C 1.926515 -2.474944 1.165270 0
M  V30 6 C 2.004577 -1.070262 1.547941 0
M  V30 7 C 2.345034 -0.080453 0.687129 0
M  V30 8 C 2.481921 1.395919 0.871536 0
M  V30 9 C 2.400211 1.959628 -0.500903 0
M  V30 10 C 3.581828 2.848446 -0.845088 0
M  V30 11 O 3.380911 3.295820 -2.166814 0
M  V30 12 C 1.095033 2.700134 -0.669609 0
M  V30 13 O 0.015432 1.814464 -0.444205 0
M  V30 14 C -1.310941 2.260284 -0.540997 0
M  V30 15 O -1.500382 3.465724 -0.832906 0
M  V30 16 C -2.455815 1.399583 -0.321203 0
M  V30 17 C -2.334539 0.066124 0.002296 0
M  V30 18 C -3.508323 -0.639021 0.184363 0
M  V30 19 C -4.749566 -0.077361 0.058676 0
M  V30 20 C -4.880374 1.259932 -0.265672 0
M  V30 21 C -3.701029 1.974150 -0.449996 0
M  V30 22 O -3.875868 3.311521 -0.773974 0
M  V30 23 O 2.431199 0.905109 -1.441353 0
M  V30 24 C 2.678997 -0.281459 -0.725328 0
M  V30 25 O 3.118267 -1.310825 -1.281611 0
M  V30 26 C 0.410244 -4.271415 0.381547 0
M  V30 27 C -0.928662 -4.709546 -0.083583 0
M  V30 28 C 1.379172 -4.294284 -0.789707 0
M  V30 29 H -2.076897 -3.179411 3.461358 0
M  V30 30 H -2.136432 -3.283178 1.712666 0
M  V30 31 H -1.492871 -4.681535 2.784960 0
M  V30 32 H 0.443816 -3.593432 3.281485 0
M  V30 33 H -1.397428 -1.528683 3.541012 0
M  V30 34 H -0.391238 -0.852741 2.271758 0
M  V30 35 H 0.310115 -1.443838 3.909582 0
M  V30 36 H -0.079213 -2.256534 0.574777 0
M  V30 37 H 2.473775 -2.754661 0.269105 0
M  V30 38 H 2.460762 -3.056125 2.005045 0
M  V30 39 H 1.863300 -0.583395 2.499655 0
M  V30 40 H 1.707802 1.808818 1.545875 0
M  V30 41 H 3.474693 1.669194 1.290162 0
M  V30 42 H 4.486646 2.218908 -0.887528 0
M  V30 43 H 3.670060 3.728730 -0.201854 0
M  V30 44 H 2.853700 2.597136 -2.651829 0
M  V30 45 H 1.084753 3.525373 0.071152 0
M  V30 46 H 0.977234 3.073157 -1.707989 0
M  V30 47 H -1.330680 -0.273413 0.076027 0
M  V30 48 H -3.389546 -1.682688 0.437315 0
M  V30 49 H -5.643284 -0.669892 0.210840 0
M  V30 50 H -5.857225 1.712550 -0.367168 0
M  V30 51 H -4.357387 3.951110 -0.183327 0
M  V30 52 H 0.791431 -5.117108 1.050201 0
M  V30 53 H -1.548323 -5.286053 0.606444 0
M  V30 54 H -0.832602 -5.397542 -0.987371 0
M  V30 55 H -1.509655 -3.810246 -0.424821 0
M  V30 56 H 1.314344 -3.365406 -1.389852 0
M  V30 57 H 0.985069 -5.090011 -1.491310 0
M  V30 58 H 2.381864 -4.617959 -0.515421 0
M  V30 END ATOM
M  V30 BEGIN BOND
M  V30 1 1 1 2
M  V30 2 1 2 3
M  V30 3 1 2 4
M  V30 4 1 4 5
M  V30 5 1 5 6
M  V30 6 2 6 7
M  V30 7 1 7 8
M  V30 8 1 8 9
M  V30 9 1 9 10
M  V30 10 1 10 11
M  V30 11 1 9 12
M  V30 12 1 12 13
M  V30 13 1 13 14
M  V30 14 2 14 15
M  V30 15 1 14 16
M  V30 16 2 16 17
M  V30 17 1 17 18
M  V30 18 2 18 19
M  V30 19 1 19 20
M  V30 20 2 20 21
M  V30 21 1 21 22
M  V30 22 1 9 23
M  V30 23 1 23 24
M  V30 24 2 24 25
M  V30 25 1 4 26
M  V30 26 1 26 27
M  V30 27 1 26 28
M  V30 28 1 24 7
M  V30 29 1 21 16
M  V30 30 1 1 29
M  V30 31 1 1 30
M  V30 32 1 1 31
M  V30 33 1 2 32
M  V30 34 1 3 33
M  V30 35 1 3 34
M  V30 36 1 3 35
M  V30 37 1 4 36
M  V30 38 1 5 37
M  V30 39 1 5 38
M  V30 40 1 6 39
M  V30 41 1 8 40
M  V30 42 1 8 41
M  V30 43 1 10 42
M  V30 44 1 10 43
M  V30 45 1 11 44
M  V30 46 1 12 45
M  V30 47 1 12 46
M  V30 48 1 17 47
M  V30 49 1 18 48
M  V30 50 1 19 49
M  V30 51 1 20 50
M  V30 52 1 22 51
M  V30 53 1 26 52
M  V30 54 1 27 53
M  V30 55 1 27 54
M  V30 56 1 27 55
M  V30 57 1 28 56
M  V30 58 1 28 57
M  V30 59 1 28 58
M  V30 END BOND
M  V30 END CTAB
M  END
>  <Dataset>  (330) 
ChEMBL_Kinases

>  <Ligand_Instance>  (330) 
nan

>  <PDB_ID>  (330) 
nan

>  <Standardized_SMILES>  (330) 
CC(C)C(C/C=C1/CC(CO)(COC(=O)c2ccccc2O)OC1=O)C(C)C

>  <Name>  (330) 
nan

>  <Pocket>  (330) 
nan

>  <ATP_Site>  (330) 
nan

>  <Peripheral>  (330) 
nan

>  <Num_H_Atoms_ProtBoundConf>  (330) 
nan

>  <Num_Resolved_Atoms>  (330) 
nan

>  <Num_Not_Resolved_Atoms>  (330) 
nan

$$$$
CHEMBL210495
     RDKit          3D

  0  0  0  0  0  0  0  0  0  0999 V3000
M  V30 BEGIN CTAB
M  V30 COUNTS 57 58 0 0 0
M  V30 BEGIN ATOM
M  V30 1 C -0.564468 -3.923232 3.520633 0
M  V30 2 C -1.161949 -3.007108 2.490380 0
M  V30 3 C -1.447673 -1.681855 3.153422 0
M  V30 4 C -0.439485 -2.926775 1.202112 0
M  V30 5 C 0.969531 -2.472808 1.192475 0
M  V30 6 C 1.238328 -1.132063 1.706216 0
M  V30 7 C 1.733026 -0.076441 1.078765 0
M  V30 8 C 2.035494 1.325850 1.541537 0
M  V30 9 C 2.478128 1.993288 0.296164 0
M  V30 10 C 3.837001 2.730522 0.553382 0
M  V30 11 O 4.672343 1.749927 1.071934 0
M  V30 12 C 1.588790 2.994681 -0.336257 0
M  V30 13 O 0.450589 2.513417 -0.932358 0
M  V30 14 C -0.650395 1.896108 -0.488101 0
M  V30 15 O -0.964183 1.577963 0.652940 0
M  V30 16 C -1.660005 1.525164 -1.472688 0
M  V30 17 C -2.833735 0.888538 -1.152317 0
M  V30 18 C -3.807745 0.525732 -2.066970 0
M  V30 19 C -3.607572 0.813206 -3.397770 0
M  V30 20 C -2.450510 1.451509 -3.790038 0
M  V30 21 C -1.535190 1.777612 -2.824613 0
M  V30 22 O 2.883350 0.975350 -0.638979 0
M  V30 23 C 2.097834 -0.141013 -0.353877 0
M  V30 24 O 1.777362 -1.013472 -1.168841 0
M  V30 25 C -0.664136 -4.233966 0.496235 0
M  V30 26 C -2.143926 -4.450774 0.261736 0
M  V30 27 C 0.051856 -4.395346 -0.786256 0
M  V30 28 H -0.588258 -4.995365 3.236244 0
M  V30 29 H 0.374888 -3.570133 3.950684 0
M  V30 30 H -1.292817 -3.884474 4.380858 0
M  V30 31 H -2.196072 -3.464295 2.338203 0
M  V30 32 H -2.509768 -1.588201 3.510169 0
M  V30 33 H -0.848230 -1.497797 4.071485 0
M  V30 34 H -1.327361 -0.816216 2.464149 0
M  V30 35 H -1.003198 -2.169331 0.576208 0
M  V30 36 H 1.476371 -2.759987 0.261661 0
M  V30 37 H 1.509217 -3.159924 1.935933 0
M  V30 38 H 1.031074 -0.908730 2.745168 0
M  V30 39 H 2.913422 1.265022 2.277090 0
M  V30 40 H 1.226149 1.787325 2.088700 0
M  V30 41 H 3.698516 3.584263 1.215849 0
M  V30 42 H 4.196923 2.975115 -0.465111 0
M  V30 43 H 4.502281 0.874233 0.667937 0
M  V30 44 H 1.244936 3.772475 0.422019 0
M  V30 45 H 2.146505 3.619519 -1.073926 0
M  V30 46 H -3.037907 0.638844 -0.105404 0
M  V30 47 H -4.706076 0.025479 -1.729010 0
M  V30 48 H -4.378839 0.522198 -4.095590 0
M  V30 49 H -2.291029 1.675725 -4.815894 0
M  V30 50 H -0.631116 2.284505 -3.189243 0
M  V30 51 H -0.317099 -5.033114 1.189798 0
M  V30 52 H -2.287920 -5.003596 -0.692393 0
M  V30 53 H -2.638456 -5.008646 1.081192 0
M  V30 54 H -2.619401 -3.455714 0.086612 0
M  V30 55 H 1.082712 -4.787002 -0.701025 0
M  V30 56 H -0.493259 -5.209918 -1.338928 0
M  V30 57 H -0.056834 -3.510027 -1.411208 0
M  V30 END ATOM
M  V30 BEGIN BOND
M  V30 1 1 1 2
M  V30 2 1 2 3
M  V30 3 1 2 4
M  V30 4 1 4 5
M  V30 5 1 5 6
M  V30 6 2 6 7
M  V30 7 1 7 8
M  V30 8 1 8 9
M  V30 9 1 9 10
M  V30 10 1 10 11
M  V30 11 1 9 12
M  V30 12 1 12 13
M  V30 13 1 13 14
M  V30 14 2 14 15
M  V30 15 1 14 16
M  V30 16 2 16 17
M  V30 17 1 17 18
M  V30 18 2 18 19
M  V30 19 1 19 20
M  V30 20 2 20 21
M  V30 21 1 9 22
M  V30 22 1 22 23
M  V30 23 2 23 24
M  V30 24 1 4 25
M  V30 25 1 25 26
M  V30 26 1 25 27
M  V30 27 1 23 7
M  V30 28 1 21 16
M  V30 29 1 1 28
M  V30 30 1 1 29
M  V30 31 1 1 30
M  V30 32 1 2 31
M  V30 33 1 3 32
M  V30 34 1 3 33
M  V30 35 1 3 34
M  V30 36 1 4 35
M  V30 37 1 5 36
M  V30 38 1 5 37
M  V30 39 1 6 38
M  V30 40 1 8 39
M  V30 41 1 8 40
M  V30 42 1 10 41
M  V30 43 1 10 42
M  V30 44 1 11 43
M  V30 45 1 12 44
M  V30 46 1 12 45
M  V30 47 1 17 46
M  V30 48 1 18 47
M  V30 49 1 19 48
M  V30 50 1 20 49
M  V30 51 1 21 50
M  V30 52 1 25 51
M  V30 53 1 26 52
M  V30 54 1 26 53
M  V30 55 1 26 54
M  V30 56 1 27 55
M  V30 57 1 27 56
M  V30 58 1 27 57
M  V30 END BOND
M  V30 END CTAB
M  END
>  <Dataset>  (331) 
ChEMBL_Kinases

>  <Ligand_Instance>  (331) 
nan

>  <PDB_ID>  (331) 
nan

>  <Standardized_SMILES>  (331) 
CC(C)C(C/C=C1/CC(CO)(COC(=O)c2ccccc2)OC1=O)C(C)C

>  <Name>  (331) 
nan

>  <Pocket>  (331) 
nan

>  <ATP_Site>  (331) 
nan

>  <Peripheral>  (331) 
nan

>  <Num_H_Atoms_ProtBoundConf>  (331) 
nan

>  <Num_Resolved_Atoms>  (331) 
nan

>  <Num_Not_Resolved_Atoms>  (331) 
nan

$$$$
CHEMBL210516
     RDKit          3D

  0  0  0  0  0  0  0  0  0  0999 V3000
M  V30 BEGIN CTAB
M  V30 COUNTS 51 53 0 0 0
M  V30 BEGIN ATOM
M  V30 1 C -0.567490 -4.359111 2.363221 0
M  V30 2 O -1.464378 -3.483960 1.666373 0
M  V30 3 C -1.202979 -2.124506 1.833356 0
M  V30 4 C -0.156219 -1.618295 2.609298 0
M  V30 5 C 0.077663 -0.271082 2.755075 0
M  V30 6 N 1.214712 0.030336 3.599055 0
M  V30 7 C 2.514165 0.146075 2.973364 0
M  V30 8 O 2.248487 -0.068993 1.766642 0
M  V30 9 C 3.530474 0.450637 3.978276 0
M  V30 10 C 4.892337 0.573313 3.366134 0
M  V30 11 C 5.040475 1.618165 2.354315 0
M  V30 12 C 5.386593 2.914301 2.762846 0
M  V30 13 C 5.574528 4.012813 1.949486 0
M  V30 14 C 5.398517 3.795052 0.585319 0
M  V30 15 C 5.057664 2.537690 0.131657 0
M  V30 16 C 4.887954 1.496907 0.992248 0
M  V30 17 C -0.739535 0.646301 2.120299 0
M  V30 18 Cl -0.315960 2.320872 2.402063 0
M  V30 19 C -1.780282 0.175145 1.348261 0
M  V30 20 C -2.008547 -1.176606 1.206666 0
M  V30 21 N -3.101104 -1.587077 0.397348 0
M  V30 22 C -3.276695 -1.892935 -0.970951 0
M  V30 23 O -2.354020 -1.843889 -1.824133 0
M  V30 24 N -4.616581 -2.262833 -1.273525 0
M  V30 25 C -4.961226 -2.602216 -2.612072 0
M  V30 26 C -5.379215 -1.546581 -3.395315 0
M  V30 27 N -5.728904 -1.790567 -4.691948 0
M  V30 28 C -5.656749 -3.053690 -5.171613 0
M  V30 29 C -6.039804 -3.235051 -6.543280 0
M  V30 30 N -6.341083 -3.373278 -7.667975 0
M  V30 31 C -5.236581 -4.138724 -4.397756 0
M  V30 32 N -4.896620 -3.856983 -3.112005 0
M  V30 33 H -0.720844 -4.181479 3.467394 0
M  V30 34 H 0.492034 -4.168139 2.109671 0
M  V30 35 H -0.764171 -5.422168 2.140195 0
M  V30 36 H 0.448483 -2.379962 3.081289 0
M  V30 37 H 0.845123 0.114932 4.595500 0
M  V30 38 H 3.344758 1.407899 4.516312 0
M  V30 39 H 3.573122 -0.335090 4.783787 0
M  V30 40 H 5.583421 0.837196 4.221281 0
M  V30 41 H 5.275144 -0.397877 2.981302 0
M  V30 42 H 5.521392 3.075201 3.830685 0
M  V30 43 H 5.837258 4.953900 2.375055 0
M  V30 44 H 5.530567 4.609263 -0.094161 0
M  V30 45 H 4.930268 2.409373 -0.933396 0
M  V30 46 H 4.631280 0.542929 0.608830 0
M  V30 47 H -2.378108 0.946093 0.881754 0
M  V30 48 H -3.834353 -1.614221 1.134772 0
M  V30 49 H -5.413164 -2.313931 -0.581082 0
M  V30 50 H -5.465472 -0.512891 -3.092697 0
M  V30 51 H -5.188636 -5.128966 -4.802563 0
M  V30 END ATOM
M  V30 BEGIN BOND
M  V30 1 1 1 2
M  V30 2 1 2 3
M  V30 3 2 3 4
M  V30 4 1 4 5
M  V30 5 1 5 6
M  V30 6 1 6 7
M  V30 7 2 7 8
M  V30 8 1 7 9
M  V30 9 1 9 10
M  V30 10 1 10 11
M  V30 11 2 11 12
M  V30 12 1 12 13
M  V30 13 2 13 14
M  V30 14 1 14 15
M  V30 15 2 15 16
M  V30 16 2 5 17
M  V30 17 1 17 18
M  V30 18 1 17 19
M  V30 19 2 19 20
M  V30 20 1 20 21
M  V30 21 1 21 22
M  V30 22 2 22 23
M  V30 23 1 22 24
M  V30 24 1 24 25
M  V30 25 2 25 26
M  V30 26 1 26 27
M  V30 27 2 27 28
M  V30 28 1 28 29
M  V30 29 3 29 30
M  V30 30 1 28 31
M  V30 31 2 31 32
M  V30 32 1 20 3
M  V30 33 1 32 25
M  V30 34 1 16 11
M  V30 35 1 1 33
M  V30 36 1 1 34
M  V30 37 1 1 35
M  V30 38 1 4 36
M  V30 39 1 6 37
M  V30 40 1 9 38
M  V30 41 1 9 39
M  V30 42 1 10 40
M  V30 43 1 10 41
M  V30 44 1 12 42
M  V30 45 1 13 43
M  V30 46 1 14 44
M  V30 47 1 15 45
M  V30 48 1 16 46
M  V30 49 1 19 47
M  V30 50 1 21 48
M  V30 51 1 24 49
M  V30 52 1 26 50
M  V30 53 1 31 51
M  V30 END BOND
M  V30 END CTAB
M  END
>  <Dataset>  (332) 
ChEMBL_Kinases

>  <Ligand_Instance>  (332) 
nan

>  <PDB_ID>  (332) 
nan

>  <Standardized_SMILES>  (332) 
COc1cc(NC(=O)CCc2ccccc2)c(Cl)cc1NC(=O)Nc1cnc(C#N)cn1

>  <Name>  (332) 
nan

>  <Pocket>  (332) 
nan

>  <ATP_Site>  (332) 
nan

>  <Peripheral>  (332) 
nan

>  <Num_H_Atoms_ProtBoundConf>  (332) 
nan

>  <Num_Resolved_Atoms>  (332) 
nan

>  <Num_Not_Resolved_Atoms>  (332) 
nan

$$$$
CHEMBL210544
     RDKit          3D

  0  0  0  0  0  0  0  0  0  0999 V3000
M  V30 BEGIN CTAB
M  V30 COUNTS 62 67 0 0 0
M  V30 BEGIN ATOM
M  V30 1 N 1.870369 -4.729043 5.062337 0
M  V30 2 C 1.474327 -3.360084 4.551396 0 CFG=2
M  V30 3 C 2.165563 -3.241890 3.252206 0
M  V30 4 O 2.166599 -2.192983 2.471149 0
M  V30 5 C 2.184139 -1.155209 1.728001 0
M  V30 6 C 2.885684 -0.005596 1.960110 0
M  V30 7 N 2.881387 1.075642 1.171527 0
M  V30 8 C 2.137237 1.050346 0.059093 0
M  V30 9 C 1.369916 -0.063861 -0.302268 0
M  V30 10 C 0.635088 0.079549 -1.531546 0
M  V30 11 C 1.197971 0.868984 -2.535019 0
M  V30 12 C 0.669783 1.136214 -3.767096 0
M  V30 13 C -0.560537 0.551597 -4.033569 0
M  V30 14 C -1.186352 0.778332 -5.282826 0
M  V30 15 N -2.366919 0.178611 -5.438289 0
M  V30 16 C -3.022749 -0.590698 -4.590512 0
M  V30 17 C -4.300664 -1.169144 -4.972863 0
M  V30 18 C -5.050811 -1.992617 -4.112517 0
M  V30 19 C -6.228077 -2.474868 -4.626688 0
M  V30 20 C -6.673853 -2.199567 -5.873076 0
M  V30 21 C -5.961899 -1.377017 -6.780683 0
M  V30 22 C -4.786135 -0.903707 -6.248688 0
M  V30 23 C -2.384110 -0.784373 -3.398681 0
M  V30 24 C -1.147680 -0.232643 -3.070736 0
M  V30 25 C -0.598076 -0.490062 -1.835107 0
M  V30 26 C 1.411719 -1.166266 0.558943 0
M  V30 27 C 1.520166 -2.429909 5.663175 0
M  V30 28 C 1.192257 -1.017535 5.522603 0
M  V30 29 C -0.182027 -0.763157 5.411039 0
M  V30 30 N -0.483762 0.540005 5.184584 0
M  V30 31 C 0.704014 1.174015 5.144296 0
M  V30 32 C 1.155935 2.475254 4.983105 0
M  V30 33 C 2.502908 2.773619 5.029406 0
M  V30 34 C 3.476204 1.793221 5.238990 0
M  V30 35 C 3.079382 0.452999 5.408088 0
M  V30 36 C 1.715176 0.274712 5.341628 0
M  V30 37 H 1.663750 -4.754407 6.077819 0
M  V30 38 H 1.418997 -5.422395 4.470546 0
M  V30 39 H 0.352050 -3.584704 4.292548 0
M  V30 40 H 1.782363 -4.155126 2.648275 0
M  V30 41 H 3.261376 -3.628014 3.462932 0
M  V30 42 H 3.509925 -0.000781 2.824786 0
M  V30 43 H 2.189035 1.960360 -0.509507 0
M  V30 44 H 2.174614 1.367203 -2.411186 0
M  V30 45 H 1.120948 1.749530 -4.526628 0
M  V30 46 H -0.643931 1.403290 -5.961403 0
M  V30 47 H -4.701986 -2.205832 -3.132826 0
M  V30 48 H -6.882876 -3.103095 -4.084700 0
M  V30 49 H -7.612933 -2.559501 -6.348023 0
M  V30 50 H -6.308139 -1.150040 -7.771905 0
M  V30 51 H -4.207538 -0.261498 -6.917365 0
M  V30 52 H -2.874761 -1.420192 -2.640627 0
M  V30 53 H -1.044146 -1.099430 -1.084959 0
M  V30 54 H 0.802151 -2.010396 0.243410 0
M  V30 55 H 0.895185 -2.884953 6.502359 0
M  V30 56 H 2.577566 -2.495612 6.138424 0
M  V30 57 H -1.092571 -1.361644 5.459698 0
M  V30 58 H -1.321490 1.133407 5.045673 0
M  V30 59 H 0.424548 3.252449 4.820099 0
M  V30 60 H 2.901098 3.797313 4.906309 0
M  V30 61 H 4.529292 2.067578 5.269532 0
M  V30 62 H 3.824117 -0.318626 5.568917 0
M  V30 END ATOM
M  V30 BEGIN BOND
M  V30 1 1 1 2
M  V30 2 1 2 3
M  V30 3 1 3 4
M  V30 4 1 4 5
M  V30 5 2 5 6
M  V30 6 1 6 7
M  V30 7 2 7 8
M  V30 8 1 8 9
M  V30 9 1 9 10
M  V30 10 2 10 11
M  V30 11 1 11 12
M  V30 12 2 12 13
M  V30 13 1 13 14
M  V30 14 2 14 15
M  V30 15 1 15 16
M  V30 16 1 16 17
M  V30 17 2 17 18
M  V30 18 1 18 19
M  V30 19 2 19 20
M  V30 20 1 20 21
M  V30 21 2 21 22
M  V30 22 2 16 23
M  V30 23 1 23 24
M  V30 24 2 24 25
M  V30 25 2 9 26
M  V30 26 1 2 27
M  V30 27 1 27 28
M  V30 28 2 28 29
M  V30 29 1 29 30
M  V30 30 1 30 31
M  V30 31 2 31 32
M  V30 32 1 32 33
M  V30 33 2 33 34
M  V30 34 1 34 35
M  V30 35 2 35 36
M  V30 36 1 26 5
M  V30 37 1 36 28
M  V30 38 1 25 10
M  V30 39 1 36 31
M  V30 40 1 24 13
M  V30 41 1 22 17
M  V30 42 1 1 37
M  V30 43 1 1 38
M  V30 44 1 2 39 CFG=3
M  V30 45 1 3 40
M  V30 46 1 3 41
M  V30 47 1 6 42
M  V30 48 1 8 43
M  V30 49 1 11 44
M  V30 50 1 12 45
M  V30 51 1 14 46
M  V30 52 1 18 47
M  V30 53 1 19 48
M  V30 54 1 20 49
M  V30 55 1 21 50
M  V30 56 1 22 51
M  V30 57 1 23 52
M  V30 58 1 25 53
M  V30 59 1 26 54
M  V30 60 1 27 55
M  V30 61 1 27 56
M  V30 62 1 29 57
M  V30 63 1 30 58
M  V30 64 1 32 59
M  V30 65 1 33 60
M  V30 66 1 34 61
M  V30 67 1 35 62
M  V30 END BOND
M  V30 END CTAB
M  END
>  <Dataset>  (333) 
ChEMBL_Kinases

>  <Ligand_Instance>  (333) 
nan

>  <PDB_ID>  (333) 
nan

>  <Standardized_SMILES>  (333) 
N[C@H](COc1cncc(-c2ccc3cnc(-c4ccccc4)cc3c2)c1)Cc1c[nH]c2ccccc12

>  <Name>  (333) 
nan

>  <Pocket>  (333) 
nan

>  <ATP_Site>  (333) 
nan

>  <Peripheral>  (333) 
nan

>  <Num_H_Atoms_ProtBoundConf>  (333) 
nan

>  <Num_Resolved_Atoms>  (333) 
nan

>  <Num_Not_Resolved_Atoms>  (333) 
nan

$$$$
CHEMBL2105734
     RDKit          3D

  0  0  0  0  0  0  0  0  0  0999 V3000
M  V30 BEGIN CTAB
M  V30 COUNTS 46 49 0 0 0
M  V30 BEGIN ATOM
M  V30 1 C 0.052982 -2.415733 4.673772 0
M  V30 2 O 0.160521 -2.627941 3.290658 0
M  V30 3 C 1.494171 -2.830054 2.969990 0
M  V30 4 C 1.717857 -3.070713 1.483707 0
M  V30 5 N 1.261280 -1.937577 0.705352 0 CHG=1 VAL=4
M  V30 6 C 0.040873 -1.746813 0.174603 0
M  V30 7 C 0.083700 -0.526537 -0.465572 0
M  V30 8 N 1.292103 0.050909 -0.351555 0
M  V30 9 C 1.849918 1.300597 -0.817933 0
M  V30 10 C 1.704300 2.414215 0.137485 0
M  V30 11 C 0.721139 3.369058 0.258826 0
M  V30 12 N 0.778483 4.309797 1.217083 0
M  V30 13 C 1.792464 4.357057 2.091653 0
M  V30 14 C 2.790720 3.413389 1.993356 0
M  V30 15 N 2.731460 2.474355 1.035242 0
M  V30 16 C 1.997474 -0.856299 0.382822 0
M  V30 17 C 3.423327 -0.692599 0.795132 0
M  V30 18 C -1.095746 -0.019752 -1.156132 0
M  V30 19 O -1.087732 1.072277 -1.740410 0
M  V30 20 C -2.336841 -0.787940 -1.183606 0
M  V30 21 C -3.453231 -0.284321 -1.849856 0
M  V30 22 C -4.610999 -1.040256 -1.854376 0
M  V30 23 C -4.673764 -2.274583 -1.213776 0
M  V30 24 C -3.551216 -2.744701 -0.563333 0
M  V30 25 C -2.370854 -2.022885 -0.532481 0
M  V30 26 C -1.187845 -2.530599 0.159597 0
M  V30 27 O -1.231234 -3.632077 0.734942 0
M  V30 28 H 0.665222 -1.512743 4.898397 0
M  V30 29 H -1.008368 -2.271236 4.940435 0
M  V30 30 H 0.417127 -3.270780 5.262609 0
M  V30 31 H 2.084417 -1.923398 3.281554 0
M  V30 32 H 1.890534 -3.654250 3.580061 0
M  V30 33 H 2.737285 -3.368339 1.257872 0
M  V30 34 H 1.032461 -3.924239 1.225974 0
M  V30 35 H 1.323595 1.629828 -1.749492 0
M  V30 36 H 2.915782 1.119662 -1.088305 0
M  V30 37 H -0.059190 3.266216 -0.481051 0
M  V30 38 H 1.729140 5.149512 2.807631 0
M  V30 39 H 3.586416 3.482176 2.710316 0
M  V30 40 H 3.430975 -0.136936 1.763412 0
M  V30 41 H 3.871998 -1.688186 1.032776 0
M  V30 42 H 4.028041 -0.128264 0.073237 0
M  V30 43 H -3.414134 0.684471 -2.356251 0
M  V30 44 H -5.495894 -0.659200 -2.372737 0
M  V30 45 H -5.599141 -2.863706 -1.225491 0
M  V30 46 H -3.541277 -3.697330 -0.048236 0
M  V30 END ATOM
M  V30 BEGIN BOND
M  V30 1 1 1 2
M  V30 2 1 2 3
M  V30 3 1 3 4
M  V30 4 1 4 5
M  V30 5 1 5 6
M  V30 6 2 6 7
M  V30 7 1 7 8
M  V30 8 1 8 9
M  V30 9 1 9 10
M  V30 10 2 10 11
M  V30 11 1 11 12
M  V30 12 2 12 13
M  V30 13 1 13 14
M  V30 14 2 14 15
M  V30 15 1 8 16
M  V30 16 1 16 17
M  V30 17 1 7 18
M  V30 18 2 18 19
M  V30 19 1 18 20
M  V30 20 2 20 21
M  V30 21 1 21 22
M  V30 22 2 22 23
M  V30 23 1 23 24
M  V30 24 2 24 25
M  V30 25 1 25 26
M  V30 26 2 26 27
M  V30 27 2 16 5
M  V30 28 1 25 20
M  V30 29 1 26 6
M  V30 30 1 15 10
M  V30 31 1 1 28
M  V30 32 1 1 29
M  V30 33 1 1 30
M  V30 34 1 3 31
M  V30 35 1 3 32
M  V30 36 1 4 33
M  V30 37 1 4 34
M  V30 38 1 9 35
M  V30 39 1 9 36
M  V30 40 1 11 37
M  V30 41 1 13 38
M  V30 42 1 14 39
M  V30 43 1 17 40
M  V30 44 1 17 41
M  V30 45 1 17 42
M  V30 46 1 21 43
M  V30 47 1 22 44
M  V30 48 1 23 45
M  V30 49 1 24 46
M  V30 END BOND
M  V30 END CTAB
M  END
>  <Dataset>  (334) 
ChEMBL_Kinases

>  <Ligand_Instance>  (334) 
nan

>  <PDB_ID>  (334) 
nan

>  <Standardized_SMILES>  (334) 
COCC[n+]1c2c(n(Cc3cnccn3)c1C)C(=O)c1ccccc1C2=O

>  <Name>  (334) 
SEPANTRONIUM BROMIDE

>  <Pocket>  (334) 
nan

>  <ATP_Site>  (334) 
nan

>  <Peripheral>  (334) 
nan

>  <Num_H_Atoms_ProtBoundConf>  (334) 
nan

>  <Num_Resolved_Atoms>  (334) 
nan

>  <Num_Not_Resolved_Atoms>  (334) 
nan

$$$$
CHEMBL210628
     RDKit          3D

  0  0  0  0  0  0  0  0  0  0999 V3000
M  V30 BEGIN CTAB
M  V30 COUNTS 57 61 0 0 0
M  V30 BEGIN ATOM
M  V30 1 N 3.991461 -4.465308 1.359049 0
M  V30 2 C 3.196451 -3.663898 1.138467 0
M  V30 3 C 2.207338 -2.685038 0.844895 0
M  V30 4 C 1.134797 -2.785688 0.086798 0
M  V30 5 C 0.093935 -1.853568 -0.258944 0
M  V30 6 C -0.070807 -0.537074 0.168355 0
M  V30 7 O 0.819020 -0.049686 0.969709 0
M  V30 8 C 1.352619 0.912085 1.728399 0
M  V30 9 C 1.738736 2.219277 1.136173 0 CFG=1
M  V30 10 N 2.660261 2.135989 0.034889 0
M  V30 11 C 0.730923 3.267570 0.932987 0
M  V30 12 C 0.041754 3.806687 2.098839 0
M  V30 13 C 0.374234 5.061206 2.649404 0
M  V30 14 N -0.364724 5.383538 3.709991 0
M  V30 15 C -1.224368 4.381600 3.932640 0
M  V30 16 C -2.208936 4.172729 4.872203 0
M  V30 17 C -2.932891 3.001446 4.815002 0
M  V30 18 C -2.710929 2.035661 3.859140 0
M  V30 19 C -1.717758 2.293813 2.946481 0
M  V30 20 C -0.967287 3.446370 2.959654 0
M  V30 21 C -1.172068 0.132500 -0.303981 0
M  V30 22 N -2.080586 -0.406859 -1.140364 0
M  V30 23 C -1.936567 -1.695305 -1.570939 0
M  V30 24 C -0.860542 -2.399589 -1.130897 0
M  V30 25 C -0.858290 -3.743978 -1.732236 0
M  V30 26 C -2.007509 -4.529156 -1.572727 0
M  V30 27 C -2.112508 -5.795943 -2.113631 0
M  V30 28 C -1.057914 -6.326532 -2.841567 0
M  V30 29 C -1.195812 -7.594508 -3.367696 0
M  V30 30 N -0.135532 -8.069213 -4.072163 0
M  V30 31 C 0.990289 -7.357980 -4.255537 0
M  V30 32 C 1.149322 -6.071874 -3.730664 0
M  V30 33 C 0.070906 -5.568084 -3.004445 0
M  V30 34 C 0.163277 -4.313339 -2.463687 0
M  V30 35 H 2.329429 -1.721346 1.290299 0
M  V30 36 H 1.152542 -3.824797 -0.275968 0
M  V30 37 H 0.831518 1.121805 2.702520 0
M  V30 38 H 2.355329 0.489161 2.135203 0
M  V30 39 H 2.433171 2.688823 1.971946 0
M  V30 40 H 3.593707 1.792122 0.343774 0
M  V30 41 H 2.251419 1.572313 -0.742960 0
M  V30 42 H -0.016131 2.947319 0.174712 0
M  V30 43 H 1.252454 4.131539 0.402236 0
M  V30 44 H 1.152248 5.757211 2.293618 0
M  V30 45 H -0.320919 6.242292 4.291970 0
M  V30 46 H -2.356114 4.959377 5.614203 0
M  V30 47 H -3.694589 2.898095 5.584404 0
M  V30 48 H -3.298944 1.130020 3.845966 0
M  V30 49 H -1.521670 1.547229 2.195899 0
M  V30 50 H -1.435937 1.145107 -0.074707 0
M  V30 51 H -2.703609 -2.050818 -2.235882 0
M  V30 52 H -2.866749 -4.191386 -1.023299 0
M  V30 53 H -3.000240 -6.407378 -1.992267 0
M  V30 54 H -2.100127 -8.190086 -3.231577 0
M  V30 55 H 1.845418 -7.702231 -4.805790 0
M  V30 56 H 2.022123 -5.462127 -3.845650 0
M  V30 57 H 1.057388 -3.723852 -2.611155 0
M  V30 END ATOM
M  V30 BEGIN BOND
M  V30 1 3 1 2
M  V30 2 1 2 3
M  V30 3 2 3 4
M  V30 4 1 4 5
M  V30 5 2 5 6
M  V30 6 1 6 7
M  V30 7 1 7 8
M  V30 8 1 8 9
M  V30 9 1 9 10
M  V30 10 1 9 11
M  V30 11 1 11 12
M  V30 12 2 12 13
M  V30 13 1 13 14
M  V30 14 1 14 15
M  V30 15 2 15 16
M  V30 16 1 16 17
M  V30 17 2 17 18
M  V30 18 1 18 19
M  V30 19 2 19 20
M  V30 20 1 6 21
M  V30 21 2 21 22
M  V30 22 1 22 23
M  V30 23 2 23 24
M  V30 24 1 24 25
M  V30 25 2 25 26
M  V30 26 1 26 27
M  V30 27 2 27 28
M  V30 28 1 28 29
M  V30 29 2 29 30
M  V30 30 1 30 31
M  V30 31 2 31 32
M  V30 32 1 32 33
M  V30 33 2 33 34
M  V30 34 1 24 5
M  V30 35 1 34 25
M  V30 36 1 20 12
M  V30 37 1 33 28
M  V30 38 1 20 15
M  V30 39 1 3 35
M  V30 40 1 4 36
M  V30 41 1 8 37
M  V30 42 1 8 38
M  V30 43 1 9 39 CFG=1
M  V30 44 1 10 40
M  V30 45 1 10 41
M  V30 46 1 11 42
M  V30 47 1 11 43
M  V30 48 1 13 44
M  V30 49 1 14 45
M  V30 50 1 16 46
M  V30 51 1 17 47
M  V30 52 1 18 48
M  V30 53 1 19 49
M  V30 54 1 21 50
M  V30 55 1 23 51
M  V30 56 1 26 52
M  V30 57 1 27 53
M  V30 58 1 29 54
M  V30 59 1 31 55
M  V30 60 1 32 56
M  V30 61 1 34 57
M  V30 END BOND
M  V30 END CTAB
M  END
>  <Dataset>  (335) 
ChEMBL_Kinases

>  <Ligand_Instance>  (335) 
nan

>  <PDB_ID>  (335) 
nan

>  <Standardized_SMILES>  (335) 
N#C/C=C/c1c(OC[C@@H](N)Cc2c[nH]c3ccccc23)cncc1-c1ccc2cnccc2c1

>  <Name>  (335) 
nan

>  <Pocket>  (335) 
nan

>  <ATP_Site>  (335) 
nan

>  <Peripheral>  (335) 
nan

>  <Num_H_Atoms_ProtBoundConf>  (335) 
nan

>  <Num_Resolved_Atoms>  (335) 
nan

>  <Num_Not_Resolved_Atoms>  (335) 
nan

$$$$
CHEMBL210635
     RDKit          3D

  0  0  0  0  0  0  0  0  0  0999 V3000
M  V30 BEGIN CTAB
M  V30 COUNTS 33 35 0 0 0
M  V30 BEGIN ATOM
M  V30 1 C -1.725319 -4.910115 2.408411 0
M  V30 2 O -1.785496 -4.998260 0.977560 0
M  V30 3 C -1.363629 -3.920082 0.211867 0
M  V30 4 C -1.394736 -3.938364 -1.167906 0
M  V30 5 C -0.991183 -2.903366 -1.985284 0
M  V30 6 O -1.049062 -2.987838 -3.368844 0
M  V30 7 C -0.522803 -1.769341 -1.356588 0
M  V30 8 C -0.093349 -0.674219 -2.078456 0
M  V30 9 O -0.123508 -0.695321 -3.336613 0
M  V30 10 C 0.360819 0.421376 -1.374598 0
M  V30 11 C 0.403636 0.468806 0.002150 0
M  V30 12 C 0.876478 1.607513 0.780415 0
M  V30 13 C 0.850303 1.484226 2.153796 0
M  V30 14 C 1.285774 2.528371 2.978023 0
M  V30 15 C 1.741952 3.684770 2.369731 0
M  V30 16 O 2.172984 4.718480 3.180687 0
M  V30 17 C 1.782833 3.844709 0.991506 0
M  V30 18 C 1.337176 2.773531 0.209289 0
M  V30 19 O -0.013820 -0.593388 0.649234 0
M  V30 20 C -0.463876 -1.682463 0.031393 0
M  V30 21 C -0.883567 -2.756425 0.824561 0
M  V30 22 H -0.686296 -4.854019 2.781525 0
M  V30 23 H -2.217645 -3.930191 2.670700 0
M  V30 24 H -2.337402 -5.695176 2.876970 0
M  V30 25 H -1.776358 -4.865957 -1.595331 0
M  V30 26 H -0.414289 -3.565042 -3.878154 0
M  V30 27 H 0.699251 1.283704 -1.926955 0
M  V30 28 H 0.503190 0.601170 2.690143 0
M  V30 29 H 1.282082 2.473146 4.061407 0
M  V30 30 H 1.813152 4.902302 4.101547 0
M  V30 31 H 2.138883 4.747051 0.522559 0
M  V30 32 H 1.362310 2.880930 -0.851572 0
M  V30 33 H -0.827505 -2.662590 1.881933 0
M  V30 END ATOM
M  V30 BEGIN BOND
M  V30 1 1 1 2
M  V30 2 1 2 3
M  V30 3 2 3 4
M  V30 4 1 4 5
M  V30 5 1 5 6
M  V30 6 2 5 7
M  V30 7 1 7 8
M  V30 8 2 8 9
M  V30 9 1 8 10
M  V30 10 2 10 11
M  V30 11 1 11 12
M  V30 12 2 12 13
M  V30 13 1 13 14
M  V30 14 2 14 15
M  V30 15 1 15 16
M  V30 16 1 15 17
M  V30 17 2 17 18
M  V30 18 1 11 19
M  V30 19 1 19 20
M  V30 20 2 20 21
M  V30 21 1 21 3
M  V30 22 1 20 7
M  V30 23 1 18 12
M  V30 24 1 1 22
M  V30 25 1 1 23
M  V30 26 1 1 24
M  V30 27 1 4 25
M  V30 28 1 6 26
M  V30 29 1 10 27
M  V30 30 1 13 28
M  V30 31 1 14 29
M  V30 32 1 16 30
M  V30 33 1 17 31
M  V30 34 1 18 32
M  V30 35 1 21 33
M  V30 END BOND
M  V30 END CTAB
M  END
>  <Dataset>  (336) 
ChEMBL_Kinases

>  <Ligand_Instance>  (336) 
nan

>  <PDB_ID>  (336) 
nan

>  <Standardized_SMILES>  (336) 
COc1cc(O)c2c(=O)cc(-c3ccc(O)cc3)oc2c1

>  <Name>  (336) 
GENKWANIN

>  <Pocket>  (336) 
nan

>  <ATP_Site>  (336) 
nan

>  <Peripheral>  (336) 
nan

>  <Num_H_Atoms_ProtBoundConf>  (336) 
nan

>  <Num_Resolved_Atoms>  (336) 
nan

>  <Num_Not_Resolved_Atoms>  (336) 
nan

$$$$
CHEMBL210639
     RDKit          3D

  0  0  0  0  0  0  0  0  0  0999 V3000
M  V30 BEGIN CTAB
M  V30 COUNTS 48 52 0 0 0
M  V30 BEGIN ATOM
M  V30 1 O -0.524603 -4.033656 -1.865327 0
M  V30 2 C 0.293217 -3.055212 -1.340269 0
M  V30 3 N 1.548538 -3.155438 -1.763170 0
M  V30 4 C 2.529492 -2.340622 -1.408551 0
M  V30 5 C 3.802750 -2.525799 -1.900891 0
M  V30 6 C 4.799418 -1.661193 -1.511608 0
M  V30 7 C 4.486318 -0.644230 -0.645103 0
M  V30 8 Cl 5.759909 0.443371 -0.160833 0
M  V30 9 C 3.187789 -0.536148 -0.204988 0
M  V30 10 C 2.138284 -1.346895 -0.538486 0
M  V30 11 C 0.849244 -1.185506 -0.059437 0
M  V30 12 N 0.627499 -0.108209 0.824716 0
M  V30 13 C 0.648160 1.012443 1.673682 0
M  V30 14 C 1.072954 2.324726 0.995965 0
M  V30 15 C 0.761142 3.409136 2.043602 0
M  V30 16 C 1.521420 3.151889 3.320360 0
M  V30 17 N 1.145935 1.838800 3.865896 0
M  V30 18 C 1.593772 0.844184 2.873951 0
M  V30 19 C -0.124955 -2.079376 -0.476519 0
M  V30 20 C -1.505139 -1.982530 -0.022789 0
M  V30 21 N -2.195482 -1.176804 0.784339 0
M  V30 22 C -3.479214 -1.470558 0.912353 0
M  V30 23 C -4.450563 -0.823862 1.674930 0
M  V30 24 C -5.722482 -1.353795 1.618760 0
M  V30 25 C -5.984549 -2.462709 0.841300 0
M  V30 26 C -4.959887 -3.047278 0.111656 0
M  V30 27 C -3.655516 -2.575418 0.114410 0
M  V30 28 N -2.455457 -2.840413 -0.418649 0
M  V30 29 H -0.483173 -4.965174 -1.450142 0
M  V30 30 H 3.984393 -3.361861 -2.592401 0
M  V30 31 H 5.768008 -1.869604 -1.937990 0
M  V30 32 H 3.057705 0.289194 0.465060 0
M  V30 33 H -0.364358 -0.183353 1.052377 0
M  V30 34 H -0.325903 1.308314 2.159616 0
M  V30 35 H 0.372209 2.491595 0.160347 0
M  V30 36 H 2.124326 2.374974 0.745043 0
M  V30 37 H 0.950142 4.416911 1.678065 0
M  V30 38 H -0.327532 3.253989 2.283831 0
M  V30 39 H 2.620114 3.205639 3.154420 0
M  V30 40 H 1.169877 3.899152 4.052397 0
M  V30 41 H 1.696252 1.705176 4.747262 0
M  V30 42 H 1.491890 -0.157961 3.329720 0
M  V30 43 H 2.620700 1.099845 2.585695 0
M  V30 44 H -4.206844 0.032931 2.264288 0
M  V30 45 H -6.479913 -0.856276 2.208219 0
M  V30 46 H -6.981327 -2.881367 0.794702 0
M  V30 47 H -5.151400 -3.923386 -0.506861 0
M  V30 48 H -2.499135 -3.664850 -1.038225 0
M  V30 END ATOM
M  V30 BEGIN BOND
M  V30 1 1 1 2
M  V30 2 2 2 3
M  V30 3 1 3 4
M  V30 4 2 4 5
M  V30 5 1 5 6
M  V30 6 2 6 7
M  V30 7 1 7 8
M  V30 8 1 7 9
M  V30 9 2 9 10
M  V30 10 1 10 11
M  V30 11 1 11 12
M  V30 12 1 12 13
M  V30 13 1 13 14
M  V30 14 1 14 15
M  V30 15 1 15 16
M  V30 16 1 16 17
M  V30 17 1 17 18
M  V30 18 2 11 19
M  V30 19 1 19 20
M  V30 20 2 20 21
M  V30 21 1 21 22
M  V30 22 2 22 23
M  V30 23 1 23 24
M  V30 24 2 24 25
M  V30 25 1 25 26
M  V30 26 2 26 27
M  V30 27 1 27 28
M  V30 28 1 19 2
M  V30 29 1 28 20
M  V30 30 1 10 4
M  V30 31 1 18 13
M  V30 32 1 27 22
M  V30 33 1 1 29
M  V30 34 1 5 30
M  V30 35 1 6 31
M  V30 36 1 9 32
M  V30 37 1 12 33
M  V30 38 1 13 34
M  V30 39 1 14 35
M  V30 40 1 14 36
M  V30 41 1 15 37
M  V30 42 1 15 38
M  V30 43 1 16 39
M  V30 44 1 16 40
M  V30 45 1 17 41
M  V30 46 1 18 42
M  V30 47 1 18 43
M  V30 48 1 23 44
M  V30 49 1 24 45
M  V30 50 1 25 46
M  V30 51 1 26 47
M  V30 52 1 28 48
M  V30 END BOND
M  V30 END CTAB
M  END
>  <Dataset>  (337) 
ChEMBL_Kinases

>  <Ligand_Instance>  (337) 
nan

>  <PDB_ID>  (337) 
nan

>  <Standardized_SMILES>  (337) 
Oc1nc2ccc(Cl)cc2c(NC2CCCNC2)c1-c1nc2ccccc2[nH]1

>  <Name>  (337) 
nan

>  <Pocket>  (337) 
nan

>  <ATP_Site>  (337) 
nan

>  <Peripheral>  (337) 
nan

>  <Num_H_Atoms_ProtBoundConf>  (337) 
nan

>  <Num_Resolved_Atoms>  (337) 
nan

>  <Num_Not_Resolved_Atoms>  (337) 
nan

$$$$
CHEMBL210432
     RDKit          3D

  0  0  0  0  0  0  0  0  0  0999 V3000
M  V30 BEGIN CTAB
M  V30 COUNTS 60 61 0 0 0
M  V30 BEGIN ATOM
M  V30 1 C -1.085776 1.917855 5.338738 0
M  V30 2 C -0.469372 0.990183 4.301686 0
M  V30 3 C 0.961655 1.347289 4.014459 0
M  V30 4 C 1.567368 0.399771 2.965718 0
M  V30 5 C 2.963678 0.856167 2.776631 0
M  V30 6 C 3.817058 0.156825 1.809019 0
M  V30 7 C 3.564215 0.174070 0.399716 0
M  V30 8 C 2.823844 0.765946 -0.489631 0
M  V30 9 C 1.808645 1.812545 -0.340444 0
M  V30 10 C 0.728592 1.200952 -1.253920 0
M  V30 11 C -0.466883 2.050856 -1.344106 0
M  V30 12 O -1.130217 2.068561 -0.097851 0
M  V30 13 C 0.437203 -0.224403 -0.828592 0
M  V30 14 O -0.235566 -0.823283 -1.912746 0
M  V30 15 C -0.689109 -2.127668 -1.980357 0
M  V30 16 O -0.182144 -2.126255 -0.836251 0
M  V30 17 C -1.329760 -2.324609 -3.283641 0
M  V30 18 C -1.879324 -3.670842 -3.564635 0
M  V30 19 C -2.980692 -4.174047 -2.709142 0
M  V30 20 C -2.735552 -4.291378 -1.278558 0
M  V30 21 C -3.106264 -3.239860 -0.432108 0
M  V30 22 C -2.947998 -3.185647 0.938317 0
M  V30 23 C -2.359777 -4.291759 1.530769 0
M  V30 24 C -1.976095 -5.349560 0.759646 0
M  V30 25 C -2.156986 -5.354265 -0.609611 0
M  V30 26 O 1.515524 1.079542 -2.425042 0
M  V30 27 C 2.746883 0.570921 -1.955278 0
M  V30 28 O 3.682933 0.021207 -2.628507 0
M  V30 29 H -0.477468 2.833294 5.511620 0
M  V30 30 H -1.193604 1.391611 6.319006 0
M  V30 31 H -2.098287 2.251244 5.051277 0
M  V30 32 H -0.443402 -0.044754 4.749836 0
M  V30 33 H -1.090863 1.027129 3.405492 0
M  V30 34 H 0.968281 2.370264 3.584869 0
M  V30 35 H 1.575497 1.306309 4.914771 0
M  V30 36 H 0.929595 0.345173 2.088033 0
M  V30 37 H 1.585475 -0.635398 3.411524 0
M  V30 38 H 2.969812 1.968002 2.556222 0
M  V30 39 H 3.454888 0.814251 3.793599 0
M  V30 40 H 4.892648 0.446970 2.068218 0
M  V30 41 H 3.823472 -0.942177 2.149017 0
M  V30 42 H 4.231470 -0.560483 -0.095094 0
M  V30 43 H 1.375816 2.009596 0.612313 0
M  V30 44 H 2.189569 2.735790 -0.859321 0
M  V30 45 H -0.295283 3.066691 -1.740390 0
M  V30 46 H -1.207682 1.544395 -2.029610 0
M  V30 47 H -1.693207 1.262712 0.008372 0
M  V30 48 H 1.413108 -0.724918 -0.696445 0
M  V30 49 H -0.168606 -0.249737 0.102785 0
M  V30 50 H -0.599755 -2.088476 -4.115896 0
M  V30 51 H -2.122350 -1.528761 -3.432906 0
M  V30 52 H -2.294910 -3.648078 -4.621220 0
M  V30 53 H -1.078511 -4.450598 -3.628623 0
M  V30 54 H -3.225669 -5.208917 -3.085777 0
M  V30 55 H -3.896099 -3.538307 -2.833900 0
M  V30 56 H -3.573438 -2.360730 -0.900682 0
M  V30 57 H -3.269719 -2.328730 1.481229 0
M  V30 58 H -2.239624 -4.242388 2.599505 0
M  V30 59 H -1.517461 -6.199350 1.265150 0
M  V30 60 H -1.853103 -6.195705 -1.232384 0
M  V30 END ATOM
M  V30 BEGIN BOND
M  V30 1 1 1 2
M  V30 2 1 2 3
M  V30 3 1 3 4
M  V30 4 1 4 5
M  V30 5 1 5 6
M  V30 6 1 6 7
M  V30 7 2 7 8
M  V30 8 1 8 9
M  V30 9 1 9 10
M  V30 10 1 10 11
M  V30 11 1 11 12
M  V30 12 1 10 13
M  V30 13 1 13 14
M  V30 14 1 14 15
M  V30 15 2 15 16
M  V30 16 1 15 17
M  V30 17 1 17 18
M  V30 18 1 18 19
M  V30 19 1 19 20
M  V30 20 2 20 21
M  V30 21 1 21 22
M  V30 22 2 22 23
M  V30 23 1 23 24
M  V30 24 2 24 25
M  V30 25 1 10 26
M  V30 26 1 26 27
M  V30 27 2 27 28
M  V30 28 1 27 8
M  V30 29 1 25 20
M  V30 30 1 1 29
M  V30 31 1 1 30
M  V30 32 1 1 31
M  V30 33 1 2 32
M  V30 34 1 2 33
M  V30 35 1 3 34
M  V30 36 1 3 35
M  V30 37 1 4 36
M  V30 38 1 4 37
M  V30 39 1 5 38
M  V30 40 1 5 39
M  V30 41 1 6 40
M  V30 42 1 6 41
M  V30 43 1 7 42
M  V30 44 1 9 43
M  V30 45 1 9 44
M  V30 46 1 11 45
M  V30 47 1 11 46
M  V30 48 1 12 47
M  V30 49 1 13 48
M  V30 50 1 13 49
M  V30 51 1 17 50
M  V30 52 1 17 51
M  V30 53 1 18 52
M  V30 54 1 18 53
M  V30 55 1 19 54
M  V30 56 1 19 55
M  V30 57 1 21 56
M  V30 58 1 22 57
M  V30 59 1 23 58
M  V30 60 1 24 59
M  V30 61 1 25 60
M  V30 END BOND
M  V30 END CTAB
M  END
>  <Dataset>  (338) 
ChEMBL_Kinases

>  <Ligand_Instance>  (338) 
nan

>  <PDB_ID>  (338) 
nan

>  <Standardized_SMILES>  (338) 
CCCCCC/C=C1\CC(CO)(COC(=O)CCCc2ccccc2)OC1=O

>  <Name>  (338) 
nan

>  <Pocket>  (338) 
nan

>  <ATP_Site>  (338) 
nan

>  <Peripheral>  (338) 
nan

>  <Num_H_Atoms_ProtBoundConf>  (338) 
nan

>  <Num_Resolved_Atoms>  (338) 
nan

>  <Num_Not_Resolved_Atoms>  (338) 
nan

$$$$
CHEMBL2062557
     RDKit          3D

  0  0  0  0  0  0  0  0  0  0999 V3000
M  V30 BEGIN CTAB
M  V30 COUNTS 31 33 0 0 0
M  V30 BEGIN ATOM
M  V30 1 C -2.885454 -2.736629 4.980541 0
M  V30 2 O -2.749282 -3.306277 3.674645 0
M  V30 3 C -1.935768 -2.610375 2.765693 0
M  V30 4 C -1.301443 -1.436142 3.119030 0
M  V30 5 C -0.519910 -0.831160 2.138937 0
M  V30 6 C -0.374499 -1.362505 0.873838 0
M  V30 7 C 0.468252 -0.646822 -0.076468 0
M  V30 8 C 0.699305 -1.063467 -1.367584 0
M  V30 9 C 1.514673 -0.311506 -2.186847 0
M  V30 10 N 1.764290 -0.724021 -3.518437 0
M  V30 11 N 2.080827 0.819296 -1.732169 0
M  V30 12 N 2.884795 1.674584 -2.348512 0
M  V30 13 C 3.191802 2.662878 -1.471165 0
M  V30 14 C 2.552526 2.403225 -0.274069 0
M  V30 15 C 2.586699 3.176943 0.939717 0
M  V30 16 N 2.594256 3.801279 1.915751 0
M  V30 17 C 1.852883 1.224146 -0.468837 0
M  V30 18 N 1.052631 0.489490 0.340909 0
M  V30 19 C -1.037168 -2.538922 0.589260 0
M  V30 20 C -1.831591 -3.203172 1.502635 0
M  V30 21 H -1.843302 -2.643597 5.361703 0
M  V30 22 H -3.552697 -3.327551 5.606200 0
M  V30 23 H -3.248157 -1.687862 4.852669 0
M  V30 24 H -1.428738 -1.035910 4.117333 0
M  V30 25 H -0.030099 0.099040 2.451230 0
M  V30 26 H 0.238085 -1.973387 -1.719014 0
M  V30 27 H 1.205290 -0.873048 -4.393001 0
M  V30 28 H 2.654115 -1.004731 -3.988215 0
M  V30 29 H 3.836400 3.533970 -1.653674 0
M  V30 30 H -0.937719 -2.969822 -0.389459 0
M  V30 31 H -2.346365 -4.122259 1.272824 0
M  V30 END ATOM
M  V30 BEGIN BOND
M  V30 1 1 1 2
M  V30 2 1 2 3
M  V30 3 2 3 4
M  V30 4 1 4 5
M  V30 5 2 5 6
M  V30 6 1 6 7
M  V30 7 1 7 8
M  V30 8 2 8 9
M  V30 9 1 9 10
M  V30 10 1 9 11
M  V30 11 1 11 12
M  V30 12 2 12 13
M  V30 13 1 13 14
M  V30 14 1 14 15
M  V30 15 3 15 16
M  V30 16 2 14 17
M  V30 17 1 17 18
M  V30 18 1 6 19
M  V30 19 2 19 20
M  V30 20 1 20 3
M  V30 21 2 18 7
M  V30 22 1 17 11
M  V30 23 1 1 21
M  V30 24 1 1 22
M  V30 25 1 1 23
M  V30 26 1 4 24
M  V30 27 1 5 25
M  V30 28 1 8 26
M  V30 29 1 10 27
M  V30 30 1 10 28
M  V30 31 1 13 29
M  V30 32 1 19 30
M  V30 33 1 20 31
M  V30 END BOND
M  V30 END CTAB
M  END
>  <Dataset>  (339) 
ChEMBL_Kinases

>  <Ligand_Instance>  (339) 
nan

>  <PDB_ID>  (339) 
nan

>  <Standardized_SMILES>  (339) 
COc1ccc(-c2cc(N)n3ncc(C#N)c3n2)cc1

>  <Name>  (339) 
nan

>  <Pocket>  (339) 
nan

>  <ATP_Site>  (339) 
nan

>  <Peripheral>  (339) 
nan

>  <Num_H_Atoms_ProtBoundConf>  (339) 
nan

>  <Num_Resolved_Atoms>  (339) 
nan

>  <Num_Not_Resolved_Atoms>  (339) 
nan

$$$$
CHEMBL2062556
     RDKit          3D

  0  0  0  0  0  0  0  0  0  0999 V3000
M  V30 BEGIN CTAB
M  V30 COUNTS 27 29 0 0 0
M  V30 BEGIN ATOM
M  V30 1 N 1.039075 -5.070025 2.697172 0
M  V30 2 C 1.095117 -3.940147 2.934348 0
M  V30 3 C 1.162847 -2.531930 3.204427 0
M  V30 4 C 1.578096 -1.975985 4.412350 0
M  V30 5 N 1.522272 -0.615534 4.329631 0
M  V30 6 N 1.081927 -0.311241 3.098295 0
M  V30 7 C 0.844336 0.867407 2.490235 0
M  V30 8 N 1.074246 2.079539 3.209079 0
M  V30 9 C 0.385713 0.847435 1.189101 0
M  V30 10 C 0.154213 -0.305743 0.468873 0
M  V30 11 C -0.330796 -0.305693 -0.905955 0
M  V30 12 C -0.612059 0.824688 -1.640446 0
M  V30 13 C -1.072670 0.744176 -2.950670 0
M  V30 14 C -1.263630 -0.493621 -3.560822 0
M  V30 15 C -0.980326 -1.623115 -2.820511 0
M  V30 16 C -0.522072 -1.527471 -1.516120 0
M  V30 17 N 0.413811 -1.445810 1.141458 0
M  V30 18 C 0.861441 -1.444832 2.410378 0
M  V30 19 H 1.899876 -2.522335 5.294049 0
M  V30 20 H 0.312137 2.094699 3.932019 0
M  V30 21 H 1.857602 2.729954 2.978818 0
M  V30 22 H 0.210365 1.802844 0.745017 0
M  V30 23 H -0.466931 1.785542 -1.175797 0
M  V30 24 H -1.270609 1.679509 -3.459809 0
M  V30 25 H -1.623911 -0.450861 -4.579768 0
M  V30 26 H -1.157047 -2.536531 -3.372338 0
M  V30 27 H -0.347363 -2.499282 -1.074778 0
M  V30 END ATOM
M  V30 BEGIN BOND
M  V30 1 3 1 2
M  V30 2 1 2 3
M  V30 3 1 3 4
M  V30 4 2 4 5
M  V30 5 1 5 6
M  V30 6 1 6 7
M  V30 7 1 7 8
M  V30 8 2 7 9
M  V30 9 1 9 10
M  V30 10 1 10 11
M  V30 11 2 11 12
M  V30 12 1 12 13
M  V30 13 2 13 14
M  V30 14 1 14 15
M  V30 15 2 15 16
M  V30 16 2 10 17
M  V30 17 1 17 18
M  V30 18 2 18 3
M  V30 19 1 18 6
M  V30 20 1 16 11
M  V30 21 1 4 19
M  V30 22 1 8 20
M  V30 23 1 8 21
M  V30 24 1 9 22
M  V30 25 1 12 23
M  V30 26 1 13 24
M  V30 27 1 14 25
M  V30 28 1 15 26
M  V30 29 1 16 27
M  V30 END BOND
M  V30 END CTAB
M  END
>  <Dataset>  (340) 
ChEMBL_Kinases

>  <Ligand_Instance>  (340) 
nan

>  <PDB_ID>  (340) 
nan

>  <Standardized_SMILES>  (340) 
N#Cc1cnn2c(N)cc(-c3ccccc3)nc12

>  <Name>  (340) 
nan

>  <Pocket>  (340) 
nan

>  <ATP_Site>  (340) 
nan

>  <Peripheral>  (340) 
nan

>  <Num_H_Atoms_ProtBoundConf>  (340) 
nan

>  <Num_Resolved_Atoms>  (340) 
nan

>  <Num_Not_Resolved_Atoms>  (340) 
nan

$$$$
CHEMBL2062555
     RDKit          3D

  0  0  0  0  0  0  0  0  0  0999 V3000
M  V30 BEGIN CTAB
M  V30 COUNTS 24 26 0 0 0
M  V30 BEGIN ATOM
M  V30 1 N 3.229918 -2.887808 3.995460 0
M  V30 2 C 2.363200 -2.879193 3.248043 0
M  V30 3 C 1.257769 -2.857602 2.324089 0
M  V30 4 C 0.414207 -3.922353 1.995789 0
M  V30 5 N -0.498637 -3.488759 1.087918 0
M  V30 6 N -0.284066 -2.219550 0.823521 0
M  V30 7 C -0.849082 -1.291400 0.031675 0
M  V30 8 N -1.958858 -1.758443 -0.725604 0
M  V30 9 C -0.432608 0.018931 -0.079667 0
M  V30 10 C 0.638188 0.350748 0.692427 0
M  V30 11 C 1.179953 1.710136 0.667845 0
M  V30 12 C 0.740549 2.745601 -0.057304 0
M  V30 13 C 1.368560 3.963233 0.038998 0
M  V30 14 C 2.450572 4.023539 0.915020 0
M  V30 15 S 2.540339 2.301852 1.589458 0
M  V30 16 N 1.234675 -0.539179 1.497043 0
M  V30 17 C 0.783383 -1.805445 1.564163 0
M  V30 18 H 0.505880 -4.925217 2.421268 0
M  V30 19 H -2.549620 -2.571254 -0.463849 0
M  V30 20 H -2.451907 -1.502793 -1.607839 0
M  V30 21 H -0.916486 0.734701 -0.730246 0
M  V30 22 H -0.122202 2.643088 -0.736835 0
M  V30 23 H 1.113651 4.872612 -0.489264 0
M  V30 24 H 3.094761 4.876300 1.151902 0
M  V30 END ATOM
M  V30 BEGIN BOND
M  V30 1 3 1 2
M  V30 2 1 2 3
M  V30 3 1 3 4
M  V30 4 2 4 5
M  V30 5 1 5 6
M  V30 6 1 6 7
M  V30 7 1 7 8
M  V30 8 2 7 9
M  V30 9 1 9 10
M  V30 10 1 10 11
M  V30 11 2 11 12
M  V30 12 1 12 13
M  V30 13 2 13 14
M  V30 14 1 14 15
M  V30 15 2 10 16
M  V30 16 1 16 17
M  V30 17 2 17 3
M  V30 18 1 17 6
M  V30 19 1 15 11
M  V30 20 1 4 18
M  V30 21 1 8 19
M  V30 22 1 8 20
M  V30 23 1 9 21
M  V30 24 1 12 22
M  V30 25 1 13 23
M  V30 26 1 14 24
M  V30 END BOND
M  V30 END CTAB
M  END
>  <Dataset>  (341) 
ChEMBL_Kinases

>  <Ligand_Instance>  (341) 
nan

>  <PDB_ID>  (341) 
nan

>  <Standardized_SMILES>  (341) 
N#Cc1cnn2c(N)cc(-c3cccs3)nc12

>  <Name>  (341) 
nan

>  <Pocket>  (341) 
nan

>  <ATP_Site>  (341) 
nan

>  <Peripheral>  (341) 
nan

>  <Num_H_Atoms_ProtBoundConf>  (341) 
nan

>  <Num_Resolved_Atoms>  (341) 
nan

>  <Num_Not_Resolved_Atoms>  (341) 
nan

$$$$
CHEMBL206236
     RDKit          3D

  0  0  0  0  0  0  0  0  0  0999 V3000
M  V30 BEGIN CTAB
M  V30 COUNTS 50 52 0 0 0
M  V30 BEGIN ATOM
M  V30 1 N 3.215514 -0.540558 3.440345 0
M  V30 2 C 2.276787 -0.938844 2.406661 0 CFG=1
M  V30 3 C 1.640543 -2.207595 2.862174 0
M  V30 4 O 2.371021 -3.273325 3.133557 0
M  V30 5 C 3.150590 -4.006449 2.373694 0
M  V30 6 C 4.304842 -3.338725 1.786152 0
M  V30 7 C 5.370347 -3.235890 2.687851 0
M  V30 8 C 6.600529 -2.687256 2.392312 0
M  V30 9 C 6.828699 -2.196061 1.126774 0
M  V30 10 C 5.820191 -2.269965 0.200487 0
M  V30 11 C 4.603341 -2.821957 0.521693 0
M  V30 12 C 1.258305 0.207803 2.367950 0
M  V30 13 O 0.259348 -0.000434 1.415560 0
M  V30 14 C -0.728898 0.973480 1.282732 0
M  V30 15 C -0.707489 2.107213 2.077936 0
M  V30 16 N -1.673887 3.031200 1.928552 0
M  V30 17 C -2.667885 2.898876 1.032100 0
M  V30 18 C -2.753209 1.796662 0.206747 0
M  V30 19 C -3.836505 1.660325 -0.765159 0
M  V30 20 C -4.023084 0.662729 -1.600657 0
M  V30 21 C -5.101951 0.523067 -2.571331 0
M  V30 22 C -5.182004 -0.581852 -3.393813 0
M  V30 23 C -6.218658 -0.668117 -4.294026 0
M  V30 24 N -7.155729 0.258891 -4.418754 0
M  V30 25 C -7.136440 1.374336 -3.638315 0
M  V30 26 C -6.088920 1.459433 -2.730109 0
M  V30 27 C -1.756319 0.856685 0.369865 0
M  V30 28 H 2.898282 0.226889 4.039396 0
M  V30 29 H 3.537780 -1.380602 3.981552 0
M  V30 30 H 2.763720 -1.061510 1.449530 0
M  V30 31 H 0.815045 -2.520822 2.145064 0
M  V30 32 H 1.004429 -2.005882 3.805918 0
M  V30 33 H 2.526257 -4.461107 1.532959 0
M  V30 34 H 3.535541 -4.954162 2.874654 0
M  V30 35 H 5.342571 -3.582446 3.733769 0
M  V30 36 H 7.419547 -2.603171 3.069796 0
M  V30 37 H 7.721971 -1.739216 0.730557 0
M  V30 38 H 5.846910 -1.932711 -0.817483 0
M  V30 39 H 3.713020 -2.944650 -0.117532 0
M  V30 40 H 0.896871 0.342333 3.402585 0
M  V30 41 H 1.841739 1.099085 2.047653 0
M  V30 42 H 0.081973 2.245131 2.812485 0
M  V30 43 H -3.410958 3.699845 0.979236 0
M  V30 44 H -4.566637 2.454884 -0.812123 0
M  V30 45 H -3.283475 -0.134955 -1.548149 0
M  V30 46 H -4.427492 -1.356030 -3.312411 0
M  V30 47 H -6.272835 -1.543752 -4.938396 0
M  V30 48 H -7.897284 2.136924 -3.732741 0
M  V30 49 H -6.108097 2.356061 -2.130889 0
M  V30 50 H -1.746435 -0.025245 -0.227141 0
M  V30 END ATOM
M  V30 BEGIN BOND
M  V30 1 1 1 2
M  V30 2 1 2 3
M  V30 3 1 3 4
M  V30 4 1 4 5
M  V30 5 1 5 6
M  V30 6 2 6 7
M  V30 7 1 7 8
M  V30 8 2 8 9
M  V30 9 1 9 10
M  V30 10 2 10 11
M  V30 11 1 2 12
M  V30 12 1 12 13
M  V30 13 1 13 14
M  V30 14 2 14 15
M  V30 15 1 15 16
M  V30 16 2 16 17
M  V30 17 1 17 18
M  V30 18 1 18 19
M  V30 19 2 19 20
M  V30 20 1 20 21
M  V30 21 2 21 22
M  V30 22 1 22 23
M  V30 23 2 23 24
M  V30 24 1 24 25
M  V30 25 2 25 26
M  V30 26 2 18 27
M  V30 27 1 11 6
M  V30 28 1 27 14
M  V30 29 1 26 21
M  V30 30 1 1 28
M  V30 31 1 1 29
M  V30 32 1 2 30 CFG=3
M  V30 33 1 3 31
M  V30 34 1 3 32
M  V30 35 1 5 33
M  V30 36 1 5 34
M  V30 37 1 7 35
M  V30 38 1 8 36
M  V30 39 1 9 37
M  V30 40 1 10 38
M  V30 41 1 11 39
M  V30 42 1 12 40
M  V30 43 1 12 41
M  V30 44 1 15 42
M  V30 45 1 17 43
M  V30 46 1 19 44
M  V30 47 1 20 45
M  V30 48 1 22 46
M  V30 49 1 23 47
M  V30 50 1 25 48
M  V30 51 1 26 49
M  V30 52 1 27 50
M  V30 END BOND
M  V30 END CTAB
M  END
>  <Dataset>  (342) 
ChEMBL_Kinases

>  <Ligand_Instance>  (342) 
nan

>  <PDB_ID>  (342) 
nan

>  <Standardized_SMILES>  (342) 
N[C@@H](COCc1ccccc1)COc1cncc(/C=C/c2ccncc2)c1

>  <Name>  (342) 
nan

>  <Pocket>  (342) 
nan

>  <ATP_Site>  (342) 
nan

>  <Peripheral>  (342) 
nan

>  <Num_H_Atoms_ProtBoundConf>  (342) 
nan

>  <Num_Resolved_Atoms>  (342) 
nan

>  <Num_Not_Resolved_Atoms>  (342) 
nan

$$$$
CHEMBL206233
     RDKit          3D

  0  0  0  0  0  0  0  0  0  0999 V3000
M  V30 BEGIN CTAB
M  V30 COUNTS 62 67 0 0 0
M  V30 BEGIN ATOM
M  V30 1 C -0.019894 1.426177 6.128008 0
M  V30 2 C 1.158462 1.363235 5.234098 0
M  V30 3 C 1.921428 2.511399 5.217744 0
M  V30 4 C 3.046218 2.559874 4.416479 0
M  V30 5 C 3.361818 1.449844 3.661095 0
M  V30 6 C 2.597181 0.302254 3.678983 0
M  V30 7 C 2.755632 -0.939507 2.973722 0
M  V30 8 N 3.006839 -2.117017 3.575747 0
M  V30 9 N 3.091414 -3.036104 2.633649 0
M  V30 10 C 2.895578 -2.462019 1.410353 0
M  V30 11 C 2.677900 -1.113292 1.607342 0
M  V30 12 C 2.428525 -0.159111 0.537498 0
M  V30 13 C 3.151100 0.920932 0.079607 0
M  V30 14 C 2.669231 1.670884 -0.970900 0
M  V30 15 C 1.475300 1.375341 -1.587771 0
M  V30 16 N 0.848624 1.979970 -2.613006 0
M  V30 17 C -0.305602 1.294382 -2.840642 0
M  V30 18 N -0.352710 0.288479 -1.947629 0
M  V30 19 C -1.427750 -0.681890 -1.852426 0
M  V30 20 C -2.533522 -0.258185 -0.922939 0
M  V30 21 C -3.638702 -1.288612 -0.843644 0
M  V30 22 N -4.240599 -1.521062 -2.143322 0
M  V30 23 C -5.280811 -2.506807 -2.001481 0
M  V30 24 C -5.988410 -2.363754 -3.352084 0
M  V30 25 C -6.065454 -0.875269 -3.513372 0
M  V30 26 C -4.964119 -0.367445 -2.620064 0
M  V30 27 C 0.733601 0.305527 -1.153574 0
M  V30 28 C 1.212684 -0.461153 -0.089619 0
M  V30 29 C 3.001630 -3.534409 0.393025 0
M  V30 30 C 3.791430 -4.614826 1.113229 0
M  V30 31 C 3.333279 -4.469747 2.558071 0
M  V30 32 N 1.497437 0.309468 4.488004 0
M  V30 33 H -0.418750 0.394678 6.301809 0
M  V30 34 H 0.267869 1.788203 7.149341 0
M  V30 35 H -0.799773 2.126083 5.779016 0
M  V30 36 H 1.705544 3.414818 5.802914 0
M  V30 37 H 3.691386 3.422324 4.350836 0
M  V30 38 H 4.215165 1.374118 3.002861 0
M  V30 39 H 4.064042 1.043813 0.643956 0
M  V30 40 H 3.306061 2.503265 -1.264533 0
M  V30 41 H -1.036163 1.533782 -3.605860 0
M  V30 42 H -1.862010 -0.882237 -2.850219 0
M  V30 43 H -1.063674 -1.664948 -1.460383 0
M  V30 44 H -2.972339 0.685685 -1.295777 0
M  V30 45 H -2.180325 -0.087801 0.103477 0
M  V30 46 H -3.308692 -2.252040 -0.442661 0
M  V30 47 H -4.419217 -0.890753 -0.168271 0
M  V30 48 H -4.890812 -3.528587 -1.867622 0
M  V30 49 H -6.007374 -2.203730 -1.236749 0
M  V30 50 H -5.371692 -2.785081 -4.177112 0
M  V30 51 H -6.992646 -2.786723 -3.281017 0
M  V30 52 H -5.925225 -0.573430 -4.576111 0
M  V30 53 H -7.035451 -0.487074 -3.112685 0
M  V30 54 H -4.327548 0.313064 -3.222517 0
M  V30 55 H -5.356805 0.193775 -1.742667 0
M  V30 56 H 0.524448 -1.275202 0.148669 0
M  V30 57 H 2.048972 -3.981095 0.094958 0
M  V30 58 H 3.637987 -3.227030 -0.463586 0
M  V30 59 H 4.879265 -4.491756 1.015477 0
M  V30 60 H 3.462451 -5.636890 0.795826 0
M  V30 61 H 4.109523 -4.785944 3.280484 0
M  V30 62 H 2.416861 -5.063086 2.727677 0
M  V30 END ATOM
M  V30 BEGIN BOND
M  V30 1 1 1 2
M  V30 2 2 2 3
M  V30 3 1 3 4
M  V30 4 2 4 5
M  V30 5 1 5 6
M  V30 6 1 6 7
M  V30 7 2 7 8
M  V30 8 1 8 9
M  V30 9 1 9 10
M  V30 10 2 10 11
M  V30 11 1 11 12
M  V30 12 2 12 13
M  V30 13 1 13 14
M  V30 14 2 14 15
M  V30 15 1 15 16
M  V30 16 2 16 17
M  V30 17 1 17 18
M  V30 18 1 18 19
M  V30 19 1 19 20
M  V30 20 1 20 21
M  V30 21 1 21 22
M  V30 22 1 22 23
M  V30 23 1 23 24
M  V30 24 1 24 25
M  V30 25 1 25 26
M  V30 26 1 18 27
M  V30 27 2 27 28
M  V30 28 1 10 29
M  V30 29 1 29 30
M  V30 30 1 30 31
M  V30 31 2 6 32
M  V30 32 1 32 2
M  V30 33 1 11 7
M  V30 34 1 28 12
M  V30 35 1 31 9
M  V30 36 1 27 15
M  V30 37 1 26 22
M  V30 38 1 1 33
M  V30 39 1 1 34
M  V30 40 1 1 35
M  V30 41 1 3 36
M  V30 42 1 4 37
M  V30 43 1 5 38
M  V30 44 1 13 39
M  V30 45 1 14 40
M  V30 46 1 17 41
M  V30 47 1 19 42
M  V30 48 1 19 43
M  V30 49 1 20 44
M  V30 50 1 20 45
M  V30 51 1 21 46
M  V30 52 1 21 47
M  V30 53 1 23 48
M  V30 54 1 23 49
M  V30 55 1 24 50
M  V30 56 1 24 51
M  V30 57 1 25 52
M  V30 58 1 25 53
M  V30 59 1 26 54
M  V30 60 1 26 55
M  V30 61 1 28 56
M  V30 62 1 29 57
M  V30 63 1 29 58
M  V30 64 1 30 59
M  V30 65 1 30 60
M  V30 66 1 31 61
M  V30 67 1 31 62
M  V30 END BOND
M  V30 END CTAB
M  END
>  <Dataset>  (343) 
ChEMBL_Kinases

>  <Ligand_Instance>  (343) 
nan

>  <PDB_ID>  (343) 
nan

>  <Standardized_SMILES>  (343) 
Cc1cccc(-c2nn3c(c2-c2ccc4ncn(CCCN5CCCC5)c4c2)CCC3)n1

>  <Name>  (343) 
nan

>  <Pocket>  (343) 
nan

>  <ATP_Site>  (343) 
nan

>  <Peripheral>  (343) 
nan

>  <Num_H_Atoms_ProtBoundConf>  (343) 
nan

>  <Num_Resolved_Atoms>  (343) 
nan

>  <Num_Not_Resolved_Atoms>  (343) 
nan

$$$$
CHEMBL2062275
     RDKit          3D

  0  0  0  0  0  0  0  0  0  0999 V3000
M  V30 BEGIN CTAB
M  V30 COUNTS 32 32 0 0 0
M  V30 BEGIN ATOM
M  V30 1 C -0.525068 -1.815878 3.303348 0
M  V30 2 C -1.079317 -2.580058 2.144644 0
M  V30 3 C -2.617236 -2.348582 2.229854 0
M  V30 4 N -0.704806 -2.301849 0.849016 0
M  V30 5 C 0.550606 -2.426002 0.286669 0
M  V30 6 C 1.636279 -1.446134 0.639412 0 CFG=2
M  V30 7 O 1.975520 -1.334005 1.951803 0
M  V30 8 C 1.315827 -0.159411 -0.030110 0
M  V30 9 C 1.797259 0.091509 -1.321726 0
M  V30 10 C 1.599882 1.222085 -2.086231 0
M  V30 11 C 0.842130 2.217663 -1.514881 0
M  V30 12 O 0.586628 3.389578 -2.197288 0
M  V30 13 C 0.329977 2.047791 -0.244010 0
M  V30 14 O -0.439390 3.051695 0.343040 0
M  V30 15 C 0.575513 0.886058 0.454052 0
M  V30 16 H 0.340404 -2.331804 3.797131 0
M  V30 17 H -1.304511 -1.806397 4.149178 0
M  V30 18 H -0.381204 -0.763634 3.085952 0
M  V30 19 H -0.992634 -3.676516 2.429615 0
M  V30 20 H -3.135252 -2.871673 1.408075 0
M  V30 21 H -2.711690 -1.229476 2.102298 0
M  V30 22 H -2.971848 -2.650794 3.221675 0
M  V30 23 H -1.476012 -2.002577 0.221084 0
M  V30 24 H 0.962438 -3.481698 0.280727 0
M  V30 25 H 0.413051 -2.250516 -0.843863 0
M  V30 26 H 2.548441 -1.842475 0.053689 0
M  V30 27 H 2.485468 -2.122284 2.222307 0
M  V30 28 H 2.398568 -0.684830 -1.794189 0
M  V30 29 H 2.019932 1.303973 -3.062159 0
M  V30 30 H -0.370541 3.745442 -2.330707 0
M  V30 31 H -0.136752 4.030491 0.222167 0
M  V30 32 H 0.166223 0.796009 1.436802 0
M  V30 END ATOM
M  V30 BEGIN BOND
M  V30 1 1 1 2
M  V30 2 1 2 3
M  V30 3 1 2 4
M  V30 4 1 4 5
M  V30 5 1 5 6
M  V30 6 1 6 7
M  V30 7 1 6 8
M  V30 8 2 8 9
M  V30 9 1 9 10
M  V30 10 2 10 11
M  V30 11 1 11 12
M  V30 12 1 11 13
M  V30 13 1 13 14
M  V30 14 2 13 15
M  V30 15 1 15 8
M  V30 16 1 1 16
M  V30 17 1 1 17
M  V30 18 1 1 18
M  V30 19 1 2 19
M  V30 20 1 3 20
M  V30 21 1 3 21
M  V30 22 1 3 22
M  V30 23 1 4 23
M  V30 24 1 5 24
M  V30 25 1 5 25
M  V30 26 1 6 26 CFG=3
M  V30 27 1 7 27
M  V30 28 1 9 28
M  V30 29 1 10 29
M  V30 30 1 12 30
M  V30 31 1 14 31
M  V30 32 1 15 32
M  V30 END BOND
M  V30 END CTAB
M  END
>  <Dataset>  (344) 
ChEMBL_Kinases

>  <Ligand_Instance>  (344) 
nan

>  <PDB_ID>  (344) 
nan

>  <Standardized_SMILES>  (344) 
CC(C)NC[C@H](O)c1ccc(O)c(O)c1

>  <Name>  (344) 
nan

>  <Pocket>  (344) 
nan

>  <ATP_Site>  (344) 
nan

>  <Peripheral>  (344) 
nan

>  <Num_H_Atoms_ProtBoundConf>  (344) 
nan

>  <Num_Resolved_Atoms>  (344) 
nan

>  <Num_Not_Resolved_Atoms>  (344) 
nan

$$$$
CHEMBL206213
     RDKit          3D

  0  0  0  0  0  0  0  0  0  0999 V3000
M  V30 BEGIN CTAB
M  V30 COUNTS 48 49 0 0 0
M  V30 BEGIN ATOM
M  V30 1 C -0.212737 -0.361359 6.739035 0
M  V30 2 C 0.476098 -1.655449 7.085287 0
M  V30 3 O 1.759818 -1.624214 6.544527 0
M  V30 4 C 1.641254 -1.482753 5.175227 0
M  V30 5 C 2.968382 -1.435098 4.450911 0
M  V30 6 C 2.644281 -1.280462 3.002927 0
M  V30 7 O 1.419154 -1.226205 2.693796 0
M  V30 8 N 3.590382 -1.188930 1.943486 0
M  V30 9 C 2.843429 -1.049016 0.716457 0
M  V30 10 C 2.556336 0.246382 0.346165 0
M  V30 11 C 1.842169 0.366528 -0.827111 0
M  V30 12 O 1.495574 1.614329 -1.299407 0
M  V30 13 C 1.864209 2.781104 -0.593851 0
M  V30 14 C 1.479093 -0.761614 -1.519853 0
M  V30 15 N 0.730107 -0.580245 -2.743368 0
M  V30 16 C -0.641001 -0.546583 -2.729508 0
M  V30 17 O -1.229148 -0.683338 -1.588667 0
M  V30 18 N -2.006245 -0.506202 -2.766535 0
M  V30 19 C -3.332358 -0.419127 -3.178289 0
M  V30 20 C -3.976529 -1.606065 -3.543904 0
M  V30 21 N -5.291269 -1.496852 -3.933096 0
M  V30 22 C -5.817553 -0.232450 -3.916739 0
M  V30 23 C -7.182525 -0.161454 -4.332948 0
M  V30 24 N -8.286745 -0.086841 -4.661762 0
M  V30 25 C -5.197497 0.940059 -3.560495 0
M  V30 26 N -3.896287 0.823079 -3.176607 0
M  V30 27 C 1.794029 -2.063108 -1.103301 0
M  V30 28 C 2.507894 -2.214646 0.066570 0
M  V30 29 Cl 2.970711 -3.769435 0.705871 0
M  V30 30 H -0.929821 -0.154559 7.568061 0
M  V30 31 H -0.729520 -0.456590 5.772652 0
M  V30 32 H 0.549837 0.459451 6.765213 0
M  V30 33 H -0.134123 -2.487689 6.661335 0
M  V30 34 H 0.508234 -1.827474 8.188377 0
M  V30 35 H 1.129378 -0.505814 4.941463 0
M  V30 36 H 1.048223 -2.279376 4.690278 0
M  V30 37 H 3.614431 -0.633546 4.841464 0
M  V30 38 H 3.451205 -2.419475 4.591608 0
M  V30 39 H 4.590503 -1.234589 2.208764 0
M  V30 40 H 2.877325 1.085850 0.945421 0
M  V30 41 H 1.106750 2.973142 0.207798 0
M  V30 42 H 2.896125 2.759057 -0.217787 0
M  V30 43 H 1.832987 3.640931 -1.324961 0
M  V30 44 H 0.732400 -0.440088 -3.802918 0
M  V30 45 H -1.641242 -0.383410 -3.768088 0
M  V30 46 H -3.431391 -2.529896 -3.507231 0
M  V30 47 H -5.737070 1.864355 -3.595485 0
M  V30 48 H 1.496770 -2.937526 -1.666056 0
M  V30 END ATOM
M  V30 BEGIN BOND
M  V30 1 1 1 2
M  V30 2 1 2 3
M  V30 3 1 3 4
M  V30 4 1 4 5
M  V30 5 1 5 6
M  V30 6 2 6 7
M  V30 7 1 6 8
M  V30 8 1 8 9
M  V30 9 2 9 10
M  V30 10 1 10 11
M  V30 11 1 11 12
M  V30 12 1 12 13
M  V30 13 2 11 14
M  V30 14 1 14 15
M  V30 15 1 15 16
M  V30 16 2 16 17
M  V30 17 1 16 18
M  V30 18 1 18 19
M  V30 19 2 19 20
M  V30 20 1 20 21
M  V30 21 2 21 22
M  V30 22 1 22 23
M  V30 23 3 23 24
M  V30 24 1 22 25
M  V30 25 2 25 26
M  V30 26 1 14 27
M  V30 27 2 27 28
M  V30 28 1 28 29
M  V30 29 1 28 9
M  V30 30 1 26 19
M  V30 31 1 1 30
M  V30 32 1 1 31
M  V30 33 1 1 32
M  V30 34 1 2 33
M  V30 35 1 2 34
M  V30 36 1 4 35
M  V30 37 1 4 36
M  V30 38 1 5 37
M  V30 39 1 5 38
M  V30 40 1 8 39
M  V30 41 1 10 40
M  V30 42 1 13 41
M  V30 43 1 13 42
M  V30 44 1 13 43
M  V30 45 1 15 44
M  V30 46 1 18 45
M  V30 47 1 20 46
M  V30 48 1 25 47
M  V30 49 1 27 48
M  V30 END BOND
M  V30 END CTAB
M  END
>  <Dataset>  (345) 
ChEMBL_Kinases

>  <Ligand_Instance>  (345) 
nan

>  <PDB_ID>  (345) 
nan

>  <Standardized_SMILES>  (345) 
CCOCCC(=O)Nc1cc(OC)c(NC(=O)Nc2cnc(C#N)cn2)cc1Cl

>  <Name>  (345) 
nan

>  <Pocket>  (345) 
nan

>  <ATP_Site>  (345) 
nan

>  <Peripheral>  (345) 
nan

>  <Num_H_Atoms_ProtBoundConf>  (345) 
nan

>  <Num_Resolved_Atoms>  (345) 
nan

>  <Num_Not_Resolved_Atoms>  (345) 
nan

$$$$
CHEMBL206208
     RDKit          3D

  0  0  0  0  0  0  0  0  0  0999 V3000
M  V30 BEGIN CTAB
M  V30 COUNTS 48 51 0 0 0
M  V30 BEGIN ATOM
M  V30 1 N 0.925221 -2.090451 1.590080 0
M  V30 2 C 0.878708 -3.145974 0.628314 0 CFG=2
M  V30 3 C 0.629196 -2.728332 -0.780504 0
M  V30 4 O 1.532092 -1.913191 -1.392500 0
M  V30 5 C 2.030259 -0.684656 -1.249449 0
M  V30 6 C 2.969315 -0.549465 -2.293005 0
M  V30 7 N 3.703755 0.594708 -2.484162 0
M  V30 8 C 3.538289 1.650226 -1.651383 0
M  V30 9 C 2.638087 1.581274 -0.615584 0
M  V30 10 C 2.370584 2.627647 0.330994 0
M  V30 11 C 2.130787 3.515536 1.114219 0
M  V30 12 C 1.823496 4.577455 2.035844 0
M  V30 13 C 2.620423 4.889020 3.118299 0
M  V30 14 C 2.181480 5.934790 3.901942 0
M  V30 15 N 1.064474 6.616667 3.652928 0
M  V30 16 C 0.287215 6.326722 2.612951 0
M  V30 17 C 0.657751 5.291262 1.778159 0
M  V30 18 C 1.919584 0.426588 -0.449817 0
M  V30 19 C 0.007275 -4.272296 1.082181 0
M  V30 20 C -1.395665 -3.968669 1.340886 0
M  V30 21 C -1.859669 -3.711892 2.639839 0
M  V30 22 N -3.172232 -3.433323 2.663403 0
M  V30 23 C -3.633301 -3.491222 1.405919 0
M  V30 24 C -4.880029 -3.312481 0.807145 0
M  V30 25 C -4.991352 -3.467447 -0.563101 0
M  V30 26 C -3.918919 -3.789908 -1.347439 0
M  V30 27 C -2.696912 -3.965401 -0.767276 0
M  V30 28 C -2.543440 -3.819789 0.594777 0
M  V30 29 H 1.692050 -2.221986 2.252163 0
M  V30 30 H 0.002854 -1.914792 2.055390 0
M  V30 31 H 1.936512 -3.588186 0.644695 0
M  V30 32 H -0.425126 -2.323473 -0.812030 0
M  V30 33 H 0.555568 -3.682119 -1.380168 0
M  V30 34 H 3.297644 -1.229663 -3.094683 0
M  V30 35 H 4.071172 2.574536 -1.732817 0
M  V30 36 H 3.519495 4.313543 3.290497 0
M  V30 37 H 2.756720 6.222514 4.752790 0
M  V30 38 H -0.629152 6.870735 2.391080 0
M  V30 39 H 0.012628 5.066558 0.932436 0
M  V30 40 H 1.184275 0.264416 0.311873 0
M  V30 41 H 0.487245 -4.734262 1.977689 0
M  V30 42 H 0.095459 -5.069871 0.292439 0
M  V30 43 H -1.262052 -3.723918 3.565525 0
M  V30 44 H -3.740317 -3.209574 3.508732 0
M  V30 45 H -5.670771 -3.059305 1.501306 0
M  V30 46 H -6.014501 -3.298467 -0.883244 0
M  V30 47 H -4.108376 -3.889041 -2.408657 0
M  V30 48 H -1.833775 -4.222253 -1.373949 0
M  V30 END ATOM
M  V30 BEGIN BOND
M  V30 1 1 1 2
M  V30 2 1 2 3
M  V30 3 1 3 4
M  V30 4 1 4 5
M  V30 5 2 5 6
M  V30 6 1 6 7
M  V30 7 2 7 8
M  V30 8 1 8 9
M  V30 9 1 9 10
M  V30 10 3 10 11
M  V30 11 1 11 12
M  V30 12 2 12 13
M  V30 13 1 13 14
M  V30 14 2 14 15
M  V30 15 1 15 16
M  V30 16 2 16 17
M  V30 17 2 9 18
M  V30 18 1 2 19
M  V30 19 1 19 20
M  V30 20 2 20 21
M  V30 21 1 21 22
M  V30 22 1 22 23
M  V30 23 2 23 24
M  V30 24 1 24 25
M  V30 25 2 25 26
M  V30 26 1 26 27
M  V30 27 2 27 28
M  V30 28 1 18 5
M  V30 29 1 28 20
M  V30 30 1 17 12
M  V30 31 1 28 23
M  V30 32 1 1 29
M  V30 33 1 1 30
M  V30 34 1 2 31 CFG=3
M  V30 35 1 3 32
M  V30 36 1 3 33
M  V30 37 1 6 34
M  V30 38 1 8 35
M  V30 39 1 13 36
M  V30 40 1 14 37
M  V30 41 1 16 38
M  V30 42 1 17 39
M  V30 43 1 18 40
M  V30 44 1 19 41
M  V30 45 1 19 42
M  V30 46 1 21 43
M  V30 47 1 22 44
M  V30 48 1 24 45
M  V30 49 1 25 46
M  V30 50 1 26 47
M  V30 51 1 27 48
M  V30 END BOND
M  V30 END CTAB
M  END
>  <Dataset>  (346) 
ChEMBL_Kinases

>  <Ligand_Instance>  (346) 
nan

>  <PDB_ID>  (346) 
nan

>  <Standardized_SMILES>  (346) 
N[C@H](COc1cncc(C#Cc2ccncc2)c1)Cc1c[nH]c2ccccc12

>  <Name>  (346) 
nan

>  <Pocket>  (346) 
nan

>  <ATP_Site>  (346) 
nan

>  <Peripheral>  (346) 
nan

>  <Num_H_Atoms_ProtBoundConf>  (346) 
nan

>  <Num_Resolved_Atoms>  (346) 
nan

>  <Num_Not_Resolved_Atoms>  (346) 
nan

$$$$
CHEMBL206198
     RDKit          3D

  0  0  0  0  0  0  0  0  0  0999 V3000
M  V30 BEGIN CTAB
M  V30 COUNTS 50 53 0 0 0
M  V30 BEGIN ATOM
M  V30 1 N -3.065649 1.113307 -0.651133 0
M  V30 2 C -1.978851 0.264068 -1.102092 0 CFG=2
M  V30 3 C -1.334902 0.908704 -2.293837 0
M  V30 4 O -0.262094 0.226367 -2.854049 0
M  V30 5 C 0.920035 -0.045557 -2.240949 0
M  V30 6 C 1.535297 0.171599 -1.041936 0
M  V30 7 C 2.806858 -0.289037 -0.798711 0
M  V30 8 C 3.393183 -0.018407 0.504661 0
M  V30 9 C 2.843281 0.630415 1.513916 0
M  V30 10 C 3.455556 0.887519 2.811519 0
M  V30 11 C 2.783059 1.579299 3.800001 0
M  V30 12 C 3.326408 1.838906 5.029124 0
M  V30 13 N 4.569144 1.415584 5.320757 0
M  V30 14 C 5.284128 0.734530 4.404743 0
M  V30 15 C 4.718470 0.483495 3.172740 0
M  V30 16 C 3.521437 -0.987714 -1.745193 0
M  V30 17 N 2.938183 -1.217702 -2.943212 0
M  V30 18 C 1.671551 -0.761835 -3.191536 0
M  V30 19 Cl 1.234014 -1.236874 -4.834076 0
M  V30 20 C -2.659438 -1.040113 -1.551426 0
M  V30 21 C -3.381845 -1.636625 -0.403468 0
M  V30 22 C -4.717877 -1.721991 -0.004143 0
M  V30 23 N -4.760828 -2.405223 1.164630 0
M  V30 24 C -3.523901 -2.757153 1.527012 0
M  V30 25 C -3.120007 -3.468125 2.657089 0
M  V30 26 C -1.772974 -3.729588 2.843859 0
M  V30 27 C -0.858162 -3.274763 1.896927 0
M  V30 28 C -1.315207 -2.579628 0.803884 0
M  V30 29 C -2.654746 -2.298734 0.582779 0
M  V30 30 H -2.744612 2.095423 -0.582638 0
M  V30 31 H -3.453253 0.822852 0.269618 0
M  V30 32 H -1.270006 0.013158 -0.333906 0
M  V30 33 H -0.996656 1.951102 -2.010233 0
M  V30 34 H -2.138381 1.098808 -3.062193 0
M  V30 35 H 0.905657 0.728241 -0.392320 0
M  V30 36 H 4.393326 -0.376134 0.703646 0
M  V30 37 H 1.847855 1.002779 1.358347 0
M  V30 38 H 1.769043 1.930664 3.576815 0
M  V30 39 H 2.700666 2.398194 5.739919 0
M  V30 40 H 6.297123 0.390325 4.644469 0
M  V30 41 H 5.320460 -0.059358 2.476587 0
M  V30 42 H 4.522210 -1.317214 -1.471770 0
M  V30 43 H -1.852059 -1.701301 -1.896350 0
M  V30 44 H -3.312873 -0.765654 -2.393952 0
M  V30 45 H -5.460287 -1.255922 -0.653810 0
M  V30 46 H -5.691303 -2.564510 1.612765 0
M  V30 47 H -3.814789 -3.831346 3.406747 0
M  V30 48 H -1.351329 -4.275486 3.689987 0
M  V30 49 H 0.219029 -3.467730 2.018545 0
M  V30 50 H -0.582423 -2.243052 0.091111 0
M  V30 END ATOM
M  V30 BEGIN BOND
M  V30 1 1 1 2
M  V30 2 1 2 3
M  V30 3 1 3 4
M  V30 4 1 4 5
M  V30 5 2 5 6
M  V30 6 1 6 7
M  V30 7 1 7 8
M  V30 8 2 8 9
M  V30 9 1 9 10
M  V30 10 2 10 11
M  V30 11 1 11 12
M  V30 12 2 12 13
M  V30 13 1 13 14
M  V30 14 2 14 15
M  V30 15 2 7 16
M  V30 16 1 16 17
M  V30 17 2 17 18
M  V30 18 1 18 19
M  V30 19 1 2 20
M  V30 20 1 20 21
M  V30 21 2 21 22
M  V30 22 1 22 23
M  V30 23 1 23 24
M  V30 24 2 24 25
M  V30 25 1 25 26
M  V30 26 2 26 27
M  V30 27 1 27 28
M  V30 28 2 28 29
M  V30 29 1 18 5
M  V30 30 1 29 21
M  V30 31 1 15 10
M  V30 32 1 29 24
M  V30 33 1 1 30
M  V30 34 1 1 31
M  V30 35 1 2 32 CFG=1
M  V30 36 1 3 33
M  V30 37 1 3 34
M  V30 38 1 6 35
M  V30 39 1 8 36
M  V30 40 1 9 37
M  V30 41 1 11 38
M  V30 42 1 12 39
M  V30 43 1 14 40
M  V30 44 1 15 41
M  V30 45 1 16 42
M  V30 46 1 20 43
M  V30 47 1 20 44
M  V30 48 1 22 45
M  V30 49 1 23 46
M  V30 50 1 25 47
M  V30 51 1 26 48
M  V30 52 1 27 49
M  V30 53 1 28 50
M  V30 END BOND
M  V30 END CTAB
M  END
>  <Dataset>  (347) 
ChEMBL_Kinases

>  <Ligand_Instance>  (347) 
nan

>  <PDB_ID>  (347) 
nan

>  <Standardized_SMILES>  (347) 
N[C@H](COc1cc(/C=C/c2ccncc2)cnc1Cl)Cc1c[nH]c2ccccc12

>  <Name>  (347) 
nan

>  <Pocket>  (347) 
nan

>  <ATP_Site>  (347) 
nan

>  <Peripheral>  (347) 
nan

>  <Num_H_Atoms_ProtBoundConf>  (347) 
nan

>  <Num_Resolved_Atoms>  (347) 
nan

>  <Num_Not_Resolved_Atoms>  (347) 
nan

$$$$
CHEMBL206187
     RDKit          3D

  0  0  0  0  0  0  0  0  0  0999 V3000
M  V30 BEGIN CTAB
M  V30 COUNTS 42 45 0 0 0
M  V30 BEGIN ATOM
M  V30 1 N -1.839147 -3.366052 0.279638 0
M  V30 2 C -0.645562 -2.726813 0.734279 0
M  V30 3 C -0.270337 -1.419963 0.959270 0
M  V30 4 C -1.224127 -0.351034 0.723259 0
M  V30 5 O -2.401374 -0.689296 0.355209 0
M  V30 6 C -1.083286 1.086982 0.832738 0
M  V30 7 C -2.207441 1.844036 1.141378 0
M  V30 8 C -2.136191 3.233486 1.252807 0
M  V30 9 C -0.955909 3.919574 1.063697 0
M  V30 10 C 0.162032 3.198745 0.759364 0
M  V30 11 C 1.448388 3.865440 0.546996 0
M  V30 12 C 1.772627 5.025114 1.226989 0
M  V30 13 C 2.996488 5.642659 1.012580 0
M  V30 14 N 3.837580 5.062628 0.122273 0
M  V30 15 C 3.537456 3.939326 -0.544040 0
M  V30 16 C 2.324835 3.274829 -0.370543 0
M  V30 17 C 0.061312 1.831231 0.656040 0
M  V30 18 C 1.032140 -1.432727 1.402706 0
M  V30 19 N 1.432426 -2.729819 1.442694 0
M  V30 20 N 0.434978 -3.504742 1.044892 0
M  V30 21 C 0.573064 -4.919444 0.986711 0
M  V30 22 C 1.418556 -5.286067 -0.053268 0
M  V30 23 C 1.709720 -6.628922 -0.310103 0
M  V30 24 C 1.120657 -7.565630 0.513555 0
M  V30 25 F 1.370783 -8.889456 0.306918 0
M  V30 26 C 0.277403 -7.217645 1.552137 0
M  V30 27 C 0.008303 -5.880640 1.781621 0
M  V30 28 F -0.795700 -5.379991 2.758070 0
M  V30 29 H -2.666073 -3.613977 0.890735 0
M  V30 30 H -1.726052 -3.533642 -0.761695 0
M  V30 31 H -3.165918 1.375542 1.302872 0
M  V30 32 H -3.017725 3.834440 1.495469 0
M  V30 33 H -0.893330 4.983523 1.147418 0
M  V30 34 H 1.054992 5.450676 1.935219 0
M  V30 35 H 3.215826 6.547865 1.561872 0
M  V30 36 H 4.310399 3.592941 -1.224077 0
M  V30 37 H 2.130558 2.384518 -0.922508 0
M  V30 38 H 0.968472 1.304865 0.405506 0
M  V30 39 H 1.606354 -0.561514 1.668222 0
M  V30 40 H 1.928838 -4.611537 -0.755564 0
M  V30 41 H 2.360983 -6.961572 -1.107201 0
M  V30 42 H -0.202105 -7.920483 2.217578 0
M  V30 END ATOM
M  V30 BEGIN BOND
M  V30 1 1 1 2
M  V30 2 2 2 3
M  V30 3 1 3 4
M  V30 4 2 4 5
M  V30 5 1 4 6
M  V30 6 2 6 7
M  V30 7 1 7 8
M  V30 8 2 8 9
M  V30 9 1 9 10
M  V30 10 1 10 11
M  V30 11 2 11 12
M  V30 12 1 12 13
M  V30 13 2 13 14
M  V30 14 1 14 15
M  V30 15 2 15 16
M  V30 16 2 10 17
M  V30 17 1 3 18
M  V30 18 2 18 19
M  V30 19 1 19 20
M  V30 20 1 20 21
M  V30 21 2 21 22
M  V30 22 1 22 23
M  V30 23 2 23 24
M  V30 24 1 24 25
M  V30 25 1 24 26
M  V30 26 2 26 27
M  V30 27 1 27 28
M  V30 28 1 20 2
M  V30 29 1 27 21
M  V30 30 1 17 6
M  V30 31 1 16 11
M  V30 32 1 1 29
M  V30 33 1 1 30
M  V30 34 1 7 31
M  V30 35 1 8 32
M  V30 36 1 9 33
M  V30 37 1 12 34
M  V30 38 1 13 35
M  V30 39 1 15 36
M  V30 40 1 16 37
M  V30 41 1 17 38
M  V30 42 1 18 39
M  V30 43 1 22 40
M  V30 44 1 23 41
M  V30 45 1 26 42
M  V30 END BOND
M  V30 END CTAB
M  END
>  <Dataset>  (348) 
ChEMBL_Kinases

>  <Ligand_Instance>  (348) 
nan

>  <PDB_ID>  (348) 
nan

>  <Standardized_SMILES>  (348) 
Nc1c(C(=O)c2cccc(-c3ccncc3)c2)cnn1-c1ccc(F)cc1F

>  <Name>  (348) 
nan

>  <Pocket>  (348) 
nan

>  <ATP_Site>  (348) 
nan

>  <Peripheral>  (348) 
nan

>  <Num_H_Atoms_ProtBoundConf>  (348) 
nan

>  <Num_Resolved_Atoms>  (348) 
nan

>  <Num_Not_Resolved_Atoms>  (348) 
nan

$$$$
CHEMBL206183
     RDKit          3D

  0  0  0  0  0  0  0  0  0  0999 V3000
M  V30 BEGIN CTAB
M  V30 COUNTS 49 52 0 0 0
M  V30 BEGIN ATOM
M  V30 1 N -0.933610 -1.025163 0.535504 0
M  V30 2 C -1.121049 -2.045357 -0.430295 0 CFG=2
M  V30 3 C -0.435156 -1.877394 -1.747414 0
M  V30 4 O 0.921053 -1.796031 -1.778658 0
M  V30 5 C 1.875899 -0.973719 -1.304129 0
M  V30 6 C 3.073792 -1.577078 -1.748976 0
M  V30 7 N 4.319473 -1.063419 -1.486459 0
M  V30 8 C 4.412080 0.088603 -0.758965 0
M  V30 9 C 3.276211 0.718069 -0.300925 0
M  V30 10 C 3.299211 1.946949 0.476727 0
M  V30 11 C 2.305743 2.630735 0.970624 0
M  V30 12 C 2.401431 3.859276 1.743167 0
M  V30 13 C 3.585177 4.485542 2.064311 0
M  V30 14 C 3.677620 5.654979 2.800622 0
M  V30 15 N 2.541773 6.232616 3.240613 0
M  V30 16 C 1.374023 5.642007 2.941147 0
M  V30 17 C 1.264931 4.480431 2.210820 0
M  V30 18 C 2.045263 0.180359 -0.579979 0
M  V30 19 C -2.599783 -2.311862 -0.716225 0
M  V30 20 C -3.320448 -2.738156 0.508502 0
M  V30 21 C -4.157037 -1.726185 1.152140 0
M  V30 22 S -4.878079 -2.611709 2.620553 0
M  V30 23 C -4.068794 -4.127124 2.276882 0
M  V30 24 C -4.131420 -5.298114 2.972586 0
M  V30 25 C -3.426536 -6.418332 2.568564 0
M  V30 26 C -2.688407 -6.204108 1.424626 0
M  V30 27 C -2.602180 -5.038362 0.698735 0
M  V30 28 C -3.321789 -3.952126 1.141606 0
M  V30 29 H -1.797596 -0.405504 0.537859 0
M  V30 30 H -0.810390 -1.355477 1.524757 0
M  V30 31 H -0.747955 -3.012631 0.016368 0
M  V30 32 H -0.936985 -1.047955 -2.356702 0
M  V30 33 H -0.723378 -2.808640 -2.342972 0
M  V30 34 H 3.298531 -2.486222 -2.338120 0
M  V30 35 H 5.332586 0.573729 -0.497722 0
M  V30 36 H 4.288530 2.350741 0.672732 0
M  V30 37 H 1.323992 2.225578 0.773688 0
M  V30 38 H 4.516843 4.060589 1.734382 0
M  V30 39 H 4.631736 6.115439 3.031340 0
M  V30 40 H 0.463805 6.108838 3.296634 0
M  V30 41 H 0.278329 4.083424 2.022754 0
M  V30 42 H 1.078922 0.548767 -0.311062 0
M  V30 43 H -2.633405 -3.176903 -1.432828 0
M  V30 44 H -3.088988 -1.489080 -1.225891 0
M  V30 45 H -4.298188 -0.674304 0.802921 0
M  V30 46 H -4.744309 -5.342309 3.852752 0
M  V30 47 H -3.444769 -7.364474 3.085296 0
M  V30 48 H -2.116281 -7.082882 1.080473 0
M  V30 49 H -1.967519 -5.063502 -0.176765 0
M  V30 END ATOM
M  V30 BEGIN BOND
M  V30 1 1 1 2
M  V30 2 1 2 3
M  V30 3 1 3 4
M  V30 4 1 4 5
M  V30 5 2 5 6
M  V30 6 1 6 7
M  V30 7 2 7 8
M  V30 8 1 8 9
M  V30 9 1 9 10
M  V30 10 2 10 11
M  V30 11 1 11 12
M  V30 12 2 12 13
M  V30 13 1 13 14
M  V30 14 2 14 15
M  V30 15 1 15 16
M  V30 16 2 16 17
M  V30 17 2 9 18
M  V30 18 1 2 19
M  V30 19 1 19 20
M  V30 20 2 20 21
M  V30 21 1 21 22
M  V30 22 1 22 23
M  V30 23 2 23 24
M  V30 24 1 24 25
M  V30 25 2 25 26
M  V30 26 1 26 27
M  V30 27 2 27 28
M  V30 28 1 18 5
M  V30 29 1 28 20
M  V30 30 1 17 12
M  V30 31 1 28 23
M  V30 32 1 1 29
M  V30 33 1 1 30
M  V30 34 1 2 31 CFG=1
M  V30 35 1 3 32
M  V30 36 1 3 33
M  V30 37 1 6 34
M  V30 38 1 8 35
M  V30 39 1 10 36
M  V30 40 1 11 37
M  V30 41 1 13 38
M  V30 42 1 14 39
M  V30 43 1 16 40
M  V30 44 1 17 41
M  V30 45 1 18 42
M  V30 46 1 19 43
M  V30 47 1 19 44
M  V30 48 1 21 45
M  V30 49 1 24 46
M  V30 50 1 25 47
M  V30 51 1 26 48
M  V30 52 1 27 49
M  V30 END BOND
M  V30 END CTAB
M  END
>  <Dataset>  (349) 
ChEMBL_Kinases

>  <Ligand_Instance>  (349) 
nan

>  <PDB_ID>  (349) 
nan

>  <Standardized_SMILES>  (349) 
N[C@H](COc1cncc(/C=C/c2ccncc2)c1)Cc1csc2ccccc12

>  <Name>  (349) 
nan

>  <Pocket>  (349) 
nan

>  <ATP_Site>  (349) 
nan

>  <Peripheral>  (349) 
nan

>  <Num_H_Atoms_ProtBoundConf>  (349) 
nan

>  <Num_Resolved_Atoms>  (349) 
nan

>  <Num_Not_Resolved_Atoms>  (349) 
nan

$$$$
CHEMBL206179
     RDKit          3D

  0  0  0  0  0  0  0  0  0  0999 V3000
M  V30 BEGIN CTAB
M  V30 COUNTS 49 52 0 0 0
M  V30 BEGIN ATOM
M  V30 1 N -1.235640 -7.208931 -1.167286 0
M  V30 2 C -0.741215 -5.874104 -1.143483 0
M  V30 3 C 0.584648 -5.691060 -0.840840 0
M  V30 4 C 1.035198 -4.386304 -0.827361 0
M  V30 5 C 0.169428 -3.325013 -1.109341 0
M  V30 6 C 0.752119 -1.969538 -1.073255 0
M  V30 7 C 2.075434 -1.898246 -1.452908 0
M  V30 8 N 2.653914 -0.670387 -1.434480 0
M  V30 9 C 1.952142 0.414801 -1.060125 0
M  V30 10 C 0.632401 0.415853 -0.670052 0
M  V30 11 O -0.122140 1.473461 -0.283600 0
M  V30 12 C 0.159982 2.808662 -0.153125 0
M  V30 13 C 1.193846 3.239454 0.810844 0 CFG=1
M  V30 14 N 1.253261 4.731775 0.624361 0
M  V30 15 C 0.901416 3.104787 2.262266 0
M  V30 16 C 0.599535 1.792958 2.801256 0
M  V30 17 C 1.512823 0.941691 3.429524 0
M  V30 18 N 0.851777 -0.201252 3.777681 0
M  V30 19 C -0.427442 -0.143510 3.416376 0
M  V30 20 C -1.495890 -1.024887 3.552254 0
M  V30 21 C -2.750359 -0.702992 3.091478 0
M  V30 22 C -2.939433 0.507747 2.490547 0
M  V30 23 C -1.872847 1.360776 2.366563 0
M  V30 24 C -0.592404 1.101013 2.804849 0
M  V30 25 C 0.030602 -0.839228 -0.686010 0
M  V30 26 C -1.144623 -3.518998 -1.407728 0
M  V30 27 C -1.627656 -4.834161 -1.428967 0
M  V30 28 H -1.604968 -7.956343 -1.772751 0
M  V30 29 H -1.235495 -7.624971 -0.190222 0
M  V30 30 H 1.211942 -6.545535 -0.631066 0
M  V30 31 H 2.097234 -4.279191 -0.581430 0
M  V30 32 H 2.685078 -2.731528 -1.762791 0
M  V30 33 H 2.491493 1.328944 -1.086396 0
M  V30 34 H -0.795656 3.340328 0.134444 0
M  V30 35 H 0.423696 3.268851 -1.140735 0
M  V30 36 H 2.226248 2.919185 0.597533 0
M  V30 37 H 2.029457 5.044008 1.257781 0
M  V30 38 H 0.367455 5.057455 1.077704 0
M  V30 39 H 1.799327 3.566629 2.784956 0
M  V30 40 H 0.091656 3.865926 2.501063 0
M  V30 41 H 2.569621 1.121797 3.624326 0
M  V30 42 H 1.236050 -1.061443 4.270579 0
M  V30 43 H -1.376570 -1.988853 4.022473 0
M  V30 44 H -3.634236 -1.324926 3.154321 0
M  V30 45 H -3.897975 0.831303 2.103260 0
M  V30 46 H -2.024756 2.316686 1.895005 0
M  V30 47 H -0.997557 -1.066630 -0.418157 0
M  V30 48 H -1.818102 -2.711939 -1.626557 0
M  V30 49 H -2.659920 -5.081570 -1.657180 0
M  V30 END ATOM
M  V30 BEGIN BOND
M  V30 1 1 1 2
M  V30 2 2 2 3
M  V30 3 1 3 4
M  V30 4 2 4 5
M  V30 5 1 5 6
M  V30 6 2 6 7
M  V30 7 1 7 8
M  V30 8 2 8 9
M  V30 9 1 9 10
M  V30 10 1 10 11
M  V30 11 1 11 12
M  V30 12 1 12 13
M  V30 13 1 13 14
M  V30 14 1 13 15
M  V30 15 1 15 16
M  V30 16 2 16 17
M  V30 17 1 17 18
M  V30 18 1 18 19
M  V30 19 2 19 20
M  V30 20 1 20 21
M  V30 21 2 21 22
M  V30 22 1 22 23
M  V30 23 2 23 24
M  V30 24 2 10 25
M  V30 25 1 5 26
M  V30 26 2 26 27
M  V30 27 1 27 2
M  V30 28 1 25 6
M  V30 29 1 24 16
M  V30 30 1 24 19
M  V30 31 1 1 28
M  V30 32 1 1 29
M  V30 33 1 3 30
M  V30 34 1 4 31
M  V30 35 1 7 32
M  V30 36 1 9 33
M  V30 37 1 12 34
M  V30 38 1 12 35
M  V30 39 1 13 36 CFG=3
M  V30 40 1 14 37
M  V30 41 1 14 38
M  V30 42 1 15 39
M  V30 43 1 15 40
M  V30 44 1 17 41
M  V30 45 1 18 42
M  V30 46 1 20 43
M  V30 47 1 21 44
M  V30 48 1 22 45
M  V30 49 1 23 46
M  V30 50 1 25 47
M  V30 51 1 26 48
M  V30 52 1 27 49
M  V30 END BOND
M  V30 END CTAB
M  END
>  <Dataset>  (350) 
ChEMBL_Kinases

>  <Ligand_Instance>  (350) 
nan

>  <PDB_ID>  (350) 
nan

>  <Standardized_SMILES>  (350) 
Nc1ccc(-c2cncc(OC[C@@H](N)Cc3c[nH]c4ccccc34)c2)cc1

>  <Name>  (350) 
nan

>  <Pocket>  (350) 
nan

>  <ATP_Site>  (350) 
nan

>  <Peripheral>  (350) 
nan

>  <Num_H_Atoms_ProtBoundConf>  (350) 
nan

>  <Num_Resolved_Atoms>  (350) 
nan

>  <Num_Not_Resolved_Atoms>  (350) 
nan

$$$$
CHEMBL206143
     RDKit          3D

  0  0  0  0  0  0  0  0  0  0999 V3000
M  V30 BEGIN CTAB
M  V30 COUNTS 55 57 0 0 0
M  V30 BEGIN ATOM
M  V30 1 C 3.601526 -0.171417 6.110821 0
M  V30 2 O 3.236717 -0.806574 4.897427 0
M  V30 3 C 3.375077 -0.131298 3.672307 0
M  V30 4 C 3.858527 1.153913 3.540848 0
M  V30 5 C 3.961097 1.748783 2.289131 0
M  V30 6 C 3.578023 1.062617 1.129896 0
M  V30 7 C 3.792573 1.906598 -0.064091 0
M  V30 8 C 2.666601 2.851163 -0.365045 0
M  V30 9 C 1.422942 2.105232 -0.608939 0
M  V30 10 O 0.955232 0.924326 -0.702616 0
M  V30 11 N 0.225669 2.896618 -0.837395 0
M  V30 12 C -0.839612 1.934875 -1.044686 0
M  V30 13 C -1.574181 1.537150 0.054046 0
M  V30 14 C -2.577574 0.615136 -0.155865 0
M  V30 15 O -3.386486 0.139243 0.878994 0
M  V30 16 C -3.153436 0.632476 2.184886 0
M  V30 17 C -2.807325 0.131616 -1.431340 0
M  V30 18 N -3.828547 -0.829927 -1.759457 0
M  V30 19 C -3.377730 -2.168959 -1.632585 0
M  V30 20 O -2.157793 -2.292742 -1.253302 0
M  V30 21 N -4.033126 -3.406857 -1.848676 0
M  V30 22 C -3.410778 -4.663663 -1.658873 0
M  V30 23 C -3.614140 -5.085872 -0.343690 0
M  V30 24 N -3.122447 -6.264508 0.112025 0
M  V30 25 C -2.413432 -7.087467 -0.678959 0
M  V30 26 C -1.878737 -8.337068 -0.234371 0
M  V30 27 N -1.449467 -9.346118 0.137123 0
M  V30 28 C -2.216286 -6.665545 -1.975086 0
M  V30 29 N -2.691109 -5.502976 -2.456098 0
M  V30 30 C -2.047677 0.549948 -2.533509 0
M  V30 31 C -1.024654 1.487416 -2.335054 0
M  V30 32 Cl -0.066764 2.019163 -3.695223 0
M  V30 33 C 3.102576 -0.211329 1.282517 0
M  V30 34 C 3.002002 -0.797930 2.524295 0
M  V30 35 H 4.628261 0.212464 5.982029 0
M  V30 36 H 3.506385 -0.909457 6.920829 0
M  V30 37 H 2.912692 0.697351 6.252033 0
M  V30 38 H 4.138743 1.636713 4.466047 0
M  V30 39 H 4.358980 2.760217 2.353998 0
M  V30 40 H 4.766707 2.474445 -0.003221 0
M  V30 41 H 3.946549 1.249730 -0.967804 0
M  V30 42 H 2.537685 3.623316 0.426391 0
M  V30 43 H 2.976906 3.405055 -1.300017 0
M  V30 44 H 0.298461 3.964086 -0.802102 0
M  V30 45 H -1.381965 1.924572 1.047154 0
M  V30 46 H -2.181386 0.303148 2.609888 0
M  V30 47 H -3.982215 0.232119 2.822410 0
M  V30 48 H -3.250784 1.753900 2.221746 0
M  V30 49 H -4.829530 -0.801616 -2.070343 0
M  V30 50 H -5.029936 -3.241398 -2.159371 0
M  V30 51 H -4.146612 -4.595977 0.461515 0
M  V30 52 H -1.659036 -7.238406 -2.722391 0
M  V30 53 H -2.226274 0.169651 -3.541806 0
M  V30 54 H 2.839558 -0.677233 0.360689 0
M  V30 55 H 2.614635 -1.809639 2.550113 0
M  V30 END ATOM
M  V30 BEGIN BOND
M  V30 1 1 1 2
M  V30 2 1 2 3
M  V30 3 2 3 4
M  V30 4 1 4 5
M  V30 5 2 5 6
M  V30 6 1 6 7
M  V30 7 1 7 8
M  V30 8 1 8 9
M  V30 9 2 9 10
M  V30 10 1 9 11
M  V30 11 1 11 12
M  V30 12 2 12 13
M  V30 13 1 13 14
M  V30 14 1 14 15
M  V30 15 1 15 16
M  V30 16 2 14 17
M  V30 17 1 17 18
M  V30 18 1 18 19
M  V30 19 2 19 20
M  V30 20 1 19 21
M  V30 21 1 21 22
M  V30 22 2 22 23
M  V30 23 1 23 24
M  V30 24 2 24 25
M  V30 25 1 25 26
M  V30 26 3 26 27
M  V30 27 1 25 28
M  V30 28 2 28 29
M  V30 29 1 17 30
M  V30 30 2 30 31
M  V30 31 1 31 32
M  V30 32 1 6 33
M  V30 33 2 33 34
M  V30 34 1 34 3
M  V30 35 1 31 12
M  V30 36 1 29 22
M  V30 37 1 1 35
M  V30 38 1 1 36
M  V30 39 1 1 37
M  V30 40 1 4 38
M  V30 41 1 5 39
M  V30 42 1 7 40
M  V30 43 1 7 41
M  V30 44 1 8 42
M  V30 45 1 8 43
M  V30 46 1 11 44
M  V30 47 1 13 45
M  V30 48 1 16 46
M  V30 49 1 16 47
M  V30 50 1 16 48
M  V30 51 1 18 49
M  V30 52 1 21 50
M  V30 53 1 23 51
M  V30 54 1 28 52
M  V30 55 1 30 53
M  V30 56 1 33 54
M  V30 57 1 34 55
M  V30 END BOND
M  V30 END CTAB
M  END
>  <Dataset>  (351) 
ChEMBL_Kinases

>  <Ligand_Instance>  (351) 
nan

>  <PDB_ID>  (351) 
nan

>  <Standardized_SMILES>  (351) 
COc1ccc(CCC(=O)Nc2cc(OC)c(NC(=O)Nc3cnc(C#N)cn3)cc2Cl)cc1

>  <Name>  (351) 
nan

>  <Pocket>  (351) 
nan

>  <ATP_Site>  (351) 
nan

>  <Peripheral>  (351) 
nan

>  <Num_H_Atoms_ProtBoundConf>  (351) 
nan

>  <Num_Resolved_Atoms>  (351) 
nan

>  <Num_Not_Resolved_Atoms>  (351) 
nan

$$$$
CHEMBL206139
     RDKit          3D

  0  0  0  0  0  0  0  0  0  0999 V3000
M  V30 BEGIN CTAB
M  V30 COUNTS 33 34 0 0 0
M  V30 BEGIN ATOM
M  V30 1 C -0.044882 -1.514739 4.083119 0
M  V30 2 O 0.285202 -0.715612 2.984841 0
M  V30 3 C 1.475499 -0.821005 2.277930 0
M  V30 4 C 2.407438 -1.753882 2.651116 0
M  V30 5 C 3.573595 -1.842842 1.942987 0
M  V30 6 N 4.547800 -2.815859 2.330196 0 CHG=1 VAL=4
M  V30 7 O 5.283174 -3.339894 1.469893 0
M  V30 8 O 4.653849 -3.157822 3.665533 0 CHG=-1 VAL=1
M  V30 9 C 3.879370 -1.038297 0.854908 0
M  V30 10 Cl 5.377271 -1.158589 -0.049142 0
M  V30 11 C 2.946274 -0.096543 0.472627 0
M  V30 12 C 1.767603 -0.001245 1.182695 0
M  V30 13 N 0.725234 0.944397 0.869709 0
M  V30 14 C -0.196288 0.373537 -0.051004 0
M  V30 15 O -0.205341 -0.785446 -0.588233 0
M  V30 16 N -1.321177 1.146204 -0.501706 0
M  V30 17 C -2.334125 0.737358 -1.413452 0
M  V30 18 C -2.338243 0.877592 -2.796342 0
M  V30 19 N -3.403433 0.420189 -3.488237 0
M  V30 20 C -4.433258 -0.160655 -2.806344 0
M  V30 21 C -5.572766 -0.651396 -3.527834 0
M  V30 22 N -6.492631 -1.059264 -4.096278 0
M  V30 23 C -4.445935 -0.307875 -1.434280 0
M  V30 24 N -3.367370 0.159280 -0.775464 0
M  V30 25 H 0.532400 -1.320480 4.998589 0
M  V30 26 H -1.121358 -1.293067 4.335966 0
M  V30 27 H 0.098708 -2.600689 3.822138 0
M  V30 28 H 2.260399 -2.433928 3.492889 0
M  V30 29 H 3.082278 0.588287 -0.367641 0
M  V30 30 H 0.528712 1.922115 1.176456 0
M  V30 31 H -1.463164 2.137676 -0.149162 0
M  V30 32 H -1.455335 1.356841 -3.195024 0
M  V30 33 H -5.288521 -0.776419 -0.936340 0
M  V30 END ATOM
M  V30 BEGIN BOND
M  V30 1 1 1 2
M  V30 2 1 2 3
M  V30 3 2 3 4
M  V30 4 1 4 5
M  V30 5 1 5 6
M  V30 6 2 6 7
M  V30 7 1 6 8
M  V30 8 2 5 9
M  V30 9 1 9 10
M  V30 10 1 9 11
M  V30 11 2 11 12
M  V30 12 1 12 13
M  V30 13 1 13 14
M  V30 14 2 14 15
M  V30 15 1 14 16
M  V30 16 1 16 17
M  V30 17 2 17 18
M  V30 18 1 18 19
M  V30 19 2 19 20
M  V30 20 1 20 21
M  V30 21 3 21 22
M  V30 22 1 20 23
M  V30 23 2 23 24
M  V30 24 1 12 3
M  V30 25 1 24 17
M  V30 26 1 1 25
M  V30 27 1 1 26
M  V30 28 1 1 27
M  V30 29 1 4 28
M  V30 30 1 11 29
M  V30 31 1 13 30
M  V30 32 1 16 31
M  V30 33 1 18 32
M  V30 34 1 23 33
M  V30 END BOND
M  V30 END CTAB
M  END
>  <Dataset>  (352) 
ChEMBL_Kinases

>  <Ligand_Instance>  (352) 
nan

>  <PDB_ID>  (352) 
nan

>  <Standardized_SMILES>  (352) 
COc1cc([N+](=O)[O-])c(Cl)cc1NC(=O)Nc1cnc(C#N)cn1

>  <Name>  (352) 
nan

>  <Pocket>  (352) 
nan

>  <ATP_Site>  (352) 
nan

>  <Peripheral>  (352) 
nan

>  <Num_H_Atoms_ProtBoundConf>  (352) 
nan

>  <Num_Resolved_Atoms>  (352) 
nan

>  <Num_Not_Resolved_Atoms>  (352) 
nan

$$$$
CHEMBL206098
     RDKit          3D

  0  0  0  0  0  0  0  0  0  0999 V3000
M  V30 BEGIN CTAB
M  V30 COUNTS 47 48 0 0 0
M  V30 BEGIN ATOM
M  V30 1 C 3.111873 -4.042181 -0.912137 0
M  V30 2 O 3.524714 -4.003249 0.439402 0
M  V30 3 C 3.913581 -2.863269 1.088090 0
M  V30 4 O 3.766013 -2.053613 0.138960 0
M  V30 5 C 4.336189 -2.901867 2.515951 0
M  V30 6 C 4.711611 -1.500406 2.971658 0
M  V30 7 C 3.464168 -0.676471 2.786012 0
M  V30 8 O 2.485859 -1.325834 2.326516 0
M  V30 9 N 3.282735 0.689570 3.060962 0
M  V30 10 C 1.927521 1.021338 2.722790 0
M  V30 11 C 1.735225 1.437228 1.425427 0
M  V30 12 C 0.469655 1.782547 0.989343 0
M  V30 13 O 0.236848 2.205819 -0.309550 0
M  V30 14 C 1.245678 2.321347 -1.285779 0
M  V30 15 C -0.566420 1.686984 1.913736 0
M  V30 16 N -1.862856 2.047332 1.444638 0
M  V30 17 C -2.628166 0.982521 0.883309 0
M  V30 18 O -2.085391 -0.169590 0.856808 0
M  V30 19 N -3.951197 1.205396 0.372329 0
M  V30 20 C -4.652614 0.088345 -0.173546 0
M  V30 21 C -5.476582 -0.763490 0.538805 0
M  V30 22 N -6.094149 -1.792350 -0.075032 0
M  V30 23 C -5.923600 -2.014036 -1.392543 0
M  V30 24 C -6.572983 -3.104301 -2.062722 0
M  V30 25 N -7.108603 -3.981762 -2.616856 0
M  V30 26 C -5.110545 -1.184713 -2.128466 0
M  V30 27 N -4.507524 -0.166862 -1.490219 0
M  V30 28 C -0.343500 1.266969 3.207333 0
M  V30 29 C 0.912378 0.923089 3.644149 0
M  V30 30 Cl 1.264123 0.382579 5.271253 0
M  V30 31 H 2.577237 -4.982660 -1.131694 0
M  V30 32 H 3.935434 -3.871285 -1.617752 0
M  V30 33 H 2.378439 -3.205650 -1.047379 0
M  V30 34 H 5.218494 -3.590010 2.639695 0
M  V30 35 H 3.504818 -3.270467 3.117554 0
M  V30 36 H 5.515701 -1.147308 2.287900 0
M  V30 37 H 4.985619 -1.507147 4.028376 0
M  V30 38 H 4.143590 1.170299 3.443303 0
M  V30 39 H 2.547063 1.506916 0.718702 0
M  V30 40 H 0.735015 2.216312 -2.281753 0
M  V30 41 H 1.996511 1.506068 -1.257448 0
M  V30 42 H 1.806840 3.267386 -1.186610 0
M  V30 43 H -2.240409 2.998840 1.496485 0
M  V30 44 H -4.280763 2.203696 0.454929 0
M  V30 45 H -5.596271 -0.563517 1.593964 0
M  V30 46 H -4.980098 -1.373584 -3.192953 0
M  V30 47 H -1.161172 1.200772 3.905651 0
M  V30 END ATOM
M  V30 BEGIN BOND
M  V30 1 1 1 2
M  V30 2 1 2 3
M  V30 3 2 3 4
M  V30 4 1 3 5
M  V30 5 1 5 6
M  V30 6 1 6 7
M  V30 7 2 7 8
M  V30 8 1 7 9
M  V30 9 1 9 10
M  V30 10 2 10 11
M  V30 11 1 11 12
M  V30 12 1 12 13
M  V30 13 1 13 14
M  V30 14 2 12 15
M  V30 15 1 15 16
M  V30 16 1 16 17
M  V30 17 2 17 18
M  V30 18 1 17 19
M  V30 19 1 19 20
M  V30 20 2 20 21
M  V30 21 1 21 22
M  V30 22 2 22 23
M  V30 23 1 23 24
M  V30 24 3 24 25
M  V30 25 1 23 26
M  V30 26 2 26 27
M  V30 27 1 15 28
M  V30 28 2 28 29
M  V30 29 1 29 30
M  V30 30 1 29 10
M  V30 31 1 27 20
M  V30 32 1 1 31
M  V30 33 1 1 32
M  V30 34 1 1 33
M  V30 35 1 5 34
M  V30 36 1 5 35
M  V30 37 1 6 36
M  V30 38 1 6 37
M  V30 39 1 9 38
M  V30 40 1 11 39
M  V30 41 1 14 40
M  V30 42 1 14 41
M  V30 43 1 14 42
M  V30 44 1 16 43
M  V30 45 1 19 44
M  V30 46 1 21 45
M  V30 47 1 26 46
M  V30 48 1 28 47
M  V30 END BOND
M  V30 END CTAB
M  END
>  <Dataset>  (353) 
ChEMBL_Kinases

>  <Ligand_Instance>  (353) 
nan

>  <PDB_ID>  (353) 
nan

>  <Standardized_SMILES>  (353) 
COC(=O)CCC(=O)Nc1cc(OC)c(NC(=O)Nc2cnc(C#N)cn2)cc1Cl

>  <Name>  (353) 
nan

>  <Pocket>  (353) 
nan

>  <ATP_Site>  (353) 
nan

>  <Peripheral>  (353) 
nan

>  <Num_H_Atoms_ProtBoundConf>  (353) 
nan

>  <Num_Resolved_Atoms>  (353) 
nan

>  <Num_Not_Resolved_Atoms>  (353) 
nan

$$$$
CHEMBL207250
     RDKit          3D

  0  0  0  0  0  0  0  0  0  0999 V3000
M  V30 BEGIN CTAB
M  V30 COUNTS 35 36 0 0 0
M  V30 BEGIN ATOM
M  V30 1 C -1.857404 -4.634104 -0.283520 0
M  V30 2 C -1.574393 -4.246870 1.151902 0
M  V30 3 C -0.130925 -4.192628 1.473916 0
M  V30 4 C 0.727803 -3.265912 0.716768 0
M  V30 5 C 0.498258 -1.839606 0.803941 0
M  V30 6 C -0.332843 -1.004505 1.471685 0
M  V30 7 C -0.361644 0.365110 1.413365 0
M  V30 8 C -1.368649 1.078448 2.239449 0
M  V30 9 C 0.543236 1.001544 0.593375 0
M  V30 10 C 0.664241 2.341568 0.407591 0
M  V30 11 N -0.107609 3.372933 1.011086 0
M  V30 12 C 1.655772 2.794568 -0.475921 0
M  V30 13 C 2.072210 4.071722 -0.912941 0
M  V30 14 N 3.133253 4.219198 -1.837921 0
M  V30 15 O 1.460652 5.062211 -0.445064 0
M  V30 16 S 2.438047 1.248143 -1.057472 0
M  V30 17 C 1.404084 0.149884 -0.098193 0
M  V30 18 N 1.382277 -1.168336 0.000314 0
M  V30 19 H -0.991286 -5.010433 -0.833135 0
M  V30 20 H -2.673603 -5.379537 -0.377677 0
M  V30 21 H -2.259554 -3.712007 -0.782281 0
M  V30 22 H -2.154936 -3.393124 1.497729 0
M  V30 23 H -1.989012 -5.122189 1.754877 0
M  V30 24 H -0.035144 -3.925058 2.571023 0
M  V30 25 H 0.350897 -5.213229 1.408593 0
M  V30 26 H 0.783788 -3.576478 -0.369346 0
M  V30 27 H 1.793233 -3.462440 1.066505 0
M  V30 28 H -1.022605 -1.519616 2.120645 0
M  V30 29 H -1.693451 0.422455 3.072892 0
M  V30 30 H -0.936307 1.977784 2.749144 0
M  V30 31 H -2.204292 1.348789 1.569810 0
M  V30 32 H -1.102375 3.683383 0.810453 0
M  V30 33 H 0.331185 3.940596 1.776283 0
M  V30 34 H 3.979219 4.597279 -1.355704 0
M  V30 35 H 3.472039 4.119002 -2.822879 0
M  V30 END ATOM
M  V30 BEGIN BOND
M  V30 1 1 1 2
M  V30 2 1 2 3
M  V30 3 1 3 4
M  V30 4 1 4 5
M  V30 5 2 5 6
M  V30 6 1 6 7
M  V30 7 1 7 8
M  V30 8 2 7 9
M  V30 9 1 9 10
M  V30 10 1 10 11
M  V30 11 2 10 12
M  V30 12 1 12 13
M  V30 13 1 13 14
M  V30 14 2 13 15
M  V30 15 1 12 16
M  V30 16 1 16 17
M  V30 17 2 17 18
M  V30 18 1 18 5
M  V30 19 1 17 9
M  V30 20 1 1 19
M  V30 21 1 1 20
M  V30 22 1 1 21
M  V30 23 1 2 22
M  V30 24 1 2 23
M  V30 25 1 3 24
M  V30 26 1 3 25
M  V30 27 1 4 26
M  V30 28 1 4 27
M  V30 29 1 6 28
M  V30 30 1 8 29
M  V30 31 1 8 30
M  V30 32 1 8 31
M  V30 33 1 11 32
M  V30 34 1 11 33
M  V30 35 1 14 34
M  V30 36 1 14 35
M  V30 END BOND
M  V30 END CTAB
M  END
>  <Dataset>  (354) 
ChEMBL_Kinases

>  <Ligand_Instance>  (354) 
nan

>  <PDB_ID>  (354) 
nan

>  <Standardized_SMILES>  (354) 
CCCCc1cc(C)c2c(N)c(C(N)=O)sc2n1

>  <Name>  (354) 
nan

>  <Pocket>  (354) 
nan

>  <ATP_Site>  (354) 
nan

>  <Peripheral>  (354) 
nan

>  <Num_H_Atoms_ProtBoundConf>  (354) 
nan

>  <Num_Resolved_Atoms>  (354) 
nan

>  <Num_Not_Resolved_Atoms>  (354) 
nan

$$$$
CHEMBL2058048
     RDKit          3D

  0  0  0  0  0  0  0  0  0  0999 V3000
M  V30 BEGIN CTAB
M  V30 COUNTS 75 79 0 0 0
M  V30 BEGIN ATOM
M  V30 1 C 5.207831 2.093416 4.182315 0
M  V30 2 C 4.300109 2.196205 2.999594 0
M  V30 3 C 4.322343 1.194295 2.047813 0
M  V30 4 C 3.488587 1.270078 0.942901 0
M  V30 5 C 2.629524 2.366073 0.803408 0
M  V30 6 N 1.839612 2.302397 -0.377156 0
M  V30 7 N 2.293215 2.708128 -1.532413 0
M  V30 8 C 1.336567 2.536001 -2.492230 0
M  V30 9 C 1.479101 2.882196 -3.932440 0
M  V30 10 C 2.031447 1.695763 -4.678141 0
M  V30 11 C 2.371052 4.088330 -4.082462 0
M  V30 12 C 0.081752 3.145999 -4.451496 0
M  V30 13 C 0.270781 1.991418 -1.807803 0
M  V30 14 C 0.579529 1.841870 -0.478826 0
M  V30 15 N -0.208027 1.326887 0.588572 0
M  V30 16 C -1.526504 0.850012 0.440688 0
M  V30 17 O -2.071822 0.865046 -0.697369 0
M  V30 18 N -2.340929 0.327929 1.503856 0
M  V30 19 C -3.630365 -0.066861 0.987182 0
M  V30 20 C -4.557731 -0.649156 1.949463 0
M  V30 21 C -5.521569 0.173070 2.494055 0
M  V30 22 C -6.408880 -0.361510 3.395533 0
M  V30 23 Cl -7.631126 0.695387 4.082046 0
M  V30 24 C -6.334049 -1.693543 3.746259 0
M  V30 25 C -5.339410 -2.485668 3.166968 0
M  V30 26 C -4.414263 -1.983971 2.244437 0
M  V30 27 O -3.571349 -2.931741 1.832055 0
M  V30 28 C -2.271958 -3.217183 1.892148 0
M  V30 29 C -1.154075 -2.676907 2.472433 0
M  V30 30 C 0.123051 -3.179404 2.384680 0
M  V30 31 N 0.264115 -4.302538 1.660171 0
M  V30 32 C -0.789137 -4.887195 1.063547 0
M  V30 33 N -0.456947 -6.060549 0.342075 0
M  V30 34 C 0.883575 -6.585226 0.284331 0
M  V30 35 C 1.347232 -6.788631 -1.144688 0
M  V30 36 O 0.505678 -7.616984 -1.855376 0
M  V30 37 C -0.759200 -7.082805 -1.865277 0
M  V30 38 C -1.276310 -6.953672 -0.448177 0
M  V30 39 N -2.021358 -4.361421 1.175261 0
M  V30 40 C 2.621320 3.355522 1.762670 0
M  V30 41 C 3.450517 3.283362 2.864707 0
M  V30 42 H 5.080422 1.104187 4.694373 0
M  V30 43 H 4.941999 2.900993 4.901949 0
M  V30 44 H 6.273915 2.181331 3.917074 0
M  V30 45 H 4.998179 0.347345 2.172654 0
M  V30 46 H 3.563306 0.452037 0.245386 0
M  V30 47 H 1.231038 1.139930 -5.234396 0
M  V30 48 H 2.735555 2.015350 -5.496110 0
M  V30 49 H 2.563213 0.991929 -4.010696 0
M  V30 50 H 2.222135 4.819354 -3.274356 0
M  V30 51 H 3.421305 3.739955 -4.020114 0
M  V30 52 H 2.242947 4.522217 -5.098559 0
M  V30 53 H 0.055745 3.763099 -5.353514 0
M  V30 54 H -0.547528 3.526153 -3.618262 0
M  V30 55 H -0.354489 2.158927 -4.713729 0
M  V30 56 H -0.638479 1.742008 -2.293696 0
M  V30 57 H 0.201275 1.294726 1.546279 0
M  V30 58 H -1.800925 0.369654 2.415753 0
M  V30 59 H -3.429085 -0.765832 0.117041 0
M  V30 60 H -4.064119 0.838748 0.471275 0
M  V30 61 H -5.565759 1.213277 2.208144 0
M  V30 62 H -7.053979 -2.067129 4.459181 0
M  V30 63 H -5.393037 -3.523637 3.532717 0
M  V30 64 H -1.386293 -1.807588 3.029486 0
M  V30 65 H 0.914768 -2.649710 2.893379 0
M  V30 66 H 0.935258 -7.595836 0.755888 0
M  V30 67 H 1.611414 -5.921347 0.784648 0
M  V30 68 H 2.356959 -7.223125 -1.195180 0
M  V30 69 H 1.400338 -5.815772 -1.694200 0
M  V30 70 H -0.744884 -6.107196 -2.370576 0
M  V30 71 H -1.480401 -7.739755 -2.411847 0
M  V30 72 H -2.312659 -6.570394 -0.508667 0
M  V30 73 H -1.299517 -7.971151 0.015641 0
M  V30 74 H 1.921558 4.171563 1.573747 0
M  V30 75 H 3.414011 4.080154 3.594817 0
M  V30 END ATOM
M  V30 BEGIN BOND
M  V30 1 1 1 2
M  V30 2 2 2 3
M  V30 3 1 3 4
M  V30 4 2 4 5
M  V30 5 1 5 6
M  V30 6 1 6 7
M  V30 7 2 7 8
M  V30 8 1 8 9
M  V30 9 1 9 10
M  V30 10 1 9 11
M  V30 11 1 9 12
M  V30 12 1 8 13
M  V30 13 2 13 14
M  V30 14 1 14 15
M  V30 15 1 15 16
M  V30 16 2 16 17
M  V30 17 1 16 18
M  V30 18 1 18 19
M  V30 19 1 19 20
M  V30 20 2 20 21
M  V30 21 1 21 22
M  V30 22 1 22 23
M  V30 23 2 22 24
M  V30 24 1 24 25
M  V30 25 2 25 26
M  V30 26 1 26 27
M  V30 27 1 27 28
M  V30 28 2 28 29
M  V30 29 1 29 30
M  V30 30 2 30 31
M  V30 31 1 31 32
M  V30 32 1 32 33
M  V30 33 1 33 34
M  V30 34 1 34 35
M  V30 35 1 35 36
M  V30 36 1 36 37
M  V30 37 1 37 38
M  V30 38 2 32 39
M  V30 39 1 5 40
M  V30 40 2 40 41
M  V30 41 1 41 2
M  V30 42 1 14 6
M  V30 43 1 26 20
M  V30 44 1 39 28
M  V30 45 1 38 33
M  V30 46 1 1 42
M  V30 47 1 1 43
M  V30 48 1 1 44
M  V30 49 1 3 45
M  V30 50 1 4 46
M  V30 51 1 10 47
M  V30 52 1 10 48
M  V30 53 1 10 49
M  V30 54 1 11 50
M  V30 55 1 11 51
M  V30 56 1 11 52
M  V30 57 1 12 53
M  V30 58 1 12 54
M  V30 59 1 12 55
M  V30 60 1 13 56
M  V30 61 1 15 57
M  V30 62 1 18 58
M  V30 63 1 19 59
M  V30 64 1 19 60
M  V30 65 1 21 61
M  V30 66 1 24 62
M  V30 67 1 25 63
M  V30 68 1 29 64
M  V30 69 1 30 65
M  V30 70 1 34 66
M  V30 71 1 34 67
M  V30 72 1 35 68
M  V30 73 1 35 69
M  V30 74 1 37 70
M  V30 75 1 37 71
M  V30 76 1 38 72
M  V30 77 1 38 73
M  V30 78 1 40 74
M  V30 79 1 41 75
M  V30 END BOND
M  V30 END CTAB
M  END
>  <Dataset>  (355) 
ChEMBL_Kinases

>  <Ligand_Instance>  (355) 
nan

>  <PDB_ID>  (355) 
nan

>  <Standardized_SMILES>  (355) 
Cc1ccc(-n2nc(C(C)(C)C)cc2NC(=O)NCc2cc(Cl)ccc2Oc2ccnc(N3CCOCC3)n2)cc1

>  <Name>  (355) 
nan

>  <Pocket>  (355) 
nan

>  <ATP_Site>  (355) 
nan

>  <Peripheral>  (355) 
nan

>  <Num_H_Atoms_ProtBoundConf>  (355) 
nan

>  <Num_Resolved_Atoms>  (355) 
nan

>  <Num_Not_Resolved_Atoms>  (355) 
nan

$$$$
CHEMBL2058049
     RDKit          3D

  0  0  0  0  0  0  0  0  0  0999 V3000
M  V30 BEGIN CTAB
M  V30 COUNTS 78 82 0 0 0
M  V30 BEGIN ATOM
M  V30 1 C 5.815419 -2.685845 1.479123 0
M  V30 2 C 4.682818 -2.345939 0.586424 0
M  V30 3 C 3.738010 -3.303177 0.279032 0
M  V30 4 C 2.686375 -2.994846 -0.550816 0
M  V30 5 C 2.494016 -1.733362 -1.132043 0
M  V30 6 N 1.386873 -1.655740 -1.990819 0
M  V30 7 N 1.517713 -1.347889 -3.269008 0
M  V30 8 C 0.291818 -1.401741 -3.867438 0
M  V30 9 C 0.105204 -1.109237 -5.295643 0
M  V30 10 C 0.237401 -2.390804 -6.082674 0
M  V30 11 C 1.193938 -0.174215 -5.789768 0
M  V30 12 C -1.205852 -0.395250 -5.565681 0
M  V30 13 C -0.569402 -1.764462 -2.835573 0
M  V30 14 C 0.142135 -1.925867 -1.629785 0
M  V30 15 N -0.743376 -2.313593 -0.605288 0
M  V30 16 C -1.810385 -1.428638 -0.184564 0
M  V30 17 O -1.954870 -0.275020 -0.685722 0
M  V30 18 N -2.780157 -1.793310 0.805825 0
M  V30 19 C -3.903550 -1.083863 1.244898 0
M  V30 20 C -3.894329 0.169406 1.938179 0
M  V30 21 C -4.129447 1.338662 1.192981 0
M  V30 22 C -4.211351 2.612968 1.715244 0
M  V30 23 C -4.463130 3.792736 0.849401 0
M  V30 24 C -4.052647 2.773375 3.076314 0
M  V30 25 C -3.818681 1.685295 3.883074 0
M  V30 26 C -3.746766 0.431737 3.298035 0
M  V30 27 O -3.520122 -0.621308 4.139674 0
M  V30 28 C -2.292580 -1.279664 4.176063 0
M  V30 29 C -1.998594 -2.415755 4.895758 0
M  V30 30 C -0.676131 -2.872671 4.762745 0
M  V30 31 N 0.222067 -2.239713 3.991861 0
M  V30 32 C -0.082928 -1.131050 3.296972 0
M  V30 33 N 0.811619 -0.354052 2.516217 0
M  V30 34 C 0.454091 0.530142 1.418275 0
M  V30 35 C 1.349285 1.767521 1.438443 0
M  V30 36 O 2.689273 1.352846 1.476138 0
M  V30 37 C 2.934075 0.858698 2.744442 0
M  V30 38 C 2.222860 -0.457076 2.922295 0
M  V30 39 N -1.357623 -0.661357 3.399111 0
M  V30 40 C 3.446584 -0.788074 -0.812502 0
M  V30 41 C 4.500273 -1.100053 0.020552 0
M  V30 42 H 6.642204 -3.214709 0.955289 0
M  V30 43 H 5.513015 -3.383651 2.302080 0
M  V30 44 H 6.212014 -1.788628 2.006118 0
M  V30 45 H 3.878406 -4.272408 0.722412 0
M  V30 46 H 2.011614 -3.821524 -0.718556 0
M  V30 47 H 1.299930 -2.693448 -6.057417 0
M  V30 48 H -0.070703 -2.261884 -7.144200 0
M  V30 49 H -0.357460 -3.183123 -5.601768 0
M  V30 50 H 1.306436 0.684105 -5.090507 0
M  V30 51 H 2.153231 -0.753974 -5.840806 0
M  V30 52 H 0.991576 0.208686 -6.794080 0
M  V30 53 H -2.058641 -0.880822 -5.080907 0
M  V30 54 H -1.346784 -0.430388 -6.665178 0
M  V30 55 H -1.088072 0.684112 -5.317717 0
M  V30 56 H -1.601742 -1.844867 -3.182960 0
M  V30 57 H -0.671025 -3.252436 -0.146431 0
M  V30 58 H -2.549265 -2.747355 1.222338 0
M  V30 59 H -4.587052 -1.825584 1.824696 0
M  V30 60 H -4.564970 -0.969261 0.297429 0
M  V30 61 H -4.264269 1.269740 0.105583 0
M  V30 62 H -4.883948 4.596038 1.505366 0
M  V30 63 H -5.119916 3.575367 -0.016030 0
M  V30 64 H -3.453991 4.155307 0.509391 0
M  V30 65 H -4.121372 3.774073 3.453741 0
M  V30 66 H -3.691955 1.805542 4.949711 0
M  V30 67 H -2.780470 -2.845394 5.479421 0
M  V30 68 H -0.430966 -3.763074 5.321289 0
M  V30 69 H 0.592103 0.059838 0.433320 0
M  V30 70 H -0.596351 0.839082 1.529703 0
M  V30 71 H 1.176686 2.374299 2.346425 0
M  V30 72 H 1.202049 2.370554 0.527842 0
M  V30 73 H 2.525895 1.591384 3.472069 0
M  V30 74 H 4.016617 0.693360 2.915142 0
M  V30 75 H 2.774388 -1.230575 2.361715 0
M  V30 76 H 2.270818 -0.776716 4.015155 0
M  V30 77 H 3.270073 0.164315 -1.270311 0
M  V30 78 H 5.226818 -0.326263 0.242797 0
M  V30 END ATOM
M  V30 BEGIN BOND
M  V30 1 1 1 2
M  V30 2 2 2 3
M  V30 3 1 3 4
M  V30 4 2 4 5
M  V30 5 1 5 6
M  V30 6 1 6 7
M  V30 7 2 7 8
M  V30 8 1 8 9
M  V30 9 1 9 10
M  V30 10 1 9 11
M  V30 11 1 9 12
M  V30 12 1 8 13
M  V30 13 2 13 14
M  V30 14 1 14 15
M  V30 15 1 15 16
M  V30 16 2 16 17
M  V30 17 1 16 18
M  V30 18 1 18 19
M  V30 19 1 19 20
M  V30 20 2 20 21
M  V30 21 1 21 22
M  V30 22 1 22 23
M  V30 23 2 22 24
M  V30 24 1 24 25
M  V30 25 2 25 26
M  V30 26 1 26 27
M  V30 27 1 27 28
M  V30 28 2 28 29
M  V30 29 1 29 30
M  V30 30 2 30 31
M  V30 31 1 31 32
M  V30 32 1 32 33
M  V30 33 1 33 34
M  V30 34 1 34 35
M  V30 35 1 35 36
M  V30 36 1 36 37
M  V30 37 1 37 38
M  V30 38 2 32 39
M  V30 39 1 5 40
M  V30 40 2 40 41
M  V30 41 1 41 2
M  V30 42 1 14 6
M  V30 43 1 26 20
M  V30 44 1 39 28
M  V30 45 1 38 33
M  V30 46 1 1 42
M  V30 47 1 1 43
M  V30 48 1 1 44
M  V30 49 1 3 45
M  V30 50 1 4 46
M  V30 51 1 10 47
M  V30 52 1 10 48
M  V30 53 1 10 49
M  V30 54 1 11 50
M  V30 55 1 11 51
M  V30 56 1 11 52
M  V30 57 1 12 53
M  V30 58 1 12 54
M  V30 59 1 12 55
M  V30 60 1 13 56
M  V30 61 1 15 57
M  V30 62 1 18 58
M  V30 63 1 19 59
M  V30 64 1 19 60
M  V30 65 1 21 61
M  V30 66 1 23 62
M  V30 67 1 23 63
M  V30 68 1 23 64
M  V30 69 1 24 65
M  V30 70 1 25 66
M  V30 71 1 29 67
M  V30 72 1 30 68
M  V30 73 1 34 69
M  V30 74 1 34 70
M  V30 75 1 35 71
M  V30 76 1 35 72
M  V30 77 1 37 73
M  V30 78 1 37 74
M  V30 79 1 38 75
M  V30 80 1 38 76
M  V30 81 1 40 77
M  V30 82 1 41 78
M  V30 END BOND
M  V30 END CTAB
M  END
>  <Dataset>  (356) 
ChEMBL_Kinases

>  <Ligand_Instance>  (356) 
nan

>  <PDB_ID>  (356) 
nan

>  <Standardized_SMILES>  (356) 
Cc1ccc(-n2nc(C(C)(C)C)cc2NC(=O)NCc2cc(C)ccc2Oc2ccnc(N3CCOCC3)n2)cc1

>  <Name>  (356) 
nan

>  <Pocket>  (356) 
nan

>  <ATP_Site>  (356) 
nan

>  <Peripheral>  (356) 
nan

>  <Num_H_Atoms_ProtBoundConf>  (356) 
nan

>  <Num_Resolved_Atoms>  (356) 
nan

>  <Num_Not_Resolved_Atoms>  (356) 
nan

$$$$
CHEMBL2058050
     RDKit          3D

  0  0  0  0  0  0  0  0  0  0999 V3000
M  V30 BEGIN CTAB
M  V30 COUNTS 78 82 0 0 0
M  V30 BEGIN ATOM
M  V30 1 C -0.797845 -3.397078 6.964928 0
M  V30 2 C -0.315383 -3.155772 5.583850 0
M  V30 3 C -0.054873 -4.296697 4.821318 0
M  V30 4 C 0.395464 -4.106129 3.532420 0
M  V30 5 C 0.615318 -2.877467 2.918832 0
M  V30 6 N 1.082908 -2.819831 1.582698 0
M  V30 7 N 1.886499 -3.770086 1.078643 0
M  V30 8 C 2.179754 -3.476360 -0.196937 0
M  V30 9 C 3.020512 -4.195880 -1.195697 0
M  V30 10 C 3.619446 -5.448197 -0.648202 0
M  V30 11 C 4.097524 -3.230909 -1.644906 0
M  V30 12 C 2.122190 -4.454836 -2.390721 0
M  V30 13 C 1.549744 -2.295953 -0.543761 0
M  V30 14 C 0.873963 -1.921541 0.603773 0
M  V30 15 N 0.070611 -0.756907 0.743711 0
M  V30 16 C -1.318382 -0.601637 0.485547 0
M  V30 17 O -1.764757 -1.687675 0.095548 0
M  V30 18 N -1.985585 0.631457 0.675831 0
M  V30 19 C -3.397940 0.652767 0.388770 0
M  V30 20 C -3.784969 0.322362 -0.978623 0
M  V30 21 C -4.297272 -0.924309 -1.340352 0
M  V30 22 C -4.689427 -1.251635 -2.625214 0
M  V30 23 C -5.222585 -2.579649 -2.954601 0
M  V30 24 F -4.234444 -3.540530 -2.774130 0
M  V30 25 F -6.302792 -2.931406 -2.197497 0
M  V30 26 F -5.534804 -2.615187 -4.305214 0
M  V30 27 C -4.553930 -0.267433 -3.580860 0
M  V30 28 C -4.046999 0.969284 -3.229098 0
M  V30 29 C -3.647300 1.306644 -1.927761 0
M  V30 30 O -3.199892 2.560686 -1.862817 0
M  V30 31 C -2.041549 3.178379 -1.591230 0
M  V30 32 C -2.269822 4.563698 -1.647974 0
M  V30 33 C -1.276498 5.511459 -1.415087 0
M  V30 34 N -0.033434 5.076622 -1.120777 0
M  V30 35 C 0.176741 3.754553 -1.068838 0
M  V30 36 N 1.499446 3.342282 -0.766377 0
M  V30 37 C 2.479025 4.341552 -0.375408 0
M  V30 38 C 2.898970 4.026163 1.038290 0
M  V30 39 O 2.445105 2.756054 1.441793 0
M  V30 40 C 2.901467 1.853185 0.474606 0
M  V30 41 C 2.110026 2.029319 -0.782660 0
M  V30 42 N -0.776491 2.836022 -1.291695 0
M  V30 43 C 0.342128 -1.786255 3.717122 0
M  V30 44 C -0.110185 -1.931049 5.012105 0
M  V30 45 H -0.062657 -4.073832 7.488181 0
M  V30 46 H -1.796560 -3.880294 6.883281 0
M  V30 47 H -0.881541 -2.427693 7.520428 0
M  V30 48 H -0.186617 -5.318376 5.186028 0
M  V30 49 H 0.599628 -4.992487 2.934881 0
M  V30 50 H 2.921812 -5.936621 0.062150 0
M  V30 51 H 4.573587 -5.178942 -0.141535 0
M  V30 52 H 3.798954 -6.145007 -1.473251 0
M  V30 53 H 3.692909 -2.605256 -2.490818 0
M  V30 54 H 5.034659 -3.754411 -1.926509 0
M  V30 55 H 4.349451 -2.507453 -0.840154 0
M  V30 56 H 1.816831 -3.483893 -2.831707 0
M  V30 57 H 1.243311 -5.022832 -2.034973 0
M  V30 58 H 2.684927 -5.092624 -3.098783 0
M  V30 59 H 1.519015 -1.707881 -1.465235 0
M  V30 60 H 0.542317 0.109611 1.080568 0
M  V30 61 H -1.427544 1.445076 1.013453 0
M  V30 62 H -3.836506 -0.155839 1.047047 0
M  V30 63 H -3.887426 1.577997 0.773478 0
M  V30 64 H -4.410723 -1.707189 -0.591159 0
M  V30 65 H -4.865555 -0.543327 -4.575793 0
M  V30 66 H -4.004791 1.634732 -4.102470 0
M  V30 67 H -3.204361 5.097607 -1.869869 0
M  V30 68 H -1.395021 6.587468 -1.444989 0
M  V30 69 H 3.356393 4.236605 -1.044933 0
M  V30 70 H 2.073671 5.378030 -0.464683 0
M  V30 71 H 4.001164 4.021486 1.162525 0
M  V30 72 H 2.467806 4.734608 1.771046 0
M  V30 73 H 2.815277 0.813956 0.844729 0
M  V30 74 H 3.998900 1.996929 0.292070 0
M  V30 75 H 2.821512 1.946632 -1.641281 0
M  V30 76 H 1.303356 1.288105 -0.838528 0
M  V30 77 H 0.494266 -0.802765 3.295153 0
M  V30 78 H -0.325275 -1.074669 5.640220 0
M  V30 END ATOM
M  V30 BEGIN BOND
M  V30 1 1 1 2
M  V30 2 2 2 3
M  V30 3 1 3 4
M  V30 4 2 4 5
M  V30 5 1 5 6
M  V30 6 1 6 7
M  V30 7 2 7 8
M  V30 8 1 8 9
M  V30 9 1 9 10
M  V30 10 1 9 11
M  V30 11 1 9 12
M  V30 12 1 8 13
M  V30 13 2 13 14
M  V30 14 1 14 15
M  V30 15 1 15 16
M  V30 16 2 16 17
M  V30 17 1 16 18
M  V30 18 1 18 19
M  V30 19 1 19 20
M  V30 20 2 20 21
M  V30 21 1 21 22
M  V30 22 1 22 23
M  V30 23 1 23 24
M  V30 24 1 23 25
M  V30 25 1 23 26
M  V30 26 2 22 27
M  V30 27 1 27 28
M  V30 28 2 28 29
M  V30 29 1 29 30
M  V30 30 1 30 31
M  V30 31 2 31 32
M  V30 32 1 32 33
M  V30 33 2 33 34
M  V30 34 1 34 35
M  V30 35 1 35 36
M  V30 36 1 36 37
M  V30 37 1 37 38
M  V30 38 1 38 39
M  V30 39 1 39 40
M  V30 40 1 40 41
M  V30 41 2 35 42
M  V30 42 1 5 43
M  V30 43 2 43 44
M  V30 44 1 44 2
M  V30 45 1 14 6
M  V30 46 1 29 20
M  V30 47 1 42 31
M  V30 48 1 41 36
M  V30 49 1 1 45
M  V30 50 1 1 46
M  V30 51 1 1 47
M  V30 52 1 3 48
M  V30 53 1 4 49
M  V30 54 1 10 50
M  V30 55 1 10 51
M  V30 56 1 10 52
M  V30 57 1 11 53
M  V30 58 1 11 54
M  V30 59 1 11 55
M  V30 60 1 12 56
M  V30 61 1 12 57
M  V30 62 1 12 58
M  V30 63 1 13 59
M  V30 64 1 15 60
M  V30 65 1 18 61
M  V30 66 1 19 62
M  V30 67 1 19 63
M  V30 68 1 21 64
M  V30 69 1 27 65
M  V30 70 1 28 66
M  V30 71 1 32 67
M  V30 72 1 33 68
M  V30 73 1 37 69
M  V30 74 1 37 70
M  V30 75 1 38 71
M  V30 76 1 38 72
M  V30 77 1 40 73
M  V30 78 1 40 74
M  V30 79 1 41 75
M  V30 80 1 41 76
M  V30 81 1 43 77
M  V30 82 1 44 78
M  V30 END BOND
M  V30 END CTAB
M  END
>  <Dataset>  (357) 
ChEMBL_Kinases

>  <Ligand_Instance>  (357) 
nan

>  <PDB_ID>  (357) 
nan

>  <Standardized_SMILES>  (357) 
Cc1ccc(-n2nc(C(C)(C)C)cc2NC(=O)NCc2cc(C(F)(F)F)ccc2Oc2ccnc(N3CCOCC3)n2)cc1

>  <Name>  (357) 
nan

>  <Pocket>  (357) 
nan

>  <ATP_Site>  (357) 
nan

>  <Peripheral>  (357) 
nan

>  <Num_H_Atoms_ProtBoundConf>  (357) 
nan

>  <Num_Resolved_Atoms>  (357) 
nan

>  <Num_Not_Resolved_Atoms>  (357) 
nan

$$$$
CHEMBL2058051
     RDKit          3D

  0  0  0  0  0  0  0  0  0  0999 V3000
M  V30 BEGIN CTAB
M  V30 COUNTS 75 79 0 0 0
M  V30 BEGIN ATOM
M  V30 1 C 4.195892 -0.987471 5.620434 0
M  V30 2 C 3.681397 -0.343122 4.389394 0
M  V30 3 C 3.082326 -1.126094 3.405829 0
M  V30 4 C 2.604330 -0.494758 2.251510 0
M  V30 5 C 2.721570 0.884092 2.082473 0
M  V30 6 N 2.175766 1.298172 0.842251 0
M  V30 7 N 2.736777 1.295205 -0.354659 0
M  V30 8 C 1.898874 1.761909 -1.275903 0
M  V30 9 C 2.142201 1.921662 -2.744294 0
M  V30 10 C 3.524793 1.470009 -3.106838 0
M  V30 11 C 1.149984 1.077926 -3.540300 0
M  V30 12 C 1.890058 3.378303 -3.072866 0
M  V30 13 C 0.730921 2.081193 -0.616341 0
M  V30 14 C 0.926096 1.778979 0.732149 0
M  V30 15 N -0.134329 2.011499 1.648703 0
M  V30 16 C -1.033266 0.940482 1.857421 0
M  V30 17 O -0.847493 -0.120726 1.248307 0
M  V30 18 N -2.164711 0.890561 2.691857 0
M  V30 19 C -3.266527 0.145865 3.174269 0
M  V30 20 C -4.359406 -0.193003 2.263638 0
M  V30 21 C -5.437506 0.704914 2.339066 0
M  V30 22 C -6.611922 0.674858 1.619528 0
M  V30 23 F -7.612714 1.569450 1.739236 0
M  V30 24 C -6.770463 -0.351141 0.709335 0
M  V30 25 C -5.753708 -1.267460 0.582875 0
M  V30 26 F -5.903210 -2.274223 -0.306737 0
M  V30 27 C -4.614151 -1.164544 1.339699 0
M  V30 28 O -3.666584 -2.140414 1.124346 0
M  V30 29 C -2.846546 -2.118612 0.007607 0
M  V30 30 C -2.972323 -1.110360 -0.955079 0
M  V30 31 C -2.100255 -1.178153 -2.042801 0
M  V30 32 N -1.185812 -2.175952 -2.144657 0
M  V30 33 C -1.094182 -3.126586 -1.201244 0
M  V30 34 N -0.110321 -4.137384 -1.375038 0
M  V30 35 C 0.748138 -4.119981 -2.541523 0
M  V30 36 C 1.203550 -5.559184 -2.768725 0
M  V30 37 O 0.141883 -6.419471 -2.488205 0
M  V30 38 C -0.066879 -6.557640 -1.110245 0
M  V30 39 C 0.087855 -5.211916 -0.423475 0
M  V30 40 N -1.914727 -3.080063 -0.158332 0
M  V30 41 C 3.318099 1.632116 3.071675 0
M  V30 42 C 3.794170 1.025296 4.215704 0
M  V30 43 H 5.318868 -0.974851 5.628765 0
M  V30 44 H 3.818254 -2.020543 5.684912 0
M  V30 45 H 3.862490 -0.436991 6.519797 0
M  V30 46 H 3.016826 -2.188096 3.586853 0
M  V30 47 H 2.158985 -1.193314 1.555932 0
M  V30 48 H 4.282740 1.833935 -2.369837 0
M  V30 49 H 3.794311 1.939265 -4.076012 0
M  V30 50 H 3.533252 0.361883 -3.169800 0
M  V30 51 H 0.099462 1.369906 -3.300825 0
M  V30 52 H 1.321704 0.005843 -3.428651 0
M  V30 53 H 1.293584 1.329654 -4.598613 0
M  V30 54 H 1.059260 3.727539 -2.430212 0
M  V30 55 H 2.836300 3.931404 -2.815934 0
M  V30 56 H 1.652119 3.458271 -4.147450 0
M  V30 57 H -0.142043 2.490004 -1.124450 0
M  V30 58 H -0.320885 2.887125 2.178063 0
M  V30 59 H -2.200671 1.861957 3.168602 0
M  V30 60 H -2.874806 -0.886503 3.576742 0
M  V30 61 H -3.675635 0.583081 4.094070 0
M  V30 62 H -5.435900 1.565957 3.025691 0
M  V30 63 H -7.657710 -0.447011 0.105701 0
M  V30 64 H -3.705136 -0.330063 -0.851252 0
M  V30 65 H -2.222752 -0.377635 -2.772814 0
M  V30 66 H 0.187789 -3.821898 -3.452020 0
M  V30 67 H 1.631855 -3.465872 -2.398508 0
M  V30 68 H 1.448262 -5.665997 -3.840914 0
M  V30 69 H 2.072508 -5.751501 -2.105291 0
M  V30 70 H 0.673623 -7.277141 -0.703816 0
M  V30 71 H -1.107805 -6.938358 -0.957032 0
M  V30 72 H -0.581936 -5.129157 0.458755 0
M  V30 73 H 1.133619 -5.157854 -0.044485 0
M  V30 74 H 3.350348 2.684232 2.826657 0
M  V30 75 H 4.247596 1.667383 4.948178 0
M  V30 END ATOM
M  V30 BEGIN BOND
M  V30 1 1 1 2
M  V30 2 2 2 3
M  V30 3 1 3 4
M  V30 4 2 4 5
M  V30 5 1 5 6
M  V30 6 1 6 7
M  V30 7 2 7 8
M  V30 8 1 8 9
M  V30 9 1 9 10
M  V30 10 1 9 11
M  V30 11 1 9 12
M  V30 12 1 8 13
M  V30 13 2 13 14
M  V30 14 1 14 15
M  V30 15 1 15 16
M  V30 16 2 16 17
M  V30 17 1 16 18
M  V30 18 1 18 19
M  V30 19 1 19 20
M  V30 20 2 20 21
M  V30 21 1 21 22
M  V30 22 1 22 23
M  V30 23 2 22 24
M  V30 24 1 24 25
M  V30 25 1 25 26
M  V30 26 2 25 27
M  V30 27 1 27 28
M  V30 28 1 28 29
M  V30 29 2 29 30
M  V30 30 1 30 31
M  V30 31 2 31 32
M  V30 32 1 32 33
M  V30 33 1 33 34
M  V30 34 1 34 35
M  V30 35 1 35 36
M  V30 36 1 36 37
M  V30 37 1 37 38
M  V30 38 1 38 39
M  V30 39 2 33 40
M  V30 40 1 5 41
M  V30 41 2 41 42
M  V30 42 1 42 2
M  V30 43 1 14 6
M  V30 44 1 27 20
M  V30 45 1 40 29
M  V30 46 1 39 34
M  V30 47 1 1 43
M  V30 48 1 1 44
M  V30 49 1 1 45
M  V30 50 1 3 46
M  V30 51 1 4 47
M  V30 52 1 10 48
M  V30 53 1 10 49
M  V30 54 1 10 50
M  V30 55 1 11 51
M  V30 56 1 11 52
M  V30 57 1 11 53
M  V30 58 1 12 54
M  V30 59 1 12 55
M  V30 60 1 12 56
M  V30 61 1 13 57
M  V30 62 1 15 58
M  V30 63 1 18 59
M  V30 64 1 19 60
M  V30 65 1 19 61
M  V30 66 1 21 62
M  V30 67 1 24 63
M  V30 68 1 30 64
M  V30 69 1 31 65
M  V30 70 1 35 66
M  V30 71 1 35 67
M  V30 72 1 36 68
M  V30 73 1 36 69
M  V30 74 1 38 70
M  V30 75 1 38 71
M  V30 76 1 39 72
M  V30 77 1 39 73
M  V30 78 1 41 74
M  V30 79 1 42 75
M  V30 END BOND
M  V30 END CTAB
M  END
>  <Dataset>  (358) 
ChEMBL_Kinases

>  <Ligand_Instance>  (358) 
nan

>  <PDB_ID>  (358) 
nan

>  <Standardized_SMILES>  (358) 
Cc1ccc(-n2nc(C(C)(C)C)cc2NC(=O)NCc2cc(F)cc(F)c2Oc2ccnc(N3CCOCC3)n2)cc1

>  <Name>  (358) 
nan

>  <Pocket>  (358) 
nan

>  <ATP_Site>  (358) 
nan

>  <Peripheral>  (358) 
nan

>  <Num_H_Atoms_ProtBoundConf>  (358) 
nan

>  <Num_Resolved_Atoms>  (358) 
nan

>  <Num_Not_Resolved_Atoms>  (358) 
nan

$$$$
CHEMBL2058052
     RDKit          3D

  0  0  0  0  0  0  0  0  0  0999 V3000
M  V30 BEGIN CTAB
M  V30 COUNTS 75 79 0 0 0
M  V30 BEGIN ATOM
M  V30 1 C 4.209033 -0.638438 5.741344 0
M  V30 2 C 3.668918 -0.065466 4.476864 0
M  V30 3 C 3.160451 -0.913875 3.517174 0
M  V30 4 C 2.666023 -0.332415 2.347195 0
M  V30 5 C 2.680390 1.042281 2.146940 0
M  V30 6 N 2.134957 1.409150 0.895617 0
M  V30 7 N 2.669061 1.460576 -0.312566 0
M  V30 8 C 1.758287 1.872531 -1.207485 0
M  V30 9 C 1.984387 2.055456 -2.668974 0
M  V30 10 C 3.396831 1.722904 -3.033869 0
M  V30 11 C 1.071549 1.118402 -3.437134 0
M  V30 12 C 1.587409 3.475276 -3.009698 0
M  V30 13 C 0.591395 2.087749 -0.506157 0
M  V30 14 C 0.845962 1.788056 0.836648 0
M  V30 15 N -0.241404 1.946836 1.738663 0
M  V30 16 C -1.063120 0.814564 1.918030 0
M  V30 17 O -0.806603 -0.242160 1.298722 0
M  V30 18 N -2.188693 0.672184 2.725151 0
M  V30 19 C -3.266279 -0.129897 3.206094 0
M  V30 20 C -4.323886 -0.476205 2.270024 0
M  V30 21 C -5.403489 0.414407 2.405582 0
M  V30 22 C -6.570324 0.377377 1.671531 0
M  V30 23 F -7.610906 1.231044 1.797971 0
M  V30 24 C -6.728285 -0.602195 0.713695 0
M  V30 25 C -5.695017 -1.496294 0.547119 0
M  V30 26 Cl -5.842031 -2.752084 -0.649921 0
M  V30 27 C -4.554392 -1.410519 1.308315 0
M  V30 28 O -3.576852 -2.349162 1.068088 0
M  V30 29 C -2.722430 -2.303016 -0.022662 0
M  V30 30 C -2.846557 -1.267018 -0.956473 0
M  V30 31 C -1.977216 -1.236602 -2.051796 0
M  V30 32 N -1.036045 -2.216079 -2.176699 0
M  V30 33 C -0.932624 -3.202707 -1.269205 0
M  V30 34 N 0.079673 -4.175699 -1.485522 0
M  V30 35 C 0.948230 -4.024095 -2.638697 0
M  V30 36 C 1.366279 -5.456492 -2.999657 0
M  V30 37 O 0.326785 -6.337267 -2.804257 0
M  V30 38 C -0.044601 -6.533525 -1.498251 0
M  V30 39 C 0.307789 -5.322862 -0.626419 0
M  V30 40 N -1.758424 -3.250331 -0.209031 0
M  V30 41 C 3.200112 1.841573 3.139752 0
M  V30 42 C 3.696099 1.309879 4.304570 0
M  V30 43 H 5.329344 -0.643983 5.717689 0
M  V30 44 H 3.808973 -1.650468 5.944573 0
M  V30 45 H 3.925314 0.001512 6.601612 0
M  V30 46 H 3.157407 -1.964509 3.688245 0
M  V30 47 H 2.279224 -1.073804 1.635986 0
M  V30 48 H 4.079498 2.216938 -2.317017 0
M  V30 49 H 3.572557 2.043855 -4.071818 0
M  V30 50 H 3.496033 0.616600 -2.984793 0
M  V30 51 H 0.010404 1.225779 -3.175450 0
M  V30 52 H 1.376914 0.080809 -3.217838 0
M  V30 53 H 1.258150 1.293518 -4.505079 0
M  V30 54 H 0.709365 3.721926 -2.348045 0
M  V30 55 H 2.401491 4.125420 -2.662811 0
M  V30 56 H 1.326148 3.567726 -4.073589 0
M  V30 57 H -0.306446 2.432499 -1.023318 0
M  V30 58 H -0.491925 2.797202 2.271355 0
M  V30 59 H -2.310963 1.625205 3.221621 0
M  V30 60 H -2.811778 -1.162984 3.520584 0
M  V30 61 H -3.655286 0.223558 4.173357 0
M  V30 62 H -5.456961 1.258704 3.116485 0
M  V30 63 H -7.600489 -0.715187 0.089839 0
M  V30 64 H -3.594967 -0.482999 -0.865427 0
M  V30 65 H -2.107551 -0.420013 -2.748456 0
M  V30 66 H 0.450729 -3.606118 -3.522085 0
M  V30 67 H 1.894534 -3.510937 -2.356369 0
M  V30 68 H 1.628320 -5.451664 -4.060813 0
M  V30 69 H 2.287450 -5.754205 -2.433926 0
M  V30 70 H -1.169735 -6.561767 -1.495394 0
M  V30 71 H 0.291767 -7.477918 -1.060331 0
M  V30 72 H -0.364080 -5.270615 0.240478 0
M  V30 73 H 1.331842 -5.366171 -0.229615 0
M  V30 74 H 3.161573 2.899575 2.878762 0
M  V30 75 H 4.088815 1.995559 5.041819 0
M  V30 END ATOM
M  V30 BEGIN BOND
M  V30 1 1 1 2
M  V30 2 2 2 3
M  V30 3 1 3 4
M  V30 4 2 4 5
M  V30 5 1 5 6
M  V30 6 1 6 7
M  V30 7 2 7 8
M  V30 8 1 8 9
M  V30 9 1 9 10
M  V30 10 1 9 11
M  V30 11 1 9 12
M  V30 12 1 8 13
M  V30 13 2 13 14
M  V30 14 1 14 15
M  V30 15 1 15 16
M  V30 16 2 16 17
M  V30 17 1 16 18
M  V30 18 1 18 19
M  V30 19 1 19 20
M  V30 20 2 20 21
M  V30 21 1 21 22
M  V30 22 1 22 23
M  V30 23 2 22 24
M  V30 24 1 24 25
M  V30 25 1 25 26
M  V30 26 2 25 27
M  V30 27 1 27 28
M  V30 28 1 28 29
M  V30 29 2 29 30
M  V30 30 1 30 31
M  V30 31 2 31 32
M  V30 32 1 32 33
M  V30 33 1 33 34
M  V30 34 1 34 35
M  V30 35 1 35 36
M  V30 36 1 36 37
M  V30 37 1 37 38
M  V30 38 1 38 39
M  V30 39 2 33 40
M  V30 40 1 5 41
M  V30 41 2 41 42
M  V30 42 1 42 2
M  V30 43 1 14 6
M  V30 44 1 27 20
M  V30 45 1 40 29
M  V30 46 1 39 34
M  V30 47 1 1 43
M  V30 48 1 1 44
M  V30 49 1 1 45
M  V30 50 1 3 46
M  V30 51 1 4 47
M  V30 52 1 10 48
M  V30 53 1 10 49
M  V30 54 1 10 50
M  V30 55 1 11 51
M  V30 56 1 11 52
M  V30 57 1 11 53
M  V30 58 1 12 54
M  V30 59 1 12 55
M  V30 60 1 12 56
M  V30 61 1 13 57
M  V30 62 1 15 58
M  V30 63 1 18 59
M  V30 64 1 19 60
M  V30 65 1 19 61
M  V30 66 1 21 62
M  V30 67 1 24 63
M  V30 68 1 30 64
M  V30 69 1 31 65
M  V30 70 1 35 66
M  V30 71 1 35 67
M  V30 72 1 36 68
M  V30 73 1 36 69
M  V30 74 1 38 70
M  V30 75 1 38 71
M  V30 76 1 39 72
M  V30 77 1 39 73
M  V30 78 1 41 74
M  V30 79 1 42 75
M  V30 END BOND
M  V30 END CTAB
M  END
>  <Dataset>  (359) 
ChEMBL_Kinases

>  <Ligand_Instance>  (359) 
nan

>  <PDB_ID>  (359) 
nan

>  <Standardized_SMILES>  (359) 
Cc1ccc(-n2nc(C(C)(C)C)cc2NC(=O)NCc2cc(F)cc(Cl)c2Oc2ccnc(N3CCOCC3)n2)cc1

>  <Name>  (359) 
nan

>  <Pocket>  (359) 
nan

>  <ATP_Site>  (359) 
nan

>  <Peripheral>  (359) 
nan

>  <Num_H_Atoms_ProtBoundConf>  (359) 
nan

>  <Num_Resolved_Atoms>  (359) 
nan

>  <Num_Not_Resolved_Atoms>  (359) 
nan

$$$$
CHEMBL2058053
     RDKit          3D

  0  0  0  0  0  0  0  0  0  0999 V3000
M  V30 BEGIN CTAB
M  V30 COUNTS 78 82 0 0 0
M  V30 BEGIN ATOM
M  V30 1 C 3.547226 -4.226128 6.044199 0
M  V30 2 C 3.368432 -4.177685 4.566404 0
M  V30 3 C 3.884257 -3.088950 3.876425 0
M  V30 4 C 3.724690 -3.033718 2.509001 0
M  V30 5 C 3.068907 -4.021881 1.788037 0
M  V30 6 N 2.880031 -4.008952 0.381445 0
M  V30 7 N 3.669736 -4.274365 -0.657058 0
M  V30 8 C 2.989839 -4.107919 -1.810395 0
M  V30 9 C 3.597452 -4.328020 -3.156796 0
M  V30 10 C 5.045032 -4.748117 -2.973960 0
M  V30 11 C 2.835919 -5.430866 -3.833225 0
M  V30 12 C 3.491699 -3.033360 -3.935760 0
M  V30 13 C 1.728423 -3.723934 -1.470098 0
M  V30 14 C 1.667020 -3.663680 -0.080352 0
M  V30 15 N 0.418559 -3.275550 0.513234 0
M  V30 16 C 0.119429 -1.913094 0.790433 0
M  V30 17 O 0.976410 -1.020379 0.507601 0
M  V30 18 N -1.100165 -1.456108 1.377333 0
M  V30 19 C -1.134287 -0.033065 1.546512 0
M  V30 20 C -2.410992 0.418245 2.158383 0
M  V30 21 C -2.479074 0.795628 3.504549 0
M  V30 22 C -3.701089 1.215039 4.039101 0
M  V30 23 F -3.765599 1.580517 5.344844 0
M  V30 24 C -4.810123 1.241663 3.207534 0
M  V30 25 C -4.728344 0.867410 1.884360 0
M  V30 26 C -5.989068 0.931744 1.065650 0
M  V30 27 C -3.528841 0.452512 1.347845 0
M  V30 28 O -3.576489 0.107520 0.025000 0
M  V30 29 C -3.329707 1.083995 -0.932643 0
M  V30 30 C -3.384778 0.725714 -2.268812 0
M  V30 31 C -3.150405 1.643234 -3.295322 0
M  V30 32 N -2.858470 2.930527 -2.965425 0
M  V30 33 C -2.809078 3.260469 -1.664711 0
M  V30 34 N -2.499736 4.612771 -1.388703 0
M  V30 35 C -2.277165 5.547692 -2.472526 0
M  V30 36 C -0.820670 6.005307 -2.381985 0
M  V30 37 O -0.229424 5.544902 -1.205467 0
M  V30 38 C -0.963471 5.868851 -0.078242 0
M  V30 39 C -2.362434 5.241877 -0.090533 0
M  V30 40 N -3.033802 2.383099 -0.666073 0
M  V30 41 C 2.557383 -5.106117 2.490901 0
M  V30 42 C 2.702641 -5.187726 3.863207 0
M  V30 43 H 4.605113 -4.035818 6.315670 0
M  V30 44 H 3.152119 -5.199812 6.377369 0
M  V30 45 H 2.888715 -3.440602 6.511447 0
M  V30 46 H 4.411442 -2.264990 4.337233 0
M  V30 47 H 4.096404 -2.226721 1.919459 0
M  V30 48 H 5.228419 -5.191694 -1.991212 0
M  V30 49 H 5.675059 -3.831821 -3.132523 0
M  V30 50 H 5.344890 -5.465194 -3.744938 0
M  V30 51 H 1.903647 -5.721629 -3.332570 0
M  V30 52 H 3.458757 -6.346777 -3.888476 0
M  V30 53 H 2.592105 -5.136148 -4.880161 0
M  V30 54 H 2.508033 -2.572470 -3.670695 0
M  V30 55 H 4.351255 -2.375516 -3.631583 0
M  V30 56 H 3.500720 -3.278660 -5.009218 0
M  V30 57 H 1.006848 -3.533883 -2.250419 0
M  V30 58 H -0.367110 -3.935816 0.789712 0
M  V30 59 H -1.827362 -2.188876 1.618423 0
M  V30 60 H -0.317188 0.234854 2.274920 0
M  V30 61 H -0.876842 0.527811 0.627961 0
M  V30 62 H -1.592323 0.761124 4.120352 0
M  V30 63 H -5.710584 1.570692 3.675381 0
M  V30 64 H -5.776536 0.978508 -0.009676 0
M  V30 65 H -6.695767 1.680916 1.417501 0
M  V30 66 H -6.479272 -0.060438 1.252890 0
M  V30 67 H -3.617077 -0.299148 -2.531466 0
M  V30 68 H -3.207830 1.303164 -4.331108 0
M  V30 69 H -2.488698 5.109618 -3.457120 0
M  V30 70 H -2.900549 6.441713 -2.277993 0
M  V30 71 H -0.246511 5.513912 -3.215337 0
M  V30 72 H -0.735738 7.094700 -2.443675 0
M  V30 73 H -0.419488 5.423262 0.787191 0
M  V30 74 H -0.997425 6.963067 0.042580 0
M  V30 75 H -3.075859 6.109823 -0.109140 0
M  V30 76 H -2.534111 4.571449 0.756164 0
M  V30 77 H 2.038860 -5.898019 1.965245 0
M  V30 78 H 2.308858 -6.030152 4.435818 0
M  V30 END ATOM
M  V30 BEGIN BOND
M  V30 1 1 1 2
M  V30 2 2 2 3
M  V30 3 1 3 4
M  V30 4 2 4 5
M  V30 5 1 5 6
M  V30 6 1 6 7
M  V30 7 2 7 8
M  V30 8 1 8 9
M  V30 9 1 9 10
M  V30 10 1 9 11
M  V30 11 1 9 12
M  V30 12 1 8 13
M  V30 13 2 13 14
M  V30 14 1 14 15
M  V30 15 1 15 16
M  V30 16 2 16 17
M  V30 17 1 16 18
M  V30 18 1 18 19
M  V30 19 1 19 20
M  V30 20 2 20 21
M  V30 21 1 21 22
M  V30 22 1 22 23
M  V30 23 2 22 24
M  V30 24 1 24 25
M  V30 25 1 25 26
M  V30 26 2 25 27
M  V30 27 1 27 28
M  V30 28 1 28 29
M  V30 29 2 29 30
M  V30 30 1 30 31
M  V30 31 2 31 32
M  V30 32 1 32 33
M  V30 33 1 33 34
M  V30 34 1 34 35
M  V30 35 1 35 36
M  V30 36 1 36 37
M  V30 37 1 37 38
M  V30 38 1 38 39
M  V30 39 2 33 40
M  V30 40 1 5 41
M  V30 41 2 41 42
M  V30 42 1 42 2
M  V30 43 1 14 6
M  V30 44 1 27 20
M  V30 45 1 40 29
M  V30 46 1 39 34
M  V30 47 1 1 43
M  V30 48 1 1 44
M  V30 49 1 1 45
M  V30 50 1 3 46
M  V30 51 1 4 47
M  V30 52 1 10 48
M  V30 53 1 10 49
M  V30 54 1 10 50
M  V30 55 1 11 51
M  V30 56 1 11 52
M  V30 57 1 11 53
M  V30 58 1 12 54
M  V30 59 1 12 55
M  V30 60 1 12 56
M  V30 61 1 13 57
M  V30 62 1 15 58
M  V30 63 1 18 59
M  V30 64 1 19 60
M  V30 65 1 19 61
M  V30 66 1 21 62
M  V30 67 1 24 63
M  V30 68 1 26 64
M  V30 69 1 26 65
M  V30 70 1 26 66
M  V30 71 1 30 67
M  V30 72 1 31 68
M  V30 73 1 35 69
M  V30 74 1 35 70
M  V30 75 1 36 71
M  V30 76 1 36 72
M  V30 77 1 38 73
M  V30 78 1 38 74
M  V30 79 1 39 75
M  V30 80 1 39 76
M  V30 81 1 41 77
M  V30 82 1 42 78
M  V30 END BOND
M  V30 END CTAB
M  END
>  <Dataset>  (360) 
ChEMBL_Kinases

>  <Ligand_Instance>  (360) 
nan

>  <PDB_ID>  (360) 
nan

>  <Standardized_SMILES>  (360) 
Cc1ccc(-n2nc(C(C)(C)C)cc2NC(=O)NCc2cc(F)cc(C)c2Oc2ccnc(N3CCOCC3)n2)cc1

>  <Name>  (360) 
nan

>  <Pocket>  (360) 
nan

>  <ATP_Site>  (360) 
nan

>  <Peripheral>  (360) 
nan

>  <Num_H_Atoms_ProtBoundConf>  (360) 
nan

>  <Num_Resolved_Atoms>  (360) 
nan

>  <Num_Not_Resolved_Atoms>  (360) 
nan

$$$$
CHEMBL205820
     RDKit          3D

  0  0  0  0  0  0  0  0  0  0999 V3000
M  V30 BEGIN CTAB
M  V30 COUNTS 36 37 0 0 0
M  V30 BEGIN ATOM
M  V30 1 N -1.565053 -2.467340 2.236041 0
M  V30 2 C -0.265183 -2.841878 2.797724 0
M  V30 3 C 0.087767 -4.256621 2.494160 0
M  V30 4 C 0.174066 -4.570224 1.037910 0
M  V30 5 O 1.056010 -3.950258 0.247076 0
M  V30 6 C 1.352753 -2.742729 -0.210383 0
M  V30 7 C 2.499664 -3.019701 -1.000971 0
M  V30 8 N 3.193651 -2.059822 -1.703270 0
M  V30 9 C 2.769969 -0.766878 -1.647697 0
M  V30 10 C 1.664374 -0.430452 -0.899840 0
M  V30 11 C 1.140987 0.922916 -0.782809 0
M  V30 12 C 0.112110 1.358155 -0.110755 0
M  V30 13 C -0.344790 2.737766 -0.047961 0
M  V30 14 C 0.258783 3.788972 -0.701774 0
M  V30 15 C -0.226888 5.074069 -0.598960 0
M  V30 16 N -1.312622 5.346951 0.147334 0
M  V30 17 C -1.938615 4.352383 0.806427 0
M  V30 18 C -1.451506 3.067759 0.702459 0
M  V30 19 C 0.997759 -1.413947 -0.213450 0
M  V30 20 H -2.119086 -1.888467 2.882281 0
M  V30 21 H -2.057128 -3.341362 1.945400 0
M  V30 22 H -0.418697 -2.743550 3.926025 0
M  V30 23 H 0.550005 -2.171504 2.532148 0
M  V30 24 H -0.707915 -4.888260 2.989816 0
M  V30 25 H 1.019761 -4.513777 3.046490 0
M  V30 26 H -0.910072 -4.496157 0.677008 0
M  V30 27 H 0.353322 -5.703421 0.937208 0
M  V30 28 H 3.082837 -3.930927 -1.249965 0
M  V30 29 H 3.231270 0.067669 -2.153210 0
M  V30 30 H 1.695793 1.675353 -1.341293 0
M  V30 31 H -0.431368 0.604909 0.439588 0
M  V30 32 H 1.118524 3.616937 -1.301470 0
M  V30 33 H 0.279164 5.884604 -1.133072 0
M  V30 34 H -2.809615 4.607343 1.397957 0
M  V30 35 H -1.992554 2.291610 1.255540 0
M  V30 36 H 0.126188 -1.326993 0.393271 0
M  V30 END ATOM
M  V30 BEGIN BOND
M  V30 1 1 1 2
M  V30 2 1 2 3
M  V30 3 1 3 4
M  V30 4 1 4 5
M  V30 5 1 5 6
M  V30 6 2 6 7
M  V30 7 1 7 8
M  V30 8 2 8 9
M  V30 9 1 9 10
M  V30 10 1 10 11
M  V30 11 2 11 12
M  V30 12 1 12 13
M  V30 13 2 13 14
M  V30 14 1 14 15
M  V30 15 2 15 16
M  V30 16 1 16 17
M  V30 17 2 17 18
M  V30 18 2 10 19
M  V30 19 1 19 6
M  V30 20 1 18 13
M  V30 21 1 1 20
M  V30 22 1 1 21
M  V30 23 1 2 22
M  V30 24 1 2 23
M  V30 25 1 3 24
M  V30 26 1 3 25
M  V30 27 1 4 26
M  V30 28 1 4 27
M  V30 29 1 7 28
M  V30 30 1 9 29
M  V30 31 1 11 30
M  V30 32 1 12 31
M  V30 33 1 14 32
M  V30 34 1 15 33
M  V30 35 1 17 34
M  V30 36 1 18 35
M  V30 37 1 19 36
M  V30 END BOND
M  V30 END CTAB
M  END
>  <Dataset>  (361) 
ChEMBL_Kinases

>  <Ligand_Instance>  (361) 
nan

>  <PDB_ID>  (361) 
nan

>  <Standardized_SMILES>  (361) 
NCCCOc1cncc(/C=C/c2ccncc2)c1

>  <Name>  (361) 
nan

>  <Pocket>  (361) 
nan

>  <ATP_Site>  (361) 
nan

>  <Peripheral>  (361) 
nan

>  <Num_H_Atoms_ProtBoundConf>  (361) 
nan

>  <Num_Resolved_Atoms>  (361) 
nan

>  <Num_Not_Resolved_Atoms>  (361) 
nan

$$$$
CHEMBL206017
     RDKit          3D

  0  0  0  0  0  0  0  0  0  0999 V3000
M  V30 BEGIN CTAB
M  V30 COUNTS 55 59 0 0 0
M  V30 BEGIN ATOM
M  V30 1 O -3.676099 -1.591822 -0.820870 0
M  V30 2 C -4.263172 -2.352037 0.026531 0
M  V30 3 N -3.359059 -2.712540 1.069867 0
M  V30 4 C -2.097562 -2.075105 0.778434 0
M  V30 5 C -1.833679 -0.817156 1.281520 0
M  V30 6 C -0.610515 -0.260871 0.959897 0
M  V30 7 C 0.314036 -0.918339 0.174398 0
M  V30 8 C 1.619222 -0.382901 -0.200764 0
M  V30 9 C 2.046145 0.860278 0.211799 0
M  V30 10 C 3.283734 1.349194 -0.154821 0
M  V30 11 C 3.766654 2.661795 0.265093 0
M  V30 12 C 3.054772 3.784875 -0.121043 0
M  V30 13 N 3.734908 4.832682 0.410416 0
M  V30 14 N 4.813229 4.435887 1.095339 0
M  V30 15 C 4.861680 3.090385 1.024277 0
M  V30 16 C 5.794329 2.110099 1.565401 0
M  V30 17 C 5.593098 1.091805 2.470651 0
M  V30 18 C 6.637339 0.273750 2.844121 0
M  V30 19 C 7.905687 0.485527 2.296157 0
M  V30 20 C 8.090485 1.508953 1.391344 0
M  V30 21 N 7.038873 2.296696 1.045192 0
M  V30 22 C 4.155407 0.628889 -0.947175 0
M  V30 23 C 3.674471 -0.626038 -1.338926 0
M  V30 24 N 2.464463 -1.107036 -0.981925 0
M  V30 25 C -0.038331 -2.173711 -0.283520 0
M  V30 26 C -1.235348 -2.808428 -0.014196 0
M  V30 27 C -5.672782 -2.771014 -0.094793 0
M  V30 28 C -5.888420 -4.249539 -0.190702 0
M  V30 29 C -7.282639 -4.410270 -0.811191 0
M  V30 30 O -8.042331 -3.249962 -0.684883 0
M  V30 31 C -7.999193 -2.683034 0.575147 0
M  V30 32 C -6.592474 -2.200106 0.932410 0
M  V30 33 H -3.744408 -3.346156 1.832192 0
M  V30 34 H -2.562053 -0.320197 1.889953 0
M  V30 35 H -0.369944 0.710181 1.330677 0
M  V30 36 H 1.433999 1.495531 0.833762 0
M  V30 37 H 2.165737 4.022944 -0.692630 0
M  V30 38 H 3.619163 5.878473 0.413750 0
M  V30 39 H 4.562785 1.046106 2.810763 0
M  V30 40 H 6.406744 -0.504009 3.558523 0
M  V30 41 H 8.723077 -0.181764 2.610720 0
M  V30 42 H 9.082874 1.682119 0.956154 0
M  V30 43 H 5.123571 0.881818 -1.299280 0
M  V30 44 H 4.208080 -1.345101 -1.963531 0
M  V30 45 H 0.677611 -2.724195 -0.912390 0
M  V30 46 H -1.477200 -3.790960 -0.389571 0
M  V30 47 H -6.020813 -2.352230 -1.083023 0
M  V30 48 H -5.124327 -4.702731 -0.830470 0
M  V30 49 H -5.967164 -4.699001 0.825735 0
M  V30 50 H -7.171993 -4.583770 -1.921992 0
M  V30 51 H -7.801547 -5.318578 -0.431869 0
M  V30 52 H -8.367012 -3.371461 1.350966 0
M  V30 53 H -8.730591 -1.833473 0.547891 0
M  V30 54 H -6.378078 -2.518727 1.968537 0
M  V30 55 H -6.600356 -1.086662 0.929195 0
M  V30 END ATOM
M  V30 BEGIN BOND
M  V30 1 2 1 2
M  V30 2 1 2 3
M  V30 3 1 3 4
M  V30 4 2 4 5
M  V30 5 1 5 6
M  V30 6 2 6 7
M  V30 7 1 7 8
M  V30 8 2 8 9
M  V30 9 1 9 10
M  V30 10 1 10 11
M  V30 11 2 11 12
M  V30 12 1 12 13
M  V30 13 1 13 14
M  V30 14 2 14 15
M  V30 15 1 15 16
M  V30 16 2 16 17
M  V30 17 1 17 18
M  V30 18 2 18 19
M  V30 19 1 19 20
M  V30 20 2 20 21
M  V30 21 2 10 22
M  V30 22 1 22 23
M  V30 23 2 23 24
M  V30 24 1 7 25
M  V30 25 2 25 26
M  V30 26 1 2 27
M  V30 27 1 27 28
M  V30 28 1 28 29
M  V30 29 1 29 30
M  V30 30 1 30 31
M  V30 31 1 31 32
M  V30 32 1 26 4
M  V30 33 1 32 27
M  V30 34 1 24 8
M  V30 35 1 15 11
M  V30 36 1 21 16
M  V30 37 1 3 33
M  V30 38 1 5 34
M  V30 39 1 6 35
M  V30 40 1 9 36
M  V30 41 1 12 37
M  V30 42 1 13 38
M  V30 43 1 17 39
M  V30 44 1 18 40
M  V30 45 1 19 41
M  V30 46 1 20 42
M  V30 47 1 22 43
M  V30 48 1 23 44
M  V30 49 1 25 45
M  V30 50 1 26 46
M  V30 51 1 27 47
M  V30 52 1 28 48
M  V30 53 1 28 49
M  V30 54 1 29 50
M  V30 55 1 29 51
M  V30 56 1 31 52
M  V30 57 1 31 53
M  V30 58 1 32 54
M  V30 59 1 32 55
M  V30 END BOND
M  V30 END CTAB
M  END
>  <Dataset>  (362) 
ChEMBL_Kinases

>  <Ligand_Instance>  (362) 
nan

>  <PDB_ID>  (362) 
nan

>  <Standardized_SMILES>  (362) 
O=C(Nc1ccc(-c2cc(-c3c[nH]nc3-c3ccccn3)ccn2)cc1)C1CCOCC1

>  <Name>  (362) 
nan

>  <Pocket>  (362) 
nan

>  <ATP_Site>  (362) 
nan

>  <Peripheral>  (362) 
nan

>  <Num_H_Atoms_ProtBoundConf>  (362) 
nan

>  <Num_Resolved_Atoms>  (362) 
nan

>  <Num_Not_Resolved_Atoms>  (362) 
nan

$$$$
CHEMBL205906
     RDKit          3D

  0  0  0  0  0  0  0  0  0  0999 V3000
M  V30 BEGIN CTAB
M  V30 COUNTS 43 46 0 0 0
M  V30 BEGIN ATOM
M  V30 1 C 0.463352 -1.979594 3.232586 0
M  V30 2 N -0.134086 -2.292755 1.950320 0
M  V30 3 C -0.108908 -1.673055 0.756831 0
M  V30 4 C 0.672736 -0.416236 0.693332 0
M  V30 5 C 0.013254 0.726871 1.105047 0
M  V30 6 C 0.629418 1.964501 1.096288 0
M  V30 7 C 1.939697 2.064984 0.664911 0
M  V30 8 O 2.569231 3.290604 0.649718 0
M  V30 9 C 2.599927 4.191308 -0.377094 0
M  V30 10 C 2.020612 4.097045 -1.627521 0
M  V30 11 C 2.174242 5.133746 -2.530646 0
M  V30 12 C 2.901489 6.255119 -2.184899 0
M  V30 13 C 3.500429 6.384926 -0.931624 0
M  V30 14 C 3.326886 5.327857 -0.050669 0
M  V30 15 C 2.606128 0.909931 0.248828 0
M  V30 16 C 1.983144 -0.321751 0.260932 0
M  V30 17 N -0.833243 -2.372003 -0.142916 0
M  V30 18 C -1.326826 -3.451700 0.485172 0
M  V30 19 C -2.116981 -4.517862 0.128375 0
M  V30 20 C -2.509620 -5.541131 0.966021 0
M  V30 21 C -2.071693 -5.489855 2.273674 0
M  V30 22 C -2.406388 -6.510787 3.290434 0
M  V30 23 N -3.220546 -7.594559 2.860539 0
M  V30 24 O -2.076367 -6.566418 4.491196 0
M  V30 25 C -1.275984 -4.436343 2.674425 0
M  V30 26 C -0.894214 -3.420018 1.816078 0
M  V30 27 H 1.061067 -2.816528 3.640128 0
M  V30 28 H 1.034657 -1.026741 3.202030 0
M  V30 29 H -0.371636 -1.815882 3.951669 0
M  V30 30 H -1.019913 0.679577 1.450364 0
M  V30 31 H 0.148342 2.878357 1.409668 0
M  V30 32 H 1.474317 3.179987 -1.796633 0
M  V30 33 H 1.697675 5.013970 -3.507904 0
M  V30 34 H 3.012042 7.060429 -2.906937 0
M  V30 35 H 4.057708 7.278015 -0.707681 0
M  V30 36 H 3.827867 5.513212 0.903447 0
M  V30 37 H 3.625674 0.948524 -0.093247 0
M  V30 38 H 2.434576 -1.254523 -0.045495 0
M  V30 39 H -2.450089 -4.540234 -0.899948 0
M  V30 40 H -3.131042 -6.367833 0.661181 0
M  V30 41 H -3.376584 -8.185182 1.989677 0
M  V30 42 H -3.536676 -8.282715 2.142736 0
M  V30 43 H -0.938708 -4.404642 3.696397 0
M  V30 END ATOM
M  V30 BEGIN BOND
M  V30 1 1 1 2
M  V30 2 1 2 3
M  V30 3 1 3 4
M  V30 4 2 4 5
M  V30 5 1 5 6
M  V30 6 2 6 7
M  V30 7 1 7 8
M  V30 8 1 8 9
M  V30 9 2 9 10
M  V30 10 1 10 11
M  V30 11 2 11 12
M  V30 12 1 12 13
M  V30 13 2 13 14
M  V30 14 1 7 15
M  V30 15 2 15 16
M  V30 16 2 3 17
M  V30 17 1 17 18
M  V30 18 2 18 19
M  V30 19 1 19 20
M  V30 20 2 20 21
M  V30 21 1 21 22
M  V30 22 1 22 23
M  V30 23 2 22 24
M  V30 24 1 21 25
M  V30 25 2 25 26
M  V30 26 1 26 2
M  V30 27 1 16 4
M  V30 28 1 26 18
M  V30 29 1 14 9
M  V30 30 1 1 27
M  V30 31 1 1 28
M  V30 32 1 1 29
M  V30 33 1 5 30
M  V30 34 1 6 31
M  V30 35 1 10 32
M  V30 36 1 11 33
M  V30 37 1 12 34
M  V30 38 1 13 35
M  V30 39 1 14 36
M  V30 40 1 15 37
M  V30 41 1 16 38
M  V30 42 1 19 39
M  V30 43 1 20 40
M  V30 44 1 23 41
M  V30 45 1 23 42
M  V30 46 1 25 43
M  V30 END BOND
M  V30 END CTAB
M  END
>  <Dataset>  (363) 
ChEMBL_Kinases

>  <Ligand_Instance>  (363) 
nan

>  <PDB_ID>  (363) 
nan

>  <Standardized_SMILES>  (363) 
Cn1c(-c2ccc(Oc3ccccc3)cc2)nc2ccc(C(N)=O)cc21

>  <Name>  (363) 
nan

>  <Pocket>  (363) 
nan

>  <ATP_Site>  (363) 
nan

>  <Peripheral>  (363) 
nan

>  <Num_H_Atoms_ProtBoundConf>  (363) 
nan

>  <Num_Resolved_Atoms>  (363) 
nan

>  <Num_Not_Resolved_Atoms>  (363) 
nan

$$$$
CHEMBL205922
     RDKit          3D

  0  0  0  0  0  0  0  0  0  0999 V3000
M  V30 BEGIN CTAB
M  V30 COUNTS 34 36 0 0 0
M  V30 BEGIN ATOM
M  V30 1 N -1.977460 -8.527399 0.750070 0
M  V30 2 C -1.815706 -7.390786 0.703658 0
M  V30 3 C -1.614787 -5.985192 0.627161 0
M  V30 4 C -0.491468 -5.399122 0.087276 0
M  V30 5 C -0.362562 -4.032054 0.047676 0
M  V30 6 C -1.299167 -3.150392 0.522325 0
M  V30 7 C -1.195035 -1.703047 0.522831 0
M  V30 8 O -2.329845 -1.103741 0.543919 0
M  V30 9 C -0.025432 -0.842719 0.504561 0
M  V30 10 C 1.328665 -1.077945 0.555554 0
M  V30 11 N 1.974405 0.115931 0.522410 0
M  V30 12 N 1.068255 1.086966 0.452850 0
M  V30 13 C 1.454886 2.454824 0.404657 0
M  V30 14 C 1.761133 3.221829 -0.726569 0
M  V30 15 C 2.117327 4.546169 -0.559118 0
M  V30 16 C 2.188048 5.153722 0.660084 0
M  V30 17 F 2.550289 6.460810 0.671888 0
M  V30 18 C 1.888319 4.406295 1.775723 0
M  V30 19 C 1.522371 3.064236 1.663509 0
M  V30 20 C -0.166031 0.524380 0.440790 0
M  V30 21 N -1.295574 1.402672 0.367698 0
M  V30 22 C -2.420134 -3.760475 1.060397 0
M  V30 23 C -2.571282 -5.124012 1.110578 0
M  V30 24 H 0.268906 -6.071318 -0.298700 0
M  V30 25 H 0.535021 -3.685391 -0.399286 0
M  V30 26 H 1.795957 -2.041575 0.618907 0
M  V30 27 H 1.684173 2.672702 -1.653514 0
M  V30 28 H 2.325557 5.013075 -1.509521 0
M  V30 29 H 1.950265 4.908034 2.727335 0
M  V30 30 H 1.303818 2.552627 2.601200 0
M  V30 31 H -1.378072 2.277729 0.933938 0
M  V30 32 H -2.061883 1.136399 -0.289254 0
M  V30 33 H -3.222267 -3.132017 1.464764 0
M  V30 34 H -3.492295 -5.514702 1.552447 0
M  V30 END ATOM
M  V30 BEGIN BOND
M  V30 1 3 1 2
M  V30 2 1 2 3
M  V30 3 2 3 4
M  V30 4 1 4 5
M  V30 5 2 5 6
M  V30 6 1 6 7
M  V30 7 2 7 8
M  V30 8 1 7 9
M  V30 9 1 9 10
M  V30 10 2 10 11
M  V30 11 1 11 12
M  V30 12 1 12 13
M  V30 13 2 13 14
M  V30 14 1 14 15
M  V30 15 2 15 16
M  V30 16 1 16 17
M  V30 17 1 16 18
M  V30 18 2 18 19
M  V30 19 1 12 20
M  V30 20 1 20 21
M  V30 21 1 6 22
M  V30 22 2 22 23
M  V30 23 1 23 3
M  V30 24 2 20 9
M  V30 25 1 19 13
M  V30 26 1 4 24
M  V30 27 1 5 25
M  V30 28 1 10 26
M  V30 29 1 14 27
M  V30 30 1 15 28
M  V30 31 1 18 29
M  V30 32 1 19 30
M  V30 33 1 21 31
M  V30 34 1 21 32
M  V30 35 1 22 33
M  V30 36 1 23 34
M  V30 END BOND
M  V30 END CTAB
M  END
>  <Dataset>  (364) 
ChEMBL_Kinases

>  <Ligand_Instance>  (364) 
nan

>  <PDB_ID>  (364) 
nan

>  <Standardized_SMILES>  (364) 
N#Cc1ccc(C(=O)c2cnn(-c3ccc(F)cc3)c2N)cc1

>  <Name>  (364) 
nan

>  <Pocket>  (364) 
nan

>  <ATP_Site>  (364) 
nan

>  <Peripheral>  (364) 
nan

>  <Num_H_Atoms_ProtBoundConf>  (364) 
nan

>  <Num_Resolved_Atoms>  (364) 
nan

>  <Num_Not_Resolved_Atoms>  (364) 
nan

$$$$
CHEMBL205950
     RDKit          3D

  0  0  0  0  0  0  0  0  0  0999 V3000
M  V30 BEGIN CTAB
M  V30 COUNTS 57 59 0 0 0
M  V30 BEGIN ATOM
M  V30 1 C 3.428670 2.777584 2.805325 0
M  V30 2 N 4.008663 1.513679 3.157717 0
M  V30 3 C 3.621275 1.100959 4.491072 0
M  V30 4 C 3.682186 0.495254 2.171343 0
M  V30 5 C 4.380215 0.804732 0.883243 0
M  V30 6 O 4.078125 -0.150661 -0.075767 0
M  V30 7 C 2.838581 -0.359472 -0.584787 0
M  V30 8 C 1.595103 0.186397 -0.427716 0
M  V30 9 C 0.452137 -0.202250 -1.073419 0
M  V30 10 O -0.746321 0.285515 -0.955555 0
M  V30 11 C -1.674959 1.087223 -0.483432 0
M  V30 12 C -2.057432 1.153450 0.943699 0
M  V30 13 C -3.181213 2.188905 1.102583 0
M  V30 14 C -1.046049 1.380588 2.000141 0
M  V30 15 O -1.164237 -0.001351 2.300020 0
M  V30 16 C -2.428062 -0.120648 1.655090 0
M  V30 17 C 0.569746 -1.262778 -1.985611 0
M  V30 18 N -0.569154 -1.753405 -2.724013 0
M  V30 19 C -1.383399 -2.797778 -2.186034 0
M  V30 20 O -0.971918 -3.190221 -1.041411 0
M  V30 21 N -2.523247 -3.333831 -2.858060 0
M  V30 22 C -3.188766 -4.367696 -2.137007 0
M  V30 23 C -4.215193 -4.099048 -1.249047 0
M  V30 24 N -4.825986 -5.114898 -0.578566 0
M  V30 25 C -4.412086 -6.395169 -0.795319 0
M  V30 26 C -5.085969 -7.425653 -0.066450 0
M  V30 27 N -5.623656 -8.263142 0.523393 0
M  V30 28 C -3.396918 -6.665397 -1.673355 0
M  V30 29 N -2.784078 -5.654179 -2.344957 0
M  V30 30 C 1.794144 -1.892821 -2.224048 0
M  V30 31 C 2.899245 -1.415067 -1.507957 0
M  V30 32 Cl 4.370719 -2.314899 -1.921402 0
M  V30 33 H 2.397325 2.609208 2.402520 0
M  V30 34 H 4.040920 3.324740 2.035580 0
M  V30 35 H 3.384113 3.403974 3.713168 0
M  V30 36 H 4.156424 0.173357 4.754726 0
M  V30 37 H 2.517201 0.984000 4.569690 0
M  V30 38 H 3.913821 1.918815 5.177343 0
M  V30 39 H 2.626663 0.250541 2.098994 0
M  V30 40 H 4.152433 -0.451618 2.606513 0
M  V30 41 H 5.486703 0.673917 1.105352 0
M  V30 42 H 4.199349 1.851141 0.541120 0
M  V30 43 H 1.566545 1.004786 0.254050 0
M  V30 44 H -1.384828 2.163454 -0.747154 0
M  V30 45 H -2.671410 1.022174 -1.044125 0
M  V30 46 H -3.294950 2.446626 2.158033 0
M  V30 47 H -2.785660 3.090915 0.558683 0
M  V30 48 H -4.084236 1.863263 0.586739 0
M  V30 49 H -1.428586 1.962267 2.894465 0
M  V30 50 H -0.059992 1.748855 1.769047 0
M  V30 51 H -3.258637 -0.023787 2.387300 0
M  V30 52 H -2.561255 -1.015554 1.046632 0
M  V30 53 H -0.826357 -1.365819 -3.656132 0
M  V30 54 H -2.706433 -2.892547 -3.779104 0
M  V30 55 H -4.532511 -3.060057 -1.090156 0
M  V30 56 H -3.057012 -7.684195 -1.854274 0
M  V30 57 H 1.832223 -2.706133 -2.937630 0
M  V30 END ATOM
M  V30 BEGIN BOND
M  V30 1 1 1 2
M  V30 2 1 2 3
M  V30 3 1 2 4
M  V30 4 1 4 5
M  V30 5 1 5 6
M  V30 6 1 6 7
M  V30 7 2 7 8
M  V30 8 1 8 9
M  V30 9 1 9 10
M  V30 10 1 10 11
M  V30 11 1 11 12
M  V30 12 1 12 13
M  V30 13 1 12 14
M  V30 14 1 14 15
M  V30 15 1 15 16
M  V30 16 2 9 17
M  V30 17 1 17 18
M  V30 18 1 18 19
M  V30 19 2 19 20
M  V30 20 1 19 21
M  V30 21 1 21 22
M  V30 22 2 22 23
M  V30 23 1 23 24
M  V30 24 2 24 25
M  V30 25 1 25 26
M  V30 26 3 26 27
M  V30 27 1 25 28
M  V30 28 2 28 29
M  V30 29 1 17 30
M  V30 30 2 30 31
M  V30 31 1 31 32
M  V30 32 1 31 7
M  V30 33 1 16 12
M  V30 34 1 29 22
M  V30 35 1 1 33
M  V30 36 1 1 34
M  V30 37 1 1 35
M  V30 38 1 3 36
M  V30 39 1 3 37
M  V30 40 1 3 38
M  V30 41 1 4 39
M  V30 42 1 4 40
M  V30 43 1 5 41
M  V30 44 1 5 42
M  V30 45 1 8 43
M  V30 46 1 11 44
M  V30 47 1 11 45
M  V30 48 1 13 46
M  V30 49 1 13 47
M  V30 50 1 13 48
M  V30 51 1 14 49
M  V30 52 1 14 50
M  V30 53 1 16 51
M  V30 54 1 16 52
M  V30 55 1 18 53
M  V30 56 1 21 54
M  V30 57 1 23 55
M  V30 58 1 28 56
M  V30 59 1 30 57
M  V30 END BOND
M  V30 END CTAB
M  END
>  <Dataset>  (365) 
ChEMBL_Kinases

>  <Ligand_Instance>  (365) 
nan

>  <PDB_ID>  (365) 
nan

>  <Standardized_SMILES>  (365) 
CN(C)CCOc1cc(OCC2(C)COC2)c(NC(=O)Nc2cnc(C#N)cn2)cc1Cl

>  <Name>  (365) 
nan

>  <Pocket>  (365) 
nan

>  <ATP_Site>  (365) 
nan

>  <Peripheral>  (365) 
nan

>  <Num_H_Atoms_ProtBoundConf>  (365) 
nan

>  <Num_Resolved_Atoms>  (365) 
nan

>  <Num_Not_Resolved_Atoms>  (365) 
nan

$$$$
CHEMBL205951
     RDKit          3D

  0  0  0  0  0  0  0  0  0  0999 V3000
M  V30 BEGIN CTAB
M  V30 COUNTS 33 34 0 0 0
M  V30 BEGIN ATOM
M  V30 1 C 0.769340 -3.531209 -1.781154 0
M  V30 2 O 0.752146 -2.254060 -1.172599 0
M  V30 3 C 1.797166 -1.874520 -0.344786 0
M  V30 4 C 2.852411 -2.734668 -0.111651 0
M  V30 5 C 3.883213 -2.340081 0.714696 0
M  V30 6 C 5.001956 -3.202950 0.985641 0
M  V30 7 O 5.993387 -2.912872 1.737075 0
M  V30 8 C 3.905905 -1.100076 1.329806 0
M  V30 9 C 2.853123 -0.213287 1.111107 0
M  V30 10 C 1.820430 -0.632318 0.271743 0
M  V30 11 N 0.711151 0.217527 0.000350 0
M  V30 12 C -0.516876 0.321921 0.705856 0
M  V30 13 O -0.805261 -0.359341 1.720382 0
M  V30 14 N -1.403490 1.282389 0.150697 0
M  V30 15 C -2.679284 1.513116 0.736602 0
M  V30 16 C -2.895867 2.454101 1.728119 0
M  V30 17 N -4.155840 2.603778 2.229381 0
M  V30 18 C -5.149947 1.816178 1.728977 0
M  V30 19 C -6.490506 1.969237 2.256172 0
M  V30 20 N -7.576947 2.091425 2.688378 0
M  V30 21 C -4.965701 0.871324 0.742698 0
M  V30 22 N -3.697541 0.741815 0.259091 0
M  V30 23 H -0.259826 -3.773750 -2.132755 0
M  V30 24 H 1.033842 -4.337296 -1.063334 0
M  V30 25 H 1.525377 -3.593305 -2.601737 0
M  V30 26 H 2.913951 -3.723043 -0.552892 0
M  V30 27 H 5.230668 -4.187507 0.649258 0
M  V30 28 H 4.728700 -0.801415 1.981503 0
M  V30 29 H 2.837496 0.763449 1.574985 0
M  V30 30 H 0.962239 0.777396 -0.842916 0
M  V30 31 H -1.223847 1.876103 -0.684953 0
M  V30 32 H -2.035071 3.017912 2.044540 0
M  V30 33 H -5.775514 0.271956 0.376827 0
M  V30 END ATOM
M  V30 BEGIN BOND
M  V30 1 1 1 2
M  V30 2 1 2 3
M  V30 3 2 3 4
M  V30 4 1 4 5
M  V30 5 1 5 6
M  V30 6 2 6 7
M  V30 7 2 5 8
M  V30 8 1 8 9
M  V30 9 2 9 10
M  V30 10 1 10 11
M  V30 11 1 11 12
M  V30 12 2 12 13
M  V30 13 1 12 14
M  V30 14 1 14 15
M  V30 15 2 15 16
M  V30 16 1 16 17
M  V30 17 2 17 18
M  V30 18 1 18 19
M  V30 19 3 19 20
M  V30 20 1 18 21
M  V30 21 2 21 22
M  V30 22 1 10 3
M  V30 23 1 22 15
M  V30 24 1 1 23
M  V30 25 1 1 24
M  V30 26 1 1 25
M  V30 27 1 4 26
M  V30 28 1 6 27
M  V30 29 1 8 28
M  V30 30 1 9 29
M  V30 31 1 11 30
M  V30 32 1 14 31
M  V30 33 1 16 32
M  V30 34 1 21 33
M  V30 END BOND
M  V30 END CTAB
M  END
>  <Dataset>  (366) 
ChEMBL_Kinases

>  <Ligand_Instance>  (366) 
nan

>  <PDB_ID>  (366) 
nan

>  <Standardized_SMILES>  (366) 
COc1cc(C=O)ccc1NC(=O)Nc1cnc(C#N)cn1

>  <Name>  (366) 
nan

>  <Pocket>  (366) 
nan

>  <ATP_Site>  (366) 
nan

>  <Peripheral>  (366) 
nan

>  <Num_H_Atoms_ProtBoundConf>  (366) 
nan

>  <Num_Resolved_Atoms>  (366) 
nan

>  <Num_Not_Resolved_Atoms>  (366) 
nan

$$$$
CHEMBL2059860
     RDKit          3D

  0  0  0  0  0  0  0  0  0  0999 V3000
M  V30 BEGIN CTAB
M  V30 COUNTS 49 52 0 0 0
M  V30 BEGIN ATOM
M  V30 1 C 0.724594 3.444123 -0.192757 0
M  V30 2 C 2.118871 3.015424 0.080701 0
M  V30 3 C 3.163041 3.931503 -0.016306 0
M  V30 4 C 4.490755 3.602176 0.224853 0
M  V30 5 C 4.728939 2.278663 0.576581 0
M  V30 6 C 6.099886 1.840778 0.849421 0
M  V30 7 C 7.236493 2.632576 0.793839 0
M  V30 8 N 8.318431 1.894803 1.104822 0
M  V30 9 C 7.874176 0.631810 1.359185 0
M  V30 10 N 6.523671 0.613058 1.200266 0
M  V30 11 C 3.715654 1.338307 0.683252 0
M  V30 12 C 2.430609 1.708768 0.437225 0
M  V30 13 N 1.320140 0.822143 0.518993 0
M  V30 14 C 0.437401 0.450906 1.554542 0
M  V30 15 O 0.697721 1.037866 2.638541 0
M  V30 16 C -0.611994 -0.516872 1.253699 0
M  V30 17 C -0.869582 -1.142479 0.050607 0
M  V30 18 C -1.924782 -2.029503 -0.001457 0
M  V30 19 C -2.715069 -2.302888 1.097189 0
M  V30 20 O -3.712800 -3.223164 0.810620 0
M  V30 21 C -4.663834 -3.689791 1.732220 0
M  V30 22 C -5.555994 -4.660530 1.045865 0
M  V30 23 C -5.377690 -4.971583 -0.286400 0
M  V30 24 C -6.130005 -5.851023 -1.042145 0
M  V30 25 C -7.163923 -6.468671 -0.361404 0
M  V30 26 C -7.364774 -6.175711 0.972249 0
M  V30 27 N -6.590425 -5.301333 1.660468 0
M  V30 28 C -2.453721 -1.675155 2.297460 0
M  V30 29 C -1.389285 -0.775438 2.364325 0
M  V30 30 H 0.145465 2.541311 -0.501747 0
M  V30 31 H 0.711277 4.108670 -1.084385 0
M  V30 32 H 0.264112 3.969531 0.647025 0
M  V30 33 H 2.954284 4.964975 -0.293722 0
M  V30 34 H 5.280402 4.334116 0.141939 0
M  V30 35 H 7.190996 3.694209 0.529316 0
M  V30 36 H 9.281656 2.309220 1.120321 0
M  V30 37 H 8.569807 -0.157263 1.635915 0
M  V30 38 H 3.899830 0.310292 0.956357 0
M  V30 39 H 1.305180 0.472020 -0.463879 0
M  V30 40 H -0.205207 -0.869134 -0.746353 0
M  V30 41 H -2.044205 -2.471193 -1.000530 0
M  V30 42 H -5.231325 -2.894284 2.251900 0
M  V30 43 H -4.096781 -4.281150 2.500885 0
M  V30 44 H -4.561371 -4.466893 -0.774342 0
M  V30 45 H -5.870937 -5.995528 -2.083410 0
M  V30 46 H -7.775266 -7.164331 -0.920339 0
M  V30 47 H -8.179294 -6.674349 1.473458 0
M  V30 48 H -3.120266 -1.948214 3.100472 0
M  V30 49 H -1.281961 -0.348219 3.350265 0
M  V30 END ATOM
M  V30 BEGIN BOND
M  V30 1 1 1 2
M  V30 2 2 2 3
M  V30 3 1 3 4
M  V30 4 2 4 5
M  V30 5 1 5 6
M  V30 6 2 6 7
M  V30 7 1 7 8
M  V30 8 1 8 9
M  V30 9 2 9 10
M  V30 10 1 5 11
M  V30 11 2 11 12
M  V30 12 1 12 13
M  V30 13 1 13 14
M  V30 14 2 14 15
M  V30 15 1 14 16
M  V30 16 2 16 17
M  V30 17 1 17 18
M  V30 18 2 18 19
M  V30 19 1 19 20
M  V30 20 1 20 21
M  V30 21 1 21 22
M  V30 22 2 22 23
M  V30 23 1 23 24
M  V30 24 2 24 25
M  V30 25 1 25 26
M  V30 26 2 26 27
M  V30 27 1 19 28
M  V30 28 2 28 29
M  V30 29 1 12 2
M  V30 30 1 29 16
M  V30 31 1 10 6
M  V30 32 1 27 22
M  V30 33 1 1 30
M  V30 34 1 1 31
M  V30 35 1 1 32
M  V30 36 1 3 33
M  V30 37 1 4 34
M  V30 38 1 7 35
M  V30 39 1 8 36
M  V30 40 1 9 37
M  V30 41 1 11 38
M  V30 42 1 13 39
M  V30 43 1 17 40
M  V30 44 1 18 41
M  V30 45 1 21 42
M  V30 46 1 21 43
M  V30 47 1 23 44
M  V30 48 1 24 45
M  V30 49 1 25 46
M  V30 50 1 26 47
M  V30 51 1 28 48
M  V30 52 1 29 49
M  V30 END BOND
M  V30 END CTAB
M  END
>  <Dataset>  (367) 
ChEMBL_Kinases

>  <Ligand_Instance>  (367) 
nan

>  <PDB_ID>  (367) 
nan

>  <Standardized_SMILES>  (367) 
Cc1ccc(-c2c[nH]cn2)cc1NC(=O)c1ccc(OCc2ccccn2)cc1

>  <Name>  (367) 
nan

>  <Pocket>  (367) 
nan

>  <ATP_Site>  (367) 
nan

>  <Peripheral>  (367) 
nan

>  <Num_H_Atoms_ProtBoundConf>  (367) 
nan

>  <Num_Resolved_Atoms>  (367) 
nan

>  <Num_Not_Resolved_Atoms>  (367) 
nan

$$$$
CHEMBL2059864
     RDKit          3D

  0  0  0  0  0  0  0  0  0  0999 V3000
M  V30 BEGIN CTAB
M  V30 COUNTS 52 55 0 0 0
M  V30 BEGIN ATOM
M  V30 1 C 4.623005 -4.304374 4.244586 0
M  V30 2 C 4.691352 -2.800392 4.322437 0
M  V30 3 C 5.337534 -1.997245 5.216636 0
M  V30 4 N 5.077596 -0.689716 4.878566 0
M  V30 5 C 4.271686 -0.717073 3.774516 0
M  V30 6 C 3.725136 0.420103 3.053836 0
M  V30 7 C 3.888003 1.738301 3.378697 0
M  V30 8 C 3.388125 2.845203 2.734780 0
M  V30 9 C 2.620255 2.632803 1.611982 0
M  V30 10 C 1.991552 3.679855 0.766103 0
M  V30 11 C 2.405749 1.331333 1.211399 0
M  V30 12 N 1.643214 0.924459 0.053528 0
M  V30 13 C 1.284089 0.585644 -1.182721 0
M  V30 14 O 2.301557 0.619230 -1.968160 0
M  V30 15 C -0.035377 0.212078 -1.663732 0
M  V30 16 C -1.121333 0.507208 -0.887252 0
M  V30 17 C -2.399698 0.148589 -1.274153 0
M  V30 18 C -2.617401 -0.522121 -2.454005 0
M  V30 19 O -3.661524 -1.006165 -3.102576 0
M  V30 20 C -4.989807 -1.184837 -3.100795 0
M  V30 21 C -5.541928 -2.017901 -1.999578 0
M  V30 22 C -5.539388 -1.836096 -0.653528 0
M  V30 23 C -6.083173 -2.611200 0.325946 0
M  V30 24 C -6.741100 -3.762369 -0.095942 0
M  V30 25 C -6.769308 -3.989013 -1.451460 0
M  V30 26 N -6.204066 -3.167458 -2.347046 0
M  V30 27 C -1.481678 -0.813806 -3.238242 0
M  V30 28 C -0.188462 -0.448161 -2.848255 0
M  V30 29 C 2.946075 0.249159 1.917475 0
M  V30 30 N 4.046153 -2.010246 3.446113 0
M  V30 31 H 3.915335 -4.601967 3.459535 0
M  V30 32 H 4.111387 -4.582437 5.220148 0
M  V30 33 H 5.603288 -4.760699 4.167764 0
M  V30 34 H 5.920263 -2.473097 6.009644 0
M  V30 35 H 4.483599 1.979372 4.249789 0
M  V30 36 H 3.552306 3.852322 3.039772 0
M  V30 37 H 0.896680 3.683501 0.920101 0
M  V30 38 H 2.287952 3.568925 -0.300732 0
M  V30 39 H 2.342252 4.676358 1.146449 0
M  V30 40 H 0.755421 0.880489 0.666002 0
M  V30 41 H -1.128706 1.026081 0.060495 0
M  V30 42 H -3.286908 0.364012 -0.721385 0
M  V30 43 H -5.569387 -0.192283 -3.079606 0
M  V30 44 H -5.398736 -1.625699 -4.072865 0
M  V30 45 H -5.049719 -0.955810 -0.294138 0
M  V30 46 H -6.008107 -2.352230 1.366704 0
M  V30 47 H -7.193166 -4.411000 0.630707 0
M  V30 48 H -7.286532 -4.899127 -1.786236 0
M  V30 49 H -1.409180 -1.340203 -4.211193 0
M  V30 50 H 0.730628 -0.632190 -3.380572 0
M  V30 51 H 2.762093 -0.784129 1.577635 0
M  V30 52 H 3.466741 -2.332523 2.646519 0
M  V30 END ATOM
M  V30 BEGIN BOND
M  V30 1 1 1 2
M  V30 2 2 2 3
M  V30 3 1 3 4
M  V30 4 2 4 5
M  V30 5 1 5 6
M  V30 6 2 6 7
M  V30 7 1 7 8
M  V30 8 2 8 9
M  V30 9 1 9 10
M  V30 10 1 9 11
M  V30 11 1 11 12
M  V30 12 1 12 13
M  V30 13 2 13 14
M  V30 14 1 13 15
M  V30 15 2 15 16
M  V30 16 1 16 17
M  V30 17 2 17 18
M  V30 18 1 18 19
M  V30 19 1 19 20
M  V30 20 1 20 21
M  V30 21 2 21 22
M  V30 22 1 22 23
M  V30 23 2 23 24
M  V30 24 1 24 25
M  V30 25 2 25 26
M  V30 26 1 18 27
M  V30 27 2 27 28
M  V30 28 2 11 29
M  V30 29 1 5 30
M  V30 30 1 30 2
M  V30 31 1 29 6
M  V30 32 1 28 15
M  V30 33 1 26 21
M  V30 34 1 1 31
M  V30 35 1 1 32
M  V30 36 1 1 33
M  V30 37 1 3 34
M  V30 38 1 7 35
M  V30 39 1 8 36
M  V30 40 1 10 37
M  V30 41 1 10 38
M  V30 42 1 10 39
M  V30 43 1 12 40
M  V30 44 1 16 41
M  V30 45 1 17 42
M  V30 46 1 20 43
M  V30 47 1 20 44
M  V30 48 1 22 45
M  V30 49 1 23 46
M  V30 50 1 24 47
M  V30 51 1 25 48
M  V30 52 1 27 49
M  V30 53 1 28 50
M  V30 54 1 29 51
M  V30 55 1 30 52
M  V30 END BOND
M  V30 END CTAB
M  END
>  <Dataset>  (368) 
ChEMBL_Kinases

>  <Ligand_Instance>  (368) 
nan

>  <PDB_ID>  (368) 
nan

>  <Standardized_SMILES>  (368) 
Cc1cnc(-c2ccc(C)c(NC(=O)c3ccc(OCc4ccccn4)cc3)c2)[nH]1

>  <Name>  (368) 
nan

>  <Pocket>  (368) 
nan

>  <ATP_Site>  (368) 
nan

>  <Peripheral>  (368) 
nan

>  <Num_H_Atoms_ProtBoundConf>  (368) 
nan

>  <Num_Resolved_Atoms>  (368) 
nan

>  <Num_Not_Resolved_Atoms>  (368) 
nan

$$$$
CHEMBL2059865
     RDKit          3D

  0  0  0  0  0  0  0  0  0  0999 V3000
M  V30 BEGIN CTAB
M  V30 COUNTS 49 52 0 0 0
M  V30 BEGIN ATOM
M  V30 1 C -0.302787 2.197317 3.276093 0
M  V30 2 C 0.936733 2.543732 2.532293 0
M  V30 3 C 1.896960 3.396282 3.088163 0
M  V30 4 C 3.001696 3.643803 2.303387 0
M  V30 5 C 3.236067 3.133577 1.043896 0
M  V30 6 C 4.439324 3.449792 0.282725 0
M  V30 7 N 5.440830 4.257529 0.696781 0
M  V30 8 C 6.392051 4.314852 -0.273476 0
M  V30 9 C 5.941996 3.514335 -1.299760 0
M  V30 10 N 4.733082 2.974718 -0.963444 0
M  V30 11 C 2.280739 2.295061 0.509194 0
M  V30 12 C 1.163380 2.028476 1.271726 0
M  V30 13 N 0.218351 1.140958 0.631998 0
M  V30 14 C 0.654302 -0.159509 1.033119 0
M  V30 15 O 1.684802 -0.111329 1.787163 0
M  V30 16 C 0.063772 -1.470196 0.680417 0
M  V30 17 C 0.743607 -2.550303 1.194274 0
M  V30 18 C 0.200020 -3.799136 0.872870 0
M  V30 19 C -0.950399 -3.931251 0.086132 0
M  V30 20 O -1.309786 -5.228563 -0.107734 0
M  V30 21 C -2.389556 -5.733534 -0.824081 0
M  V30 22 C -3.649708 -5.238249 -0.219834 0
M  V30 23 C -3.873959 -4.569981 0.964146 0
M  V30 24 C -5.150407 -4.206547 1.335677 0
M  V30 25 C -6.252655 -4.502945 0.527372 0
M  V30 26 C -5.987538 -5.172325 -0.648421 0
M  V30 27 N -4.720890 -5.521649 -0.996456 0
M  V30 28 C -1.533491 -2.760605 -0.364910 0
M  V30 29 C -1.061390 -1.498660 -0.093258 0
M  V30 30 H -0.206809 1.239173 3.818021 0
M  V30 31 H -1.147786 2.064493 2.560669 0
M  V30 32 H -0.592646 3.047824 3.952423 0
M  V30 33 H 1.766717 3.823326 4.066822 0
M  V30 34 H 3.781112 4.310388 2.706229 0
M  V30 35 H 7.288004 4.912634 -0.143307 0
M  V30 36 H 6.518143 3.373066 -2.225559 0
M  V30 37 H 4.170161 2.325429 -1.571464 0
M  V30 38 H 2.472821 1.905173 -0.468114 0
M  V30 39 H -0.639886 1.115992 0.002230 0
M  V30 40 H 1.627478 -2.487763 1.800308 0
M  V30 41 H 0.752999 -4.657101 1.289991 0
M  V30 42 H -2.378459 -6.847238 -0.872647 0
M  V30 43 H -2.360517 -5.408212 -1.887322 0
M  V30 44 H -2.965462 -4.389787 1.520980 0
M  V30 45 H -5.263941 -3.691949 2.261584 0
M  V30 46 H -7.244103 -4.202818 0.849095 0
M  V30 47 H -6.842126 -5.412283 -1.293261 0
M  V30 48 H -2.417863 -2.932911 -0.966818 0
M  V30 49 H -1.570086 -0.630537 -0.480314 0
M  V30 END ATOM
M  V30 BEGIN BOND
M  V30 1 1 1 2
M  V30 2 2 2 3
M  V30 3 1 3 4
M  V30 4 2 4 5
M  V30 5 1 5 6
M  V30 6 2 6 7
M  V30 7 1 7 8
M  V30 8 2 8 9
M  V30 9 1 9 10
M  V30 10 1 5 11
M  V30 11 2 11 12
M  V30 12 1 12 13
M  V30 13 1 13 14
M  V30 14 2 14 15
M  V30 15 1 14 16
M  V30 16 2 16 17
M  V30 17 1 17 18
M  V30 18 2 18 19
M  V30 19 1 19 20
M  V30 20 1 20 21
M  V30 21 1 21 22
M  V30 22 2 22 23
M  V30 23 1 23 24
M  V30 24 2 24 25
M  V30 25 1 25 26
M  V30 26 2 26 27
M  V30 27 1 19 28
M  V30 28 2 28 29
M  V30 29 1 12 2
M  V30 30 1 29 16
M  V30 31 1 10 6
M  V30 32 1 27 22
M  V30 33 1 1 30
M  V30 34 1 1 31
M  V30 35 1 1 32
M  V30 36 1 3 33
M  V30 37 1 4 34
M  V30 38 1 8 35
M  V30 39 1 9 36
M  V30 40 1 10 37
M  V30 41 1 11 38
M  V30 42 1 13 39
M  V30 43 1 17 40
M  V30 44 1 18 41
M  V30 45 1 21 42
M  V30 46 1 21 43
M  V30 47 1 23 44
M  V30 48 1 24 45
M  V30 49 1 25 46
M  V30 50 1 26 47
M  V30 51 1 28 48
M  V30 52 1 29 49
M  V30 END BOND
M  V30 END CTAB
M  END
>  <Dataset>  (369) 
ChEMBL_Kinases

>  <Ligand_Instance>  (369) 
nan

>  <PDB_ID>  (369) 
nan

>  <Standardized_SMILES>  (369) 
Cc1ccc(-c2ncc[nH]2)cc1NC(=O)c1ccc(OCc2ccccn2)cc1

>  <Name>  (369) 
nan

>  <Pocket>  (369) 
nan

>  <ATP_Site>  (369) 
nan

>  <Peripheral>  (369) 
nan

>  <Num_H_Atoms_ProtBoundConf>  (369) 
nan

>  <Num_Resolved_Atoms>  (369) 
nan

>  <Num_Not_Resolved_Atoms>  (369) 
nan

$$$$
CHEMBL205994
     RDKit          3D

  0  0  0  0  0  0  0  0  0  0999 V3000
M  V30 BEGIN CTAB
M  V30 COUNTS 55 59 0 0 0
M  V30 BEGIN ATOM
M  V30 1 N -1.871577 -3.378878 4.078171 0
M  V30 2 C -1.139151 -3.809768 2.899005 0 CFG=2
M  V30 3 C -0.691218 -2.555046 2.199165 0
M  V30 4 N 0.159827 -1.759552 3.099502 0
M  V30 5 C 0.725044 -0.523275 2.709875 0
M  V30 6 C 1.525462 0.179609 3.615675 0
M  V30 7 N 2.055100 1.352445 3.232046 0
M  V30 8 C 1.834891 1.852509 2.019926 0
M  V30 9 C 1.057658 1.184527 1.120419 0
M  V30 10 N 0.780193 1.659126 -0.188170 0
M  V30 11 C 1.063309 2.880445 -0.855051 0
M  V30 12 C 1.849953 2.939860 -1.983066 0
M  V30 13 C 2.172843 4.067627 -2.690988 0
M  V30 14 C 1.657480 5.262599 -2.225581 0
M  V30 15 C 0.857467 5.296115 -1.099789 0
M  V30 16 C 0.324346 6.484880 -0.616292 0
M  V30 17 N -0.464354 6.514960 0.485116 0
M  V30 18 C -0.750895 5.362158 1.145040 0
M  V30 19 C -0.222733 4.187503 0.665707 0
M  V30 20 C 0.582519 4.106313 -0.446519 0
M  V30 21 C 0.484911 -0.023372 1.451350 0
M  V30 22 C -1.992986 -4.727820 2.110834 0
M  V30 23 C -1.411308 -5.264084 0.863963 0
M  V30 24 C -0.832961 -6.537993 0.798678 0
M  V30 25 N -0.351099 -6.814546 -0.426129 0
M  V30 26 C -0.610226 -5.725963 -1.171380 0
M  V30 27 C -0.339631 -5.480673 -2.485387 0
M  V30 28 C -0.722436 -4.273575 -3.016668 0
M  V30 29 C -1.367757 -3.310020 -2.264769 0
M  V30 30 C -1.633408 -3.573472 -0.938700 0
M  V30 31 C -1.250396 -4.777154 -0.411840 0
M  V30 32 H -1.295282 -3.362071 4.939412 0
M  V30 33 H -2.405639 -2.501723 3.912144 0
M  V30 34 H -0.235272 -4.361855 3.233085 0
M  V30 35 H -1.548663 -1.913742 1.934371 0
M  V30 36 H -0.077903 -2.790662 1.286395 0
M  V30 37 H 0.348055 -2.139360 4.074025 0
M  V30 38 H 1.737100 -0.180324 4.613929 0
M  V30 39 H 2.235337 2.788004 1.662280 0
M  V30 40 H 0.274663 1.108011 -0.910735 0
M  V30 41 H 2.286668 2.019787 -2.397275 0
M  V30 42 H 2.800075 4.046072 -3.576054 0
M  V30 43 H 1.891758 6.182830 -2.761656 0
M  V30 44 H 0.551899 7.418370 -1.144006 0
M  V30 45 H -1.386085 5.392679 2.030199 0
M  V30 46 H -0.485417 3.318025 1.217768 0
M  V30 47 H -0.133692 -0.570238 0.757126 0
M  V30 48 H -2.970346 -4.210495 1.918911 0
M  V30 49 H -2.287031 -5.571144 2.805373 0
M  V30 50 H -0.762991 -7.247008 1.619288 0
M  V30 51 H 0.121212 -7.698363 -0.711778 0
M  V30 52 H 0.170345 -6.240803 -3.082372 0
M  V30 53 H -0.531492 -4.029822 -4.052615 0
M  V30 54 H -1.687502 -2.345410 -2.642731 0
M  V30 55 H -2.143580 -2.847182 -0.291978 0
M  V30 END ATOM
M  V30 BEGIN BOND
M  V30 1 1 1 2
M  V30 2 1 2 3
M  V30 3 1 3 4
M  V30 4 1 4 5
M  V30 5 2 5 6
M  V30 6 1 6 7
M  V30 7 2 7 8
M  V30 8 1 8 9
M  V30 9 1 9 10
M  V30 10 1 10 11
M  V30 11 2 11 12
M  V30 12 1 12 13
M  V30 13 2 13 14
M  V30 14 1 14 15
M  V30 15 2 15 16
M  V30 16 1 16 17
M  V30 17 2 17 18
M  V30 18 1 18 19
M  V30 19 2 19 20
M  V30 20 2 9 21
M  V30 21 1 2 22
M  V30 22 1 22 23
M  V30 23 2 23 24
M  V30 24 1 24 25
M  V30 25 1 25 26
M  V30 26 2 26 27
M  V30 27 1 27 28
M  V30 28 2 28 29
M  V30 29 1 29 30
M  V30 30 2 30 31
M  V30 31 1 21 5
M  V30 32 1 31 23
M  V30 33 1 20 11
M  V30 34 1 31 26
M  V30 35 1 20 15
M  V30 36 1 1 32
M  V30 37 1 1 33
M  V30 38 1 2 34 CFG=1
M  V30 39 1 3 35
M  V30 40 1 3 36
M  V30 41 1 4 37
M  V30 42 1 6 38
M  V30 43 1 8 39
M  V30 44 1 10 40
M  V30 45 1 12 41
M  V30 46 1 13 42
M  V30 47 1 14 43
M  V30 48 1 16 44
M  V30 49 1 18 45
M  V30 50 1 19 46
M  V30 51 1 21 47
M  V30 52 1 22 48
M  V30 53 1 22 49
M  V30 54 1 24 50
M  V30 55 1 25 51
M  V30 56 1 27 52
M  V30 57 1 28 53
M  V30 58 1 29 54
M  V30 59 1 30 55
M  V30 END BOND
M  V30 END CTAB
M  END
>  <Dataset>  (370) 
ChEMBL_Kinases

>  <Ligand_Instance>  (370) 
nan

>  <PDB_ID>  (370) 
nan

>  <Standardized_SMILES>  (370) 
N[C@H](CNc1cncc(Nc2cccc3cnccc23)c1)Cc1c[nH]c2ccccc12

>  <Name>  (370) 
nan

>  <Pocket>  (370) 
nan

>  <ATP_Site>  (370) 
nan

>  <Peripheral>  (370) 
nan

>  <Num_H_Atoms_ProtBoundConf>  (370) 
nan

>  <Num_Resolved_Atoms>  (370) 
nan

>  <Num_Not_Resolved_Atoms>  (370) 
nan

$$$$
CHEMBL205871
     RDKit          3D

  0  0  0  0  0  0  0  0  0  0999 V3000
M  V30 BEGIN CTAB
M  V30 COUNTS 52 55 0 0 0
M  V30 BEGIN ATOM
M  V30 1 N -2.934596 0.476792 -0.193310 0
M  V30 2 C -1.685716 -0.296190 0.022315 0 CFG=2
M  V30 3 C -0.933167 -0.277443 -1.229829 0
M  V30 4 O 0.299336 -0.873352 -1.319427 0
M  V30 5 C 1.473320 -0.676421 -0.684921 0
M  V30 6 C 2.400485 -1.600941 -1.194363 0
M  V30 7 N 3.694645 -1.659022 -0.752450 0
M  V30 8 C 4.124006 -0.810433 0.206053 0
M  V30 9 C 3.252526 0.116087 0.738644 0
M  V30 10 C 3.650711 1.054720 1.769596 0
M  V30 11 C 2.933930 1.986072 2.368440 0
M  V30 12 C 3.401979 2.897374 3.400421 0
M  V30 13 C 2.547765 3.825397 3.943371 0
M  V30 14 C 2.821907 4.740632 4.904760 0
M  V30 15 N 4.088394 4.734831 5.382243 0
M  V30 16 C 4.978359 3.850528 4.893681 0
M  V30 17 C 4.686259 2.916020 3.907370 0
M  V30 18 C 1.952586 0.169162 0.289752 0
M  V30 19 C -1.965632 -1.548545 0.745086 0
M  V30 20 C -2.893466 -2.501369 0.164979 0
M  V30 21 C -4.209051 -2.283315 0.621857 0
M  V30 22 C -5.288627 -3.020720 0.170361 0
M  V30 23 C -5.122408 -4.013077 -0.756840 0
M  V30 24 C -3.864489 -4.262351 -1.228278 0
M  V30 25 C -3.554214 -5.242626 -2.147870 0
M  V30 26 C -2.267216 -5.501445 -2.607554 0
M  V30 27 C -1.244941 -4.710155 -2.093732 0
M  V30 28 C -1.534337 -3.734157 -1.182506 0
M  V30 29 C -2.812325 -3.511924 -0.759141 0
M  V30 30 H -3.411688 0.564554 0.714956 0
M  V30 31 H -2.596408 1.439398 -0.467974 0
M  V30 32 H -1.137239 0.374329 0.761740 0
M  V30 33 H -1.542969 -0.626589 -2.106264 0
M  V30 34 H -0.766667 0.823190 -1.485854 0
M  V30 35 H 2.279350 -2.374282 -1.964752 0
M  V30 36 H 5.147168 -0.842056 0.568944 0
M  V30 37 H 4.694955 0.984611 2.102388 0
M  V30 38 H 1.916406 2.050455 2.040485 0
M  V30 39 H 1.518185 3.837205 3.562557 0
M  V30 40 H 2.102717 5.439373 5.284987 0
M  V30 41 H 5.996441 3.868766 5.298296 0
M  V30 42 H 5.413124 2.218347 3.531662 0
M  V30 43 H 1.172677 0.840265 0.612912 0
M  V30 44 H -0.974604 -2.088091 0.845939 0
M  V30 45 H -2.219233 -1.293837 1.798057 0
M  V30 46 H -4.508266 -1.540820 1.350697 0
M  V30 47 H -6.304024 -2.872039 0.505403 0
M  V30 48 H -5.893569 -4.641669 -1.172823 0
M  V30 49 H -4.391088 -5.843667 -2.526142 0
M  V30 50 H -2.158074 -6.304238 -3.335316 0
M  V30 51 H -0.268580 -4.958744 -2.487314 0
M  V30 52 H -0.700298 -3.195135 -0.827604 0
M  V30 END ATOM
M  V30 BEGIN BOND
M  V30 1 1 1 2
M  V30 2 1 2 3
M  V30 3 1 3 4
M  V30 4 1 4 5
M  V30 5 2 5 6
M  V30 6 1 6 7
M  V30 7 2 7 8
M  V30 8 1 8 9
M  V30 9 1 9 10
M  V30 10 2 10 11
M  V30 11 1 11 12
M  V30 12 2 12 13
M  V30 13 1 13 14
M  V30 14 2 14 15
M  V30 15 1 15 16
M  V30 16 2 16 17
M  V30 17 2 9 18
M  V30 18 1 2 19
M  V30 19 1 19 20
M  V30 20 2 20 21
M  V30 21 1 21 22
M  V30 22 2 22 23
M  V30 23 1 23 24
M  V30 24 2 24 25
M  V30 25 1 25 26
M  V30 26 2 26 27
M  V30 27 1 27 28
M  V30 28 2 28 29
M  V30 29 1 18 5
M  V30 30 1 29 20
M  V30 31 1 17 12
M  V30 32 1 29 24
M  V30 33 1 1 30
M  V30 34 1 1 31
M  V30 35 1 2 32 CFG=1
M  V30 36 1 3 33
M  V30 37 1 3 34
M  V30 38 1 6 35
M  V30 39 1 8 36
M  V30 40 1 10 37
M  V30 41 1 11 38
M  V30 42 1 13 39
M  V30 43 1 14 40
M  V30 44 1 16 41
M  V30 45 1 17 42
M  V30 46 1 18 43
M  V30 47 1 19 44
M  V30 48 1 19 45
M  V30 49 1 21 46
M  V30 50 1 22 47
M  V30 51 1 23 48
M  V30 52 1 25 49
M  V30 53 1 26 50
M  V30 54 1 27 51
M  V30 55 1 28 52
M  V30 END BOND
M  V30 END CTAB
M  END
>  <Dataset>  (371) 
ChEMBL_Kinases

>  <Ligand_Instance>  (371) 
nan

>  <PDB_ID>  (371) 
nan

>  <Standardized_SMILES>  (371) 
N[C@H](COc1cncc(/C=C/c2ccncc2)c1)Cc1cccc2ccccc12

>  <Name>  (371) 
nan

>  <Pocket>  (371) 
nan

>  <ATP_Site>  (371) 
nan

>  <Peripheral>  (371) 
nan

>  <Num_H_Atoms_ProtBoundConf>  (371) 
nan

>  <Num_Resolved_Atoms>  (371) 
nan

>  <Num_Not_Resolved_Atoms>  (371) 
nan

$$$$
CHEMBL2063437
     RDKit          3D

  0  0  0  0  0  0  0  0  0  0999 V3000
M  V30 BEGIN CTAB
M  V30 COUNTS 46 49 0 0 0
M  V30 BEGIN ATOM
M  V30 1 N 4.994256 -1.039952 2.810904 0
M  V30 2 C 5.034262 -1.460030 1.450455 0
M  V30 3 N 5.564057 -2.515169 0.814718 0
M  V30 4 O 5.344996 -2.461747 -0.465814 0
M  V30 5 C 4.659539 -1.373247 -0.746309 0
M  V30 6 C 4.151231 -0.790058 -1.868543 0
M  V30 7 C 3.441908 0.397231 -1.926301 0
M  V30 8 C 3.223758 1.057902 -0.745564 0
M  V30 9 C 3.757305 0.439359 0.400675 0
M  V30 10 C 3.431483 1.103385 1.702626 0
M  V30 11 O 3.791298 1.777415 2.716387 0
M  V30 12 N 2.095725 1.001475 2.133569 0
M  V30 13 C 0.747630 0.912042 2.592266 0
M  V30 14 C -0.072799 1.956363 2.143593 0
M  V30 15 C -1.437185 1.839120 2.449683 0
M  V30 16 C -1.700365 0.690150 3.149124 0
M  V30 17 N -3.145933 0.464234 3.210133 0
M  V30 18 C -3.357861 -0.277484 2.005335 0
M  V30 19 O -2.107402 -0.260604 1.642803 0
M  V30 20 N -4.254792 -0.937720 1.150854 0
M  V30 21 C -3.991422 -1.602965 -0.066373 0
M  V30 22 C -2.691628 -1.821389 -0.447282 0
M  V30 23 C -2.361773 -2.415038 -1.650472 0
M  V30 24 C -3.378229 -2.813825 -2.518084 0
M  V30 25 C -4.680080 -2.561538 -2.065228 0
M  V30 26 C -5.008957 -1.966228 -0.862716 0
M  V30 27 C -0.961505 -0.360391 3.628453 0
M  V30 28 C 0.395991 -0.214612 3.305648 0
M  V30 29 C 4.458724 -0.732948 0.450983 0
M  V30 30 H 5.914128 -0.593414 2.997528 0
M  V30 31 H 4.227957 -1.124260 3.531376 0
M  V30 32 H 4.329237 -1.334313 -2.804195 0
M  V30 33 H 3.070728 0.782011 -2.882186 0
M  V30 34 H 2.680260 1.978134 -0.740356 0
M  V30 35 H 1.754826 0.389196 1.267014 0
M  V30 36 H 0.331505 2.781814 1.599215 0
M  V30 37 H -2.134100 2.584726 2.146490 0
M  V30 38 H -4.078061 0.529342 3.610460 0
M  V30 39 H -5.135003 -0.799709 1.672630 0
M  V30 40 H -1.765749 -1.613657 0.061269 0
M  V30 41 H -1.356294 -2.620984 -2.016863 0
M  V30 42 H -3.185755 -3.281631 -3.469799 0
M  V30 43 H -5.486277 -2.847490 -2.715576 0
M  V30 44 H -5.998010 -1.782339 -0.540728 0
M  V30 45 H -1.349572 -1.182092 4.174056 0
M  V30 46 H 1.126245 -0.945538 3.602044 0
M  V30 END ATOM
M  V30 BEGIN BOND
M  V30 1 1 1 2
M  V30 2 2 2 3
M  V30 3 1 3 4
M  V30 4 1 4 5
M  V30 5 2 5 6
M  V30 6 1 6 7
M  V30 7 2 7 8
M  V30 8 1 8 9
M  V30 9 1 9 10
M  V30 10 2 10 11
M  V30 11 1 10 12
M  V30 12 1 12 13
M  V30 13 2 13 14
M  V30 14 1 14 15
M  V30 15 2 15 16
M  V30 16 1 16 17
M  V30 17 1 17 18
M  V30 18 2 18 19
M  V30 19 1 18 20
M  V30 20 1 20 21
M  V30 21 2 21 22
M  V30 22 1 22 23
M  V30 23 2 23 24
M  V30 24 1 24 25
M  V30 25 2 25 26
M  V30 26 1 16 27
M  V30 27 2 27 28
M  V30 28 2 9 29
M  V30 29 1 29 2
M  V30 30 1 29 5
M  V30 31 1 28 13
M  V30 32 1 26 21
M  V30 33 1 1 30
M  V30 34 1 1 31
M  V30 35 1 6 32
M  V30 36 1 7 33
M  V30 37 1 8 34
M  V30 38 1 12 35
M  V30 39 1 14 36
M  V30 40 1 15 37
M  V30 41 1 17 38
M  V30 42 1 20 39
M  V30 43 1 22 40
M  V30 44 1 23 41
M  V30 45 1 24 42
M  V30 46 1 25 43
M  V30 47 1 26 44
M  V30 48 1 27 45
M  V30 49 1 28 46
M  V30 END BOND
M  V30 END CTAB
M  END
>  <Dataset>  (372) 
ChEMBL_Kinases

>  <Ligand_Instance>  (372) 
nan

>  <PDB_ID>  (372) 
nan

>  <Standardized_SMILES>  (372) 
Nc1noc2cccc(C(=O)Nc3ccc(NC(=O)Nc4ccccc4)cc3)c12

>  <Name>  (372) 
nan

>  <Pocket>  (372) 
nan

>  <ATP_Site>  (372) 
nan

>  <Peripheral>  (372) 
nan

>  <Num_H_Atoms_ProtBoundConf>  (372) 
nan

>  <Num_Resolved_Atoms>  (372) 
nan

>  <Num_Not_Resolved_Atoms>  (372) 
nan

$$$$
CHEMBL2063436
     RDKit          3D

  0  0  0  0  0  0  0  0  0  0999 V3000
M  V30 BEGIN CTAB
M  V30 COUNTS 67 71 0 0 0
M  V30 BEGIN ATOM
M  V30 1 C 6.110320 -1.567591 6.454958 0
M  V30 2 C 5.117485 -1.350069 5.369387 0
M  V30 3 N 5.446593 -1.737823 4.134088 0
M  V30 4 C 4.613810 -1.588544 3.056690 0
M  V30 5 N 4.995799 -2.027564 1.784696 0
M  V30 6 C 4.421009 -1.922501 0.500535 0
M  V30 7 C 3.352474 -1.258199 -0.044952 0
M  V30 8 C 3.183041 -1.516539 -1.385545 0
M  V30 9 C 2.145949 -0.983519 -2.267952 0
M  V30 10 C 1.208967 -0.104304 -1.747364 0
M  V30 11 C 0.210443 0.419215 -2.545351 0
M  V30 12 C 0.124874 0.076893 -3.880309 0
M  V30 13 C -0.839139 0.516236 -4.879096 0
M  V30 14 N -2.031609 -0.297375 -4.987307 0
M  V30 15 C -3.026842 -0.152945 -4.013287 0
M  V30 16 O -3.118194 0.575896 -3.000807 0
M  V30 17 O -4.259941 -0.758889 -3.820151 0
M  V30 18 C -5.051522 -0.368328 -2.693953 0
M  V30 19 C -6.310049 -1.152674 -2.710217 0
M  V30 20 C -7.456526 -0.758451 -3.346596 0
M  V30 21 C -8.604081 -1.510215 -3.335516 0
M  V30 22 C -8.635221 -2.733730 -2.655285 0
M  V30 23 C -7.506057 -3.193759 -1.988105 0
M  V30 24 C -6.398185 -2.361190 -2.058986 0
M  V30 25 C 1.089172 -0.809388 -4.354959 0
M  V30 26 C 2.118451 -1.366780 -3.591129 0
M  V30 27 N 4.186777 -2.356874 -1.623086 0
M  V30 28 N 4.917756 -2.611939 -0.564136 0
M  V30 29 C 3.427855 -1.003284 3.402724 0
M  V30 30 C 3.020827 -0.579106 4.645400 0
M  V30 31 N 1.777648 0.024248 4.938299 0
M  V30 32 C 1.403036 0.354409 6.300892 0
M  V30 33 C 0.026842 0.979504 6.317648 0
M  V30 34 N -0.095935 2.099199 5.422637 0
M  V30 35 C 0.586340 1.893276 4.155773 0
M  V30 36 C 0.747922 0.388901 3.993713 0
M  V30 37 N 3.917197 -0.769806 5.655369 0
M  V30 38 H 6.422380 -0.614833 6.925916 0
M  V30 39 H 7.002223 -2.071164 6.081150 0
M  V30 40 H 5.685195 -2.190476 7.273537 0
M  V30 41 H 5.913027 -2.542289 1.822443 0
M  V30 42 H 2.694302 -0.595547 0.457581 0
M  V30 43 H 1.203399 0.217131 -0.707064 0
M  V30 44 H -0.547741 1.107090 -2.206435 0
M  V30 45 H -0.395075 0.587086 -5.882617 0
M  V30 46 H -1.171471 1.539790 -4.608501 0
M  V30 47 H -2.377640 -1.029687 -5.660051 0
M  V30 48 H -5.288441 0.721440 -2.752670 0
M  V30 49 H -4.531643 -0.573797 -1.731265 0
M  V30 50 H -7.463229 0.188125 -3.884130 0
M  V30 51 H -9.537140 -1.239111 -3.824407 0
M  V30 52 H -9.530980 -3.344249 -2.633526 0
M  V30 53 H -7.453437 -4.125393 -1.442447 0
M  V30 54 H -5.506974 -2.720497 -1.534554 0
M  V30 55 H 1.113836 -1.146382 -5.396822 0
M  V30 56 H 2.840187 -2.048126 -4.005918 0
M  V30 57 H 5.736224 -3.275020 -0.682855 0
M  V30 58 H 2.673788 -0.829267 2.679878 0
M  V30 59 H 1.301126 -0.575651 6.931466 0
M  V30 60 H 2.097417 1.078563 6.780871 0
M  V30 61 H -0.798761 0.261838 6.193661 0
M  V30 62 H -0.104093 1.383755 7.365323 0
M  V30 63 H -1.128796 2.187591 5.182416 0
M  V30 64 H 0.058739 2.339601 3.293349 0
M  V30 65 H 1.617094 2.309572 4.194064 0
M  V30 66 H 0.913914 0.090476 2.963162 0
M  V30 67 H -0.243954 -0.077177 4.274502 0
M  V30 END ATOM
M  V30 BEGIN BOND
M  V30 1 1 1 2
M  V30 2 2 2 3
M  V30 3 1 3 4
M  V30 4 1 4 5
M  V30 5 1 5 6
M  V30 6 2 6 7
M  V30 7 1 7 8
M  V30 8 1 8 9
M  V30 9 2 9 10
M  V30 10 1 10 11
M  V30 11 2 11 12
M  V30 12 1 12 13
M  V30 13 1 13 14
M  V30 14 1 14 15
M  V30 15 2 15 16
M  V30 16 1 15 17
M  V30 17 1 17 18
M  V30 18 1 18 19
M  V30 19 2 19 20
M  V30 20 1 20 21
M  V30 21 2 21 22
M  V30 22 1 22 23
M  V30 23 2 23 24
M  V30 24 1 12 25
M  V30 25 2 25 26
M  V30 26 2 8 27
M  V30 27 1 27 28
M  V30 28 2 4 29
M  V30 29 1 29 30
M  V30 30 1 30 31
M  V30 31 1 31 32
M  V30 32 1 32 33
M  V30 33 1 33 34
M  V30 34 1 34 35
M  V30 35 1 35 36
M  V30 36 2 30 37
M  V30 37 1 37 2
M  V30 38 1 28 6
M  V30 39 1 36 31
M  V30 40 1 26 9
M  V30 41 1 24 19
M  V30 42 1 1 38
M  V30 43 1 1 39
M  V30 44 1 1 40
M  V30 45 1 5 41
M  V30 46 1 7 42
M  V30 47 1 10 43
M  V30 48 1 11 44
M  V30 49 1 13 45
M  V30 50 1 13 46
M  V30 51 1 14 47
M  V30 52 1 18 48
M  V30 53 1 18 49
M  V30 54 1 20 50
M  V30 55 1 21 51
M  V30 56 1 22 52
M  V30 57 1 23 53
M  V30 58 1 24 54
M  V30 59 1 25 55
M  V30 60 1 26 56
M  V30 61 1 28 57
M  V30 62 1 29 58
M  V30 63 1 32 59
M  V30 64 1 32 60
M  V30 65 1 33 61
M  V30 66 1 33 62
M  V30 67 1 34 63
M  V30 68 1 35 64
M  V30 69 1 35 65
M  V30 70 1 36 66
M  V30 71 1 36 67
M  V30 END BOND
M  V30 END CTAB
M  END
>  <Dataset>  (373) 
ChEMBL_Kinases

>  <Ligand_Instance>  (373) 
nan

>  <PDB_ID>  (373) 
nan

>  <Standardized_SMILES>  (373) 
Cc1nc(Nc2cc(-c3ccc(CNC(=O)OCc4ccccc4)cc3)n[nH]2)cc(N2CCNCC2)n1

>  <Name>  (373) 
nan

>  <Pocket>  (373) 
nan

>  <ATP_Site>  (373) 
nan

>  <Peripheral>  (373) 
nan

>  <Num_H_Atoms_ProtBoundConf>  (373) 
nan

>  <Num_Resolved_Atoms>  (373) 
nan

>  <Num_Not_Resolved_Atoms>  (373) 
nan

$$$$
CHEMBL206339
     RDKit          3D

  0  0  0  0  0  0  0  0  0  0999 V3000
M  V30 BEGIN CTAB
M  V30 COUNTS 42 45 0 0 0
M  V30 BEGIN ATOM
M  V30 1 N 0.947913 -3.349235 1.848426 0
M  V30 2 C -0.244227 -2.711890 1.398997 0
M  V30 3 C -0.560463 -1.428169 1.008451 0
M  V30 4 C 0.442777 -0.381491 0.999580 0
M  V30 5 O 1.611195 -0.767642 1.309470 0
M  V30 6 C 0.333801 1.026463 0.697302 0
M  V30 7 C -0.785364 1.823357 0.768760 0
M  V30 8 C -0.858031 3.158297 0.456345 0
M  V30 9 C 0.281079 3.799027 0.026167 0
M  V30 10 C 1.432935 3.050613 -0.064221 0
M  V30 11 C 2.680794 3.677285 -0.508597 0
M  V30 12 C 2.902839 5.005581 -0.208756 0
M  V30 13 C 4.047705 5.666019 -0.588532 0
M  V30 14 C 5.018678 4.982420 -1.296565 0
M  V30 15 N 4.803582 3.691819 -1.588132 0
M  V30 16 C 3.689966 3.031527 -1.224324 0
M  V30 17 C 1.472612 1.712744 0.255755 0
M  V30 18 C -1.897395 -1.444405 0.681276 0
M  V30 19 N -2.380852 -2.693853 0.866552 0
M  V30 20 N -1.376853 -3.474735 1.305113 0
M  V30 21 C -1.551398 -4.855489 1.598964 0
M  V30 22 C -2.647442 -5.344604 2.314303 0
M  V30 23 C -2.774648 -6.683778 2.576196 0
M  V30 24 C -1.853922 -7.598027 2.159514 0
M  V30 25 F -1.962915 -8.920202 2.412251 0
M  V30 26 C -0.756526 -7.169816 1.451792 0
M  V30 27 C -0.639357 -5.819747 1.194628 0
M  V30 28 H 1.590260 -3.430758 1.023784 0
M  V30 29 H 1.183649 -3.688478 2.808271 0
M  V30 30 H -1.704692 1.380986 1.109168 0
M  V30 31 H -1.782067 3.708562 0.542294 0
M  V30 32 H 0.274679 4.832104 -0.228818 0
M  V30 33 H 2.173806 5.588968 0.344379 0
M  V30 34 H 4.188552 6.717972 -0.333461 0
M  V30 35 H 5.934035 5.457248 -1.618176 0
M  V30 36 H 3.495147 1.994504 -1.445437 0
M  V30 37 H 2.400126 1.173161 0.166135 0
M  V30 38 H -2.494149 -0.634203 0.329721 0
M  V30 39 H -3.375538 -4.602856 2.636490 0
M  V30 40 H -3.646287 -7.017693 3.136210 0
M  V30 41 H 0.042268 -7.816643 1.075341 0
M  V30 42 H 0.208620 -5.437488 0.635098 0
M  V30 END ATOM
M  V30 BEGIN BOND
M  V30 1 1 1 2
M  V30 2 2 2 3
M  V30 3 1 3 4
M  V30 4 2 4 5
M  V30 5 1 4 6
M  V30 6 2 6 7
M  V30 7 1 7 8
M  V30 8 2 8 9
M  V30 9 1 9 10
M  V30 10 1 10 11
M  V30 11 2 11 12
M  V30 12 1 12 13
M  V30 13 2 13 14
M  V30 14 1 14 15
M  V30 15 2 15 16
M  V30 16 2 10 17
M  V30 17 1 3 18
M  V30 18 2 18 19
M  V30 19 1 19 20
M  V30 20 1 20 21
M  V30 21 2 21 22
M  V30 22 1 22 23
M  V30 23 2 23 24
M  V30 24 1 24 25
M  V30 25 1 24 26
M  V30 26 2 26 27
M  V30 27 1 20 2
M  V30 28 1 27 21
M  V30 29 1 17 6
M  V30 30 1 16 11
M  V30 31 1 1 28
M  V30 32 1 1 29
M  V30 33 1 7 30
M  V30 34 1 8 31
M  V30 35 1 9 32
M  V30 36 1 12 33
M  V30 37 1 13 34
M  V30 38 1 14 35
M  V30 39 1 16 36
M  V30 40 1 17 37
M  V30 41 1 18 38
M  V30 42 1 22 39
M  V30 43 1 23 40
M  V30 44 1 26 41
M  V30 45 1 27 42
M  V30 END BOND
M  V30 END CTAB
M  END
>  <Dataset>  (374) 
ChEMBL_Kinases

>  <Ligand_Instance>  (374) 
nan

>  <PDB_ID>  (374) 
nan

>  <Standardized_SMILES>  (374) 
Nc1c(C(=O)c2cccc(-c3cccnc3)c2)cnn1-c1ccc(F)cc1

>  <Name>  (374) 
nan

>  <Pocket>  (374) 
nan

>  <ATP_Site>  (374) 
nan

>  <Peripheral>  (374) 
nan

>  <Num_H_Atoms_ProtBoundConf>  (374) 
nan

>  <Num_Resolved_Atoms>  (374) 
nan

>  <Num_Not_Resolved_Atoms>  (374) 
nan

$$$$
CHEMBL2063338
     RDKit          3D

  0  0  0  0  0  0  0  0  0  0999 V3000
M  V30 BEGIN CTAB
M  V30 COUNTS 74 78 0 0 0
M  V30 BEGIN ATOM
M  V30 1 C 2.343566 -0.438136 7.847377 0
M  V30 2 C 2.689184 -0.672346 6.422136 0
M  V30 3 N 2.309596 -1.826378 5.871250 0
M  V30 4 C 2.548347 -2.170703 4.598718 0
M  V30 5 N 2.093960 -3.437207 4.146838 0
M  V30 6 C 1.413570 -3.630397 2.935744 0
M  V30 7 C 1.020087 -2.666282 2.027345 0
M  V30 8 C 0.377947 -3.259150 0.978478 0
M  V30 9 C -0.227013 -2.678290 -0.215670 0
M  V30 10 C -0.830606 -3.518331 -1.129066 0
M  V30 11 C -1.426315 -3.009244 -2.265462 0
M  V30 12 C -1.457529 -1.660033 -2.556227 0
M  V30 13 C -2.077080 -1.027401 -3.736876 0
M  V30 14 N -3.479746 -0.661196 -3.494126 0
M  V30 15 C -4.595727 -1.525421 -3.476337 0
M  V30 16 O -4.349381 -2.713856 -3.693997 0
M  V30 17 O -5.812383 -0.984751 -3.226441 0
M  V30 18 C -6.997902 -1.740411 -3.185634 0
M  V30 19 C -7.209181 -2.372615 -4.508495 0
M  V30 20 C -7.836090 -1.463677 -5.374655 0
M  V30 21 C -8.154163 -1.832093 -6.683066 0
M  V30 22 C -7.863363 -3.083834 -7.152084 0
M  V30 23 C -7.244772 -3.984497 -6.299778 0
M  V30 24 C -6.934880 -3.619591 -5.017940 0
M  V30 25 C -0.836388 -0.867654 -1.604167 0
M  V30 26 C -0.217490 -1.316328 -0.438719 0
M  V30 27 N 0.390610 -4.577203 1.262955 0
M  V30 28 N 1.006622 -4.799640 2.427746 0
M  V30 29 C 3.239679 -1.274067 3.782426 0
M  V30 30 C 3.635516 -0.080456 4.342429 0
M  V30 31 N 4.358497 0.913799 3.629607 0
M  V30 32 C 4.581908 2.246257 4.139721 0
M  V30 33 C 3.860570 3.208392 3.191658 0
M  V30 34 N 4.502149 3.136571 1.919750 0
M  V30 35 C 4.205915 4.167439 0.996486 0
M  V30 36 C 2.828753 4.214382 0.435898 0
M  V30 37 O 2.437110 3.087931 -0.267869 0
M  V30 38 C 4.564942 1.834087 1.341769 0
M  V30 39 C 4.979721 0.787704 2.350023 0
M  V30 40 N 3.361459 0.208313 5.639874 0
M  V30 41 H 3.002916 -1.107596 8.453301 0
M  V30 42 H 1.269009 -0.692559 8.050563 0
M  V30 43 H 2.573577 0.591868 8.136400 0
M  V30 44 H 2.301968 -4.229557 4.783578 0
M  V30 45 H 1.164368 -1.593388 2.078503 0
M  V30 46 H -0.841962 -4.604879 -0.956735 0
M  V30 47 H -1.895064 -3.673881 -2.977385 0
M  V30 48 H -2.134699 -1.814325 -4.517722 0
M  V30 49 H -1.503983 -0.204765 -4.147688 0
M  V30 50 H -3.615527 0.379844 -3.319952 0
M  V30 51 H -6.866447 -2.583062 -2.431110 0
M  V30 52 H -7.874208 -1.146674 -2.873549 0
M  V30 53 H -8.132525 -0.445311 -5.168926 0
M  V30 54 H -8.636992 -1.174585 -7.396744 0
M  V30 55 H -8.077687 -3.448350 -8.155414 0
M  V30 56 H -6.964872 -5.009129 -6.560500 0
M  V30 57 H -6.468368 -4.251750 -4.291993 0
M  V30 58 H -0.797761 0.208496 -1.727634 0
M  V30 59 H 0.246546 -0.635864 0.256933 0
M  V30 60 H 1.133961 -5.760296 2.849991 0
M  V30 61 H 3.451846 -1.509845 2.764003 0
M  V30 62 H 4.117476 2.371703 5.139640 0
M  V30 63 H 5.629902 2.536907 4.186964 0
M  V30 64 H 2.789727 3.005243 3.128196 0
M  V30 65 H 4.062300 4.244019 3.586186 0
M  V30 66 H 4.955757 4.208308 0.179457 0
M  V30 67 H 4.351620 5.147533 1.545000 0
M  V30 68 H 2.834908 5.044761 -0.332291 0
M  V30 69 H 2.078301 4.543467 1.171182 0
M  V30 70 H 2.964225 2.933318 -1.077665 0
M  V30 71 H 3.654673 1.472560 0.855445 0
M  V30 72 H 5.391155 1.842475 0.579865 0
M  V30 73 H 6.085202 0.842445 2.501392 0
M  V30 74 H 4.787170 -0.216018 1.918552 0
M  V30 END ATOM
M  V30 BEGIN BOND
M  V30 1 1 1 2
M  V30 2 2 2 3
M  V30 3 1 3 4
M  V30 4 1 4 5
M  V30 5 1 5 6
M  V30 6 2 6 7
M  V30 7 1 7 8
M  V30 8 1 8 9
M  V30 9 2 9 10
M  V30 10 1 10 11
M  V30 11 2 11 12
M  V30 12 1 12 13
M  V30 13 1 13 14
M  V30 14 1 14 15
M  V30 15 2 15 16
M  V30 16 1 15 17
M  V30 17 1 17 18
M  V30 18 1 18 19
M  V30 19 2 19 20
M  V30 20 1 20 21
M  V30 21 2 21 22
M  V30 22 1 22 23
M  V30 23 2 23 24
M  V30 24 1 12 25
M  V30 25 2 25 26
M  V30 26 2 8 27
M  V30 27 1 27 28
M  V30 28 2 4 29
M  V30 29 1 29 30
M  V30 30 1 30 31
M  V30 31 1 31 32
M  V30 32 1 32 33
M  V30 33 1 33 34
M  V30 34 1 34 35
M  V30 35 1 35 36
M  V30 36 1 36 37
M  V30 37 1 34 38
M  V30 38 1 38 39
M  V30 39 2 30 40
M  V30 40 1 40 2
M  V30 41 1 28 6
M  V30 42 1 39 31
M  V30 43 1 26 9
M  V30 44 1 24 19
M  V30 45 1 1 41
M  V30 46 1 1 42
M  V30 47 1 1 43
M  V30 48 1 5 44
M  V30 49 1 7 45
M  V30 50 1 10 46
M  V30 51 1 11 47
M  V30 52 1 13 48
M  V30 53 1 13 49
M  V30 54 1 14 50
M  V30 55 1 18 51
M  V30 56 1 18 52
M  V30 57 1 20 53
M  V30 58 1 21 54
M  V30 59 1 22 55
M  V30 60 1 23 56
M  V30 61 1 24 57
M  V30 62 1 25 58
M  V30 63 1 26 59
M  V30 64 1 28 60
M  V30 65 1 29 61
M  V30 66 1 32 62
M  V30 67 1 32 63
M  V30 68 1 33 64
M  V30 69 1 33 65
M  V30 70 1 35 66
M  V30 71 1 35 67
M  V30 72 1 36 68
M  V30 73 1 36 69
M  V30 74 1 37 70
M  V30 75 1 38 71
M  V30 76 1 38 72
M  V30 77 1 39 73
M  V30 78 1 39 74
M  V30 END BOND
M  V30 END CTAB
M  END
>  <Dataset>  (375) 
ChEMBL_Kinases

>  <Ligand_Instance>  (375) 
nan

>  <PDB_ID>  (375) 
nan

>  <Standardized_SMILES>  (375) 
Cc1nc(Nc2cc(-c3ccc(CNC(=O)OCc4ccccc4)cc3)n[nH]2)cc(N2CCN(CCO)CC2)n1

>  <Name>  (375) 
nan

>  <Pocket>  (375) 
nan

>  <ATP_Site>  (375) 
nan

>  <Peripheral>  (375) 
nan

>  <Num_H_Atoms_ProtBoundConf>  (375) 
nan

>  <Num_Resolved_Atoms>  (375) 
nan

>  <Num_Not_Resolved_Atoms>  (375) 
nan

$$$$
CHEMBL2063335
     RDKit          3D

  0  0  0  0  0  0  0  0  0  0999 V3000
M  V30 BEGIN CTAB
M  V30 COUNTS 70 74 0 0 0
M  V30 BEGIN ATOM
M  V30 1 C 4.478256 -0.436931 6.386690 0
M  V30 2 C 3.889018 -0.057842 5.073593 0
M  V30 3 N 4.707665 0.186650 4.009558 0
M  V30 4 C 4.242007 0.528978 2.800253 0
M  V30 5 N 5.037556 0.786680 1.637514 0
M  V30 6 C 4.309261 1.197149 0.457487 0
M  V30 7 C 3.687118 0.157493 -0.245072 0
M  V30 8 C 3.056477 0.795390 -1.316317 0
M  V30 9 C 2.261619 0.096315 -2.316414 0
M  V30 10 C 1.635523 0.750528 -3.354575 0
M  V30 11 C 0.849643 0.117242 -4.324711 0
M  V30 12 C 0.702268 -1.273644 -4.214772 0
M  V30 13 C -0.129334 -1.920252 -5.231765 0
M  V30 14 N -1.540595 -1.981658 -4.908297 0
M  V30 15 C -2.008877 -2.924855 -3.981570 0
M  V30 16 O -1.407207 -3.788806 -3.330915 0
M  V30 17 O -3.320694 -3.153302 -3.526697 0
M  V30 18 C -3.477497 -4.205886 -2.559932 0
M  V30 19 C -4.925871 -4.248964 -2.236195 0
M  V30 20 C -5.336767 -3.449167 -1.163002 0
M  V30 21 C -6.679227 -3.425483 -0.796391 0
M  V30 22 C -7.658639 -4.164713 -1.446569 0
M  V30 23 C -7.222792 -4.944564 -2.501292 0
M  V30 24 C -5.904746 -4.983091 -2.879899 0
M  V30 25 C 1.313324 -1.971701 -3.190086 0
M  V30 26 C 2.068746 -1.265769 -2.280038 0
M  V30 27 N 3.305612 2.106464 -1.227213 0
M  V30 28 N 4.055331 2.369477 -0.170430 0
M  V30 29 C 2.845135 0.608794 2.742719 0
M  V30 30 C 1.982391 0.373969 3.781265 0
M  V30 31 N 0.576915 0.471641 3.634771 0
M  V30 32 C -0.320711 0.404992 4.771333 0
M  V30 33 C -1.202809 1.660233 4.671563 0
M  V30 34 N -0.605694 2.602525 3.776105 0
M  V30 35 C -1.093000 3.938316 3.863476 0
M  V30 36 C -0.647786 2.091562 2.417668 0
M  V30 37 C -0.162093 0.646848 2.402193 0
M  V30 38 N 2.547156 0.038037 4.948783 0
M  V30 39 H 5.509142 -0.805412 6.234490 0
M  V30 40 H 4.397787 0.384525 7.106530 0
M  V30 41 H 3.882106 -1.298352 6.786399 0
M  V30 42 H 6.071267 0.638831 1.804465 0
M  V30 43 H 3.646472 -0.922628 -0.075191 0
M  V30 44 H 1.732734 1.839608 -3.466485 0
M  V30 45 H 0.385661 0.700540 -5.117583 0
M  V30 46 H 0.304399 -2.919962 -5.450851 0
M  V30 47 H -0.064770 -1.343736 -6.172777 0
M  V30 48 H -2.298315 -1.371735 -5.304830 0
M  V30 49 H -2.902307 -3.998723 -1.638063 0
M  V30 50 H -3.121772 -5.177594 -3.009320 0
M  V30 51 H -4.612228 -2.852072 -0.620426 0
M  V30 52 H -6.924804 -2.787856 0.036831 0
M  V30 53 H -8.684777 -4.116462 -1.133467 0
M  V30 54 H -7.964479 -5.527875 -3.024584 0
M  V30 55 H -5.531506 -5.591371 -3.708188 0
M  V30 56 H 1.207424 -3.043693 -3.103890 0
M  V30 57 H 2.528168 -1.851441 -1.497623 0
M  V30 58 H 4.473256 3.224416 0.267489 0
M  V30 59 H 2.401465 0.881938 1.791388 0
M  V30 60 H -0.932623 -0.522044 4.801576 0
M  V30 61 H 0.208198 0.454790 5.740456 0
M  V30 62 H -1.395687 2.072031 5.684042 0
M  V30 63 H -2.176087 1.338276 4.244452 0
M  V30 64 H -0.817432 4.451999 2.914479 0
M  V30 65 H -2.182623 4.025596 4.061901 0
M  V30 66 H -0.504913 4.476821 4.649696 0
M  V30 67 H 0.025602 2.700246 1.757847 0
M  V30 68 H -1.665022 2.112389 1.992578 0
M  V30 69 H 0.442024 0.502692 1.501990 0
M  V30 70 H -1.061270 -0.040722 2.392355 0
M  V30 END ATOM
M  V30 BEGIN BOND
M  V30 1 1 1 2
M  V30 2 2 2 3
M  V30 3 1 3 4
M  V30 4 1 4 5
M  V30 5 1 5 6
M  V30 6 2 6 7
M  V30 7 1 7 8
M  V30 8 1 8 9
M  V30 9 2 9 10
M  V30 10 1 10 11
M  V30 11 2 11 12
M  V30 12 1 12 13
M  V30 13 1 13 14
M  V30 14 1 14 15
M  V30 15 2 15 16
M  V30 16 1 15 17
M  V30 17 1 17 18
M  V30 18 1 18 19
M  V30 19 2 19 20
M  V30 20 1 20 21
M  V30 21 2 21 22
M  V30 22 1 22 23
M  V30 23 2 23 24
M  V30 24 1 12 25
M  V30 25 2 25 26
M  V30 26 2 8 27
M  V30 27 1 27 28
M  V30 28 2 4 29
M  V30 29 1 29 30
M  V30 30 1 30 31
M  V30 31 1 31 32
M  V30 32 1 32 33
M  V30 33 1 33 34
M  V30 34 1 34 35
M  V30 35 1 34 36
M  V30 36 1 36 37
M  V30 37 2 30 38
M  V30 38 1 38 2
M  V30 39 1 28 6
M  V30 40 1 37 31
M  V30 41 1 26 9
M  V30 42 1 24 19
M  V30 43 1 1 39
M  V30 44 1 1 40
M  V30 45 1 1 41
M  V30 46 1 5 42
M  V30 47 1 7 43
M  V30 48 1 10 44
M  V30 49 1 11 45
M  V30 50 1 13 46
M  V30 51 1 13 47
M  V30 52 1 14 48
M  V30 53 1 18 49
M  V30 54 1 18 50
M  V30 55 1 20 51
M  V30 56 1 21 52
M  V30 57 1 22 53
M  V30 58 1 23 54
M  V30 59 1 24 55
M  V30 60 1 25 56
M  V30 61 1 26 57
M  V30 62 1 28 58
M  V30 63 1 29 59
M  V30 64 1 32 60
M  V30 65 1 32 61
M  V30 66 1 33 62
M  V30 67 1 33 63
M  V30 68 1 35 64
M  V30 69 1 35 65
M  V30 70 1 35 66
M  V30 71 1 36 67
M  V30 72 1 36 68
M  V30 73 1 37 69
M  V30 74 1 37 70
M  V30 END BOND
M  V30 END CTAB
M  END
>  <Dataset>  (376) 
ChEMBL_Kinases

>  <Ligand_Instance>  (376) 
nan

>  <PDB_ID>  (376) 
nan

>  <Standardized_SMILES>  (376) 
Cc1nc(Nc2cc(-c3ccc(CNC(=O)OCc4ccccc4)cc3)n[nH]2)cc(N2CCN(C)CC2)n1

>  <Name>  (376) 
nan

>  <Pocket>  (376) 
nan

>  <ATP_Site>  (376) 
nan

>  <Peripheral>  (376) 
nan

>  <Num_H_Atoms_ProtBoundConf>  (376) 
nan

>  <Num_Resolved_Atoms>  (376) 
nan

>  <Num_Not_Resolved_Atoms>  (376) 
nan

$$$$
CHEMBL2063334
     RDKit          3D

  0  0  0  0  0  0  0  0  0  0999 V3000
M  V30 BEGIN CTAB
M  V30 COUNTS 68 72 0 0 0
M  V30 BEGIN ATOM
M  V30 1 C 9.136658 0.642688 4.669816 0
M  V30 2 N 8.610801 1.598762 3.718733 0
M  V30 3 C 8.658979 1.145817 2.372876 0
M  V30 4 C 7.832683 1.923048 1.391201 0
M  V30 5 N 6.627769 2.486581 1.932879 0
M  V30 6 C 5.337660 2.389613 1.349006 0
M  V30 7 C 5.122185 1.865389 0.095610 0
M  V30 8 C 3.841844 1.770549 -0.463695 0
M  V30 9 C 2.734005 2.205489 0.231116 0
M  V30 10 C 1.428275 2.079886 -0.405600 0
M  V30 11 O 1.368790 1.583907 -1.557689 0
M  V30 12 N 0.202288 2.477943 0.178873 0
M  V30 13 C -1.014240 2.296677 -0.560584 0
M  V30 14 C -1.706220 1.087733 -0.411130 0
M  V30 15 C -2.829362 1.153833 -1.211547 0
M  V30 16 C -3.828978 0.097098 -1.347905 0
M  V30 17 C -3.688469 -1.096145 -0.638731 0
M  V30 18 C -4.661855 -2.073204 -0.796329 0
M  V30 19 C -5.773847 -1.918892 -1.630291 0
M  V30 20 C -6.701941 -3.074810 -1.664638 0
M  V30 21 N -6.368405 -4.020041 -2.680339 0
M  V30 22 S -7.399182 -5.380436 -2.776515 0
M  V30 23 O -8.786490 -5.045201 -3.164963 0
M  V30 24 O -6.823847 -6.306870 -3.837273 0
M  V30 25 C -7.300389 -6.241945 -1.258801 0
M  V30 26 C -6.346804 -7.247699 -1.084244 0
M  V30 27 C -6.182482 -7.990746 0.075980 0
M  V30 28 C -7.028914 -7.706186 1.127125 0
M  V30 29 C -7.982779 -6.713629 0.979548 0
M  V30 30 C -8.129266 -5.981150 -0.193548 0
M  V30 31 C -5.889836 -0.728497 -2.321591 0
M  V30 32 C -4.918132 0.240813 -2.160958 0
M  V30 33 N -2.792795 2.362432 -1.808421 0
M  V30 34 N -1.721771 3.047251 -1.429663 0
M  V30 35 C 2.938251 2.731730 1.486220 0
M  V30 36 C 4.209874 2.812970 2.012417 0
M  V30 37 C 6.907113 3.184153 3.168419 0
M  V30 38 C 7.373734 2.153967 4.163301 0
M  V30 39 H 8.600148 -0.337588 4.554665 0
M  V30 40 H 8.899240 0.967224 5.703539 0
M  V30 41 H 10.229881 0.517722 4.604574 0
M  V30 42 H 8.376475 0.074453 2.330487 0
M  V30 43 H 9.728372 1.179162 2.027294 0
M  V30 44 H 7.632115 1.321069 0.500491 0
M  V30 45 H 8.464171 2.790199 1.031880 0
M  V30 46 H 5.927026 1.501639 -0.522785 0
M  V30 47 H 3.734464 1.342289 -1.467927 0
M  V30 48 H 0.215862 2.894186 1.135402 0
M  V30 49 H -1.462138 0.219254 0.202000 0
M  V30 50 H -2.840505 -1.275119 0.027915 0
M  V30 51 H -4.502265 -2.992567 -0.215173 0
M  V30 52 H -7.764019 -2.769455 -1.850351 0
M  V30 53 H -6.715193 -3.580317 -0.689767 0
M  V30 54 H -5.367530 -4.243445 -2.788011 0
M  V30 55 H -5.672876 -7.473695 -1.921699 0
M  V30 56 H -5.397204 -8.754038 0.092340 0
M  V30 57 H -6.917414 -8.276190 2.045636 0
M  V30 58 H -8.661592 -6.474579 1.801201 0
M  V30 59 H -8.886666 -5.209622 -0.277554 0
M  V30 60 H -6.764675 -0.655182 -2.953445 0
M  V30 61 H -5.060038 1.159031 -2.729982 0
M  V30 62 H -1.370395 3.993124 -1.676470 0
M  V30 63 H 2.048150 3.062471 2.003386 0
M  V30 64 H 4.218999 3.242826 3.000612 0
M  V30 65 H 7.771830 3.861917 2.981254 0
M  V30 66 H 6.058096 3.786022 3.551342 0
M  V30 67 H 7.613039 2.733919 5.101895 0
M  V30 68 H 6.592511 1.401550 4.383356 0
M  V30 END ATOM
M  V30 BEGIN BOND
M  V30 1 1 1 2
M  V30 2 1 2 3
M  V30 3 1 3 4
M  V30 4 1 4 5
M  V30 5 1 5 6
M  V30 6 2 6 7
M  V30 7 1 7 8
M  V30 8 2 8 9
M  V30 9 1 9 10
M  V30 10 2 10 11
M  V30 11 1 10 12
M  V30 12 1 12 13
M  V30 13 2 13 14
M  V30 14 1 14 15
M  V30 15 1 15 16
M  V30 16 2 16 17
M  V30 17 1 17 18
M  V30 18 2 18 19
M  V30 19 1 19 20
M  V30 20 1 20 21
M  V30 21 1 21 22
M  V30 22 2 22 23
M  V30 23 2 22 24
M  V30 24 1 22 25
M  V30 25 2 25 26
M  V30 26 1 26 27
M  V30 27 2 27 28
M  V30 28 1 28 29
M  V30 29 2 29 30
M  V30 30 1 19 31
M  V30 31 2 31 32
M  V30 32 2 15 33
M  V30 33 1 33 34
M  V30 34 1 9 35
M  V30 35 2 35 36
M  V30 36 1 5 37
M  V30 37 1 37 38
M  V30 38 1 38 2
M  V30 39 1 36 6
M  V30 40 1 34 13
M  V30 41 1 32 16
M  V30 42 1 30 25
M  V30 43 1 1 39
M  V30 44 1 1 40
M  V30 45 1 1 41
M  V30 46 1 3 42
M  V30 47 1 3 43
M  V30 48 1 4 44
M  V30 49 1 4 45
M  V30 50 1 7 46
M  V30 51 1 8 47
M  V30 52 1 12 48
M  V30 53 1 14 49
M  V30 54 1 17 50
M  V30 55 1 18 51
M  V30 56 1 20 52
M  V30 57 1 20 53
M  V30 58 1 21 54
M  V30 59 1 26 55
M  V30 60 1 27 56
M  V30 61 1 28 57
M  V30 62 1 29 58
M  V30 63 1 30 59
M  V30 64 1 31 60
M  V30 65 1 32 61
M  V30 66 1 34 62
M  V30 67 1 35 63
M  V30 68 1 36 64
M  V30 69 1 37 65
M  V30 70 1 37 66
M  V30 71 1 38 67
M  V30 72 1 38 68
M  V30 END BOND
M  V30 END CTAB
M  END
>  <Dataset>  (377) 
ChEMBL_Kinases

>  <Ligand_Instance>  (377) 
nan

>  <PDB_ID>  (377) 
nan

>  <Standardized_SMILES>  (377) 
CN1CCN(c2ccc(C(=O)Nc3cc(-c4ccc(CNS(=O)(=O)c5ccccc5)cc4)n[nH]3)cc2)CC1

>  <Name>  (377) 
nan

>  <Pocket>  (377) 
nan

>  <ATP_Site>  (377) 
nan

>  <Peripheral>  (377) 
nan

>  <Num_H_Atoms_ProtBoundConf>  (377) 
nan

>  <Num_Resolved_Atoms>  (377) 
nan

>  <Num_Not_Resolved_Atoms>  (377) 
nan

$$$$
CHEMBL2063326
     RDKit          3D

  0  0  0  0  0  0  0  0  0  0999 V3000
M  V30 BEGIN CTAB
M  V30 COUNTS 74 78 0 0 0
M  V30 BEGIN ATOM
M  V30 1 O 5.342792 -2.350302 5.298650 0
M  V30 2 C 6.016574 -1.428821 4.831841 0
M  V30 3 N 5.750966 -0.047001 5.035793 0
M  V30 4 C 4.632473 0.471574 5.830073 0
M  V30 5 C 3.359333 0.392471 5.111504 0
M  V30 6 C 2.441236 -0.638356 5.147530 0
M  V30 7 C 1.255413 -0.609863 4.401126 0
M  V30 8 C 1.006488 0.511607 3.594097 0
M  V30 9 C -0.243481 0.484187 2.837621 0
M  V30 10 C -0.713699 1.445257 1.971450 0
M  V30 11 C -1.918147 0.981895 1.492058 0
M  V30 12 N -2.885123 1.506120 0.568739 0
M  V30 13 C -2.475518 1.024297 -0.701617 0
M  V30 14 O -1.411910 0.311401 -0.616904 0
M  V30 15 C -3.064919 1.219403 -2.027793 0
M  V30 16 C -2.276225 0.868661 -3.098752 0
M  V30 17 C -2.848366 0.999704 -4.376423 0
M  V30 18 C -4.164651 1.465357 -4.572621 0
M  V30 19 O -4.414572 1.471363 -5.908851 0
M  V30 20 C -5.528410 1.805724 -6.641179 0
M  V30 21 C -6.768903 1.001976 -6.429086 0
M  V30 22 N -6.642978 -0.405269 -6.750085 0
M  V30 23 C -5.778290 -1.064264 -5.821545 0
M  V30 24 C -5.899097 -2.554717 -5.852388 0
M  V30 25 O -7.178816 -3.010716 -5.698309 0
M  V30 26 C -7.960225 -2.496970 -6.735500 0
M  V30 27 C -7.953413 -0.983931 -6.721698 0
M  V30 28 C -4.881795 1.794904 -3.435413 0
M  V30 29 C -4.353414 1.679710 -2.171576 0
M  V30 30 N -2.162398 -0.237945 2.064422 0
M  V30 31 N -1.139677 -0.526487 2.877125 0
M  V30 32 C 1.892919 1.563155 3.527090 0
M  V30 33 C 3.033427 1.452658 4.293094 0
M  V30 34 O 7.101423 -1.692674 4.059568 0
M  V30 35 C 7.627741 -2.940854 3.680020 0
M  V30 36 C 8.026358 -3.690878 4.890662 0
M  V30 37 C 7.322720 -4.623235 5.618070 0
M  V30 38 C 7.843462 -5.230205 6.756382 0
M  V30 39 C 9.128153 -4.855639 7.143835 0
M  V30 40 C 9.875542 -3.930802 6.454814 0
M  V30 41 C 9.310437 -3.361425 5.335295 0
M  V30 42 H 6.374321 0.706843 4.603349 0
M  V30 43 H 4.642025 -0.198138 6.744471 0
M  V30 44 H 4.920519 1.458304 6.200744 0
M  V30 45 H 2.708474 -1.467735 5.795584 0
M  V30 46 H 0.590969 -1.453846 4.483666 0
M  V30 47 H -0.296206 2.374764 1.681272 0
M  V30 48 H -3.736292 2.088504 0.541118 0
M  V30 49 H -1.252473 0.507525 -2.965699 0
M  V30 50 H -2.131850 0.693901 -5.161116 0
M  V30 51 H -5.248562 1.637265 -7.732657 0
M  V30 52 H -5.762204 2.912985 -6.619307 0
M  V30 53 H -7.525431 1.395109 -7.170482 0
M  V30 54 H -7.222381 1.138352 -5.424527 0
M  V30 55 H -6.022650 -0.696581 -4.803134 0
M  V30 56 H -4.716046 -0.808509 -6.114072 0
M  V30 57 H -5.249696 -2.963568 -5.027427 0
M  V30 58 H -5.399119 -2.910179 -6.795194 0
M  V30 59 H -9.003933 -2.828456 -6.573962 0
M  V30 60 H -7.593478 -2.907808 -7.690422 0
M  V30 61 H -8.575517 -0.685754 -7.614093 0
M  V30 62 H -8.508784 -0.667220 -5.794312 0
M  V30 63 H -5.860430 2.135399 -3.716306 0
M  V30 64 H -4.974838 1.955733 -1.349566 0
M  V30 65 H -2.951914 -0.945748 1.989985 0
M  V30 66 H 1.683831 2.399464 2.908641 0
M  V30 67 H 3.704150 2.305136 4.209750 0
M  V30 68 H 8.498941 -2.786589 2.997531 0
M  V30 69 H 6.863519 -3.521526 3.117441 0
M  V30 70 H 6.342473 -4.856129 5.238039 0
M  V30 71 H 7.255757 -5.948630 7.286444 0
M  V30 72 H 9.567340 -5.318404 8.036767 0
M  V30 73 H 10.847333 -3.693985 6.808275 0
M  V30 74 H 9.964930 -2.636754 4.839546 0
M  V30 END ATOM
M  V30 BEGIN BOND
M  V30 1 2 1 2
M  V30 2 1 2 3
M  V30 3 1 3 4
M  V30 4 1 4 5
M  V30 5 2 5 6
M  V30 6 1 6 7
M  V30 7 2 7 8
M  V30 8 1 8 9
M  V30 9 1 9 10
M  V30 10 2 10 11
M  V30 11 1 11 12
M  V30 12 1 12 13
M  V30 13 2 13 14
M  V30 14 1 13 15
M  V30 15 2 15 16
M  V30 16 1 16 17
M  V30 17 2 17 18
M  V30 18 1 18 19
M  V30 19 1 19 20
M  V30 20 1 20 21
M  V30 21 1 21 22
M  V30 22 1 22 23
M  V30 23 1 23 24
M  V30 24 1 24 25
M  V30 25 1 25 26
M  V30 26 1 26 27
M  V30 27 1 18 28
M  V30 28 2 28 29
M  V30 29 1 11 30
M  V30 30 1 30 31
M  V30 31 1 8 32
M  V30 32 2 32 33
M  V30 33 1 2 34
M  V30 34 1 34 35
M  V30 35 1 35 36
M  V30 36 2 36 37
M  V30 37 1 37 38
M  V30 38 2 38 39
M  V30 39 1 39 40
M  V30 40 2 40 41
M  V30 41 1 33 5
M  V30 42 1 41 36
M  V30 43 2 31 9
M  V30 44 1 29 15
M  V30 45 1 27 22
M  V30 46 1 3 42
M  V30 47 1 4 43
M  V30 48 1 4 44
M  V30 49 1 6 45
M  V30 50 1 7 46
M  V30 51 1 10 47
M  V30 52 1 12 48
M  V30 53 1 16 49
M  V30 54 1 17 50
M  V30 55 1 20 51
M  V30 56 1 20 52
M  V30 57 1 21 53
M  V30 58 1 21 54
M  V30 59 1 23 55
M  V30 60 1 23 56
M  V30 61 1 24 57
M  V30 62 1 24 58
M  V30 63 1 26 59
M  V30 64 1 26 60
M  V30 65 1 27 61
M  V30 66 1 27 62
M  V30 67 1 28 63
M  V30 68 1 29 64
M  V30 69 1 30 65
M  V30 70 1 32 66
M  V30 71 1 33 67
M  V30 72 1 35 68
M  V30 73 1 35 69
M  V30 74 1 37 70
M  V30 75 1 38 71
M  V30 76 1 39 72
M  V30 77 1 40 73
M  V30 78 1 41 74
M  V30 END BOND
M  V30 END CTAB
M  END
>  <Dataset>  (378) 
ChEMBL_Kinases

>  <Ligand_Instance>  (378) 
nan

>  <PDB_ID>  (378) 
nan

>  <Standardized_SMILES>  (378) 
O=C(NCc1ccc(-c2cc(NC(=O)c3ccc(OCCN4CCOCC4)cc3)[nH]n2)cc1)OCc1ccccc1

>  <Name>  (378) 
nan

>  <Pocket>  (378) 
nan

>  <ATP_Site>  (378) 
nan

>  <Peripheral>  (378) 
nan

>  <Num_H_Atoms_ProtBoundConf>  (378) 
nan

>  <Num_Resolved_Atoms>  (378) 
nan

>  <Num_Not_Resolved_Atoms>  (378) 
nan

$$$$
CHEMBL2063323
     RDKit          3D

  0  0  0  0  0  0  0  0  0  0999 V3000
M  V30 BEGIN CTAB
M  V30 COUNTS 71 75 0 0 0
M  V30 BEGIN ATOM
M  V30 1 C 8.199811 -3.553987 6.017243 0
M  V30 2 N 7.552406 -3.975535 4.809225 0
M  V30 3 C 8.347299 -4.737711 3.917362 0
M  V30 4 C 7.776470 -4.683128 2.497144 0
M  V30 5 N 6.392218 -4.271355 2.621922 0
M  V30 6 C 5.672713 -3.296987 1.875832 0
M  V30 7 C 4.491104 -2.801476 2.386679 0
M  V30 8 C 3.721966 -1.873660 1.728605 0
M  V30 9 C 4.153448 -1.419119 0.501173 0
M  V30 10 C 3.451837 -0.434971 -0.315862 0
M  V30 11 O 3.586896 0.043611 -1.472632 0
M  V30 12 N 2.303336 0.215078 0.231292 0
M  V30 13 C 1.480260 1.190988 -0.396015 0
M  V30 14 C 0.359522 0.722718 -1.096742 0
M  V30 15 C -0.243570 1.876574 -1.602065 0
M  V30 16 C -1.456187 1.924288 -2.407126 0
M  V30 17 C -1.922488 3.148399 -2.831431 0
M  V30 18 C -3.087738 3.165551 -3.585791 0
M  V30 19 C -3.781672 1.996291 -3.916679 0
M  V30 20 C -4.993812 2.258378 -4.723748 0
M  V30 21 N -6.128630 2.563261 -3.843336 0
M  V30 22 C -6.670395 1.405588 -3.229229 0
M  V30 23 O -6.479139 0.172165 -3.210160 0
M  V30 24 O -7.742125 1.428661 -2.344257 0
M  V30 25 C -8.259314 0.252850 -1.742991 0
M  V30 26 C -9.378232 0.672180 -0.860925 0
M  V30 27 C -9.016214 0.966976 0.451601 0
M  V30 28 C -9.945977 1.370072 1.378750 0
M  V30 29 C -11.267389 1.486178 1.005974 0
M  V30 30 C -11.683049 1.202123 -0.302741 0
M  V30 31 C -10.710149 0.803452 -1.185595 0
M  V30 32 C -3.257964 0.808069 -3.459926 0
M  V30 33 C -2.109823 0.766382 -2.713697 0
M  V30 34 N 0.488062 2.956927 -1.215716 0
M  V30 35 N 1.523767 2.529429 -0.489317 0
M  V30 36 C 5.339021 -1.908060 -0.023684 0
M  V30 37 C 6.119658 -2.852165 0.647579 0
M  V30 38 C 5.771219 -5.053488 3.680582 0
M  V30 39 C 6.217000 -4.473206 5.005844 0
M  V30 40 H 7.856506 -2.577166 6.392656 0
M  V30 41 H 8.097867 -4.326512 6.812629 0
M  V30 42 H 9.285545 -3.457849 5.817907 0
M  V30 43 H 9.362796 -4.301461 3.899645 0
M  V30 44 H 8.473595 -5.808753 4.250528 0
M  V30 45 H 8.384008 -4.058855 1.834178 0
M  V30 46 H 7.712229 -5.747630 2.128554 0
M  V30 47 H 4.072765 -3.099360 3.347255 0
M  V30 48 H 2.797365 -1.489230 2.131693 0
M  V30 49 H 1.903418 0.056070 1.208981 0
M  V30 50 H -0.012550 -0.287370 -1.251623 0
M  V30 51 H -1.394485 4.057728 -2.580611 0
M  V30 52 H -3.392016 4.160492 -3.883104 0
M  V30 53 H -4.866755 3.116246 -5.383420 0
M  V30 54 H -5.267047 1.356957 -5.324698 0
M  V30 55 H -6.642828 3.425692 -3.554615 0
M  V30 56 H -7.522307 -0.321283 -1.171156 0
M  V30 57 H -8.597303 -0.409954 -2.564538 0
M  V30 58 H -7.966118 0.883762 0.774081 0
M  V30 59 H -9.615333 1.583097 2.370683 0
M  V30 60 H -12.037824 1.797982 1.690652 0
M  V30 61 H -12.714298 1.275562 -0.650690 0
M  V30 62 H -10.936448 0.558794 -2.225116 0
M  V30 63 H -3.828084 -0.058708 -3.748391 0
M  V30 64 H -1.805609 -0.204192 -2.419767 0
M  V30 65 H 2.322753 2.991564 -0.000666 0
M  V30 66 H 5.740864 -1.600375 -0.979239 0
M  V30 67 H 7.030881 -3.241905 0.270248 0
M  V30 68 H 4.646266 -5.022632 3.573486 0
M  V30 69 H 6.050280 -6.128782 3.649301 0
M  V30 70 H 6.135309 -5.218167 5.823369 0
M  V30 71 H 5.549687 -3.624535 5.244246 0
M  V30 END ATOM
M  V30 BEGIN BOND
M  V30 1 1 1 2
M  V30 2 1 2 3
M  V30 3 1 3 4
M  V30 4 1 4 5
M  V30 5 1 5 6
M  V30 6 2 6 7
M  V30 7 1 7 8
M  V30 8 2 8 9
M  V30 9 1 9 10
M  V30 10 2 10 11
M  V30 11 1 10 12
M  V30 12 1 12 13
M  V30 13 2 13 14
M  V30 14 1 14 15
M  V30 15 1 15 16
M  V30 16 2 16 17
M  V30 17 1 17 18
M  V30 18 2 18 19
M  V30 19 1 19 20
M  V30 20 1 20 21
M  V30 21 1 21 22
M  V30 22 2 22 23
M  V30 23 1 22 24
M  V30 24 1 24 25
M  V30 25 1 25 26
M  V30 26 2 26 27
M  V30 27 1 27 28
M  V30 28 2 28 29
M  V30 29 1 29 30
M  V30 30 2 30 31
M  V30 31 1 19 32
M  V30 32 2 32 33
M  V30 33 2 15 34
M  V30 34 1 34 35
M  V30 35 1 9 36
M  V30 36 2 36 37
M  V30 37 1 5 38
M  V30 38 1 38 39
M  V30 39 1 39 2
M  V30 40 1 37 6
M  V30 41 1 35 13
M  V30 42 1 33 16
M  V30 43 1 31 26
M  V30 44 1 1 40
M  V30 45 1 1 41
M  V30 46 1 1 42
M  V30 47 1 3 43
M  V30 48 1 3 44
M  V30 49 1 4 45
M  V30 50 1 4 46
M  V30 51 1 7 47
M  V30 52 1 8 48
M  V30 53 1 12 49
M  V30 54 1 14 50
M  V30 55 1 17 51
M  V30 56 1 18 52
M  V30 57 1 20 53
M  V30 58 1 20 54
M  V30 59 1 21 55
M  V30 60 1 25 56
M  V30 61 1 25 57
M  V30 62 1 27 58
M  V30 63 1 28 59
M  V30 64 1 29 60
M  V30 65 1 30 61
M  V30 66 1 31 62
M  V30 67 1 32 63
M  V30 68 1 33 64
M  V30 69 1 35 65
M  V30 70 1 36 66
M  V30 71 1 37 67
M  V30 72 1 38 68
M  V30 73 1 38 69
M  V30 74 1 39 70
M  V30 75 1 39 71
M  V30 END BOND
M  V30 END CTAB
M  END
>  <Dataset>  (379) 
ChEMBL_Kinases

>  <Ligand_Instance>  (379) 
nan

>  <PDB_ID>  (379) 
nan

>  <Standardized_SMILES>  (379) 
CN1CCN(c2ccc(C(=O)Nc3cc(-c4ccc(CNC(=O)OCc5ccccc5)cc4)n[nH]3)cc2)CC1

>  <Name>  (379) 
nan

>  <Pocket>  (379) 
nan

>  <ATP_Site>  (379) 
nan

>  <Peripheral>  (379) 
nan

>  <Num_H_Atoms_ProtBoundConf>  (379) 
nan

>  <Num_Resolved_Atoms>  (379) 
nan

>  <Num_Not_Resolved_Atoms>  (379) 
nan

$$$$
CHEMBL206332
     RDKit          3D

  0  0  0  0  0  0  0  0  0  0999 V3000
M  V30 BEGIN CTAB
M  V30 COUNTS 74 74 0 0 0
M  V30 BEGIN ATOM
M  V30 1 C 0.713016 2.834304 4.647342 0
M  V30 2 C 2.183704 2.500646 4.497179 0
M  V30 3 C 2.667039 1.622257 5.617895 0
M  V30 4 C 4.111510 1.249199 5.538835 0
M  V30 5 C 4.461348 0.484651 4.283301 0
M  V30 6 C 3.668161 -0.776124 4.235028 0
M  V30 7 C 3.951988 -1.615389 3.034806 0
M  V30 8 C 3.640333 -0.896002 1.783949 0
M  V30 9 O 3.939862 -1.681112 0.853524 0
M  V30 10 O 3.139712 0.335650 1.523400 0
M  V30 11 C 2.866346 0.945881 0.299132 0
M  V30 12 C 1.835701 0.295260 -0.553402 0
M  V30 13 C 1.503926 1.131986 -1.786595 0
M  V30 14 O 2.619796 1.190998 -2.588964 0
M  V30 15 C 0.495849 0.159794 0.184358 0
M  V30 16 C 0.005856 -1.130995 -0.363727 0
M  V30 17 C -1.208458 -1.680875 -0.473721 0
M  V30 18 C -1.671870 -2.950479 -1.014992 0
M  V30 19 C -2.671589 -2.713532 -2.190727 0
M  V30 20 C -3.841798 -1.943306 -1.722494 0
M  V30 21 C -4.596618 -2.627363 -0.591109 0
M  V30 22 C -5.126249 -3.978050 -0.955532 0
M  V30 23 C -5.811184 -1.724569 -0.330109 0
M  V30 24 C -1.944898 -2.132832 -3.345912 0
M  V30 25 C -2.685891 -1.812252 -4.598919 0
M  V30 26 C -3.767193 -0.803683 -4.535620 0
M  V30 27 C -1.603048 -1.369716 -5.611994 0
M  V30 28 C 1.140827 -1.882084 -0.857847 0
M  V30 29 O 1.228176 -3.086330 -1.205379 0
M  V30 30 O 2.210355 -0.998351 -0.893756 0
M  V30 31 H 0.145792 2.097244 4.025678 0
M  V30 32 H 0.486049 3.846936 4.276923 0
M  V30 33 H 0.447802 2.673444 5.704250 0
M  V30 34 H 2.715399 3.474725 4.479253 0
M  V30 35 H 2.351328 2.024958 3.524191 0
M  V30 36 H 2.017975 0.741198 5.709079 0
M  V30 37 H 2.518146 2.215480 6.555241 0
M  V30 38 H 4.741110 2.171554 5.562475 0
M  V30 39 H 4.387108 0.674172 6.425980 0
M  V30 40 H 4.256579 1.092815 3.402806 0
M  V30 41 H 5.539885 0.192837 4.335428 0
M  V30 42 H 3.872476 -1.401160 5.136051 0
M  V30 43 H 2.563650 -0.586051 4.263231 0
M  V30 44 H 5.002098 -1.983656 3.063198 0
M  V30 45 H 3.273170 -2.498384 3.091991 0
M  V30 46 H 2.511311 1.992742 0.499604 0
M  V30 47 H 3.810264 1.057042 -0.315474 0
M  V30 48 H 1.207298 2.124977 -1.392577 0
M  V30 49 H 0.636287 0.627238 -2.260575 0
M  V30 50 H 2.412413 0.790137 -3.466597 0
M  V30 51 H 0.655012 -0.013267 1.268340 0
M  V30 52 H -0.183454 0.987074 -0.039818 0
M  V30 53 H -2.027648 -1.053521 -0.078540 0
M  V30 54 H -2.313689 -3.422327 -0.238685 0
M  V30 55 H -0.956555 -3.711846 -1.280029 0
M  V30 56 H -3.043376 -3.714428 -2.524605 0
M  V30 57 H -3.639746 -0.921936 -1.422565 0
M  V30 58 H -4.600560 -1.958143 -2.561222 0
M  V30 59 H -4.066998 -2.677015 0.351605 0
M  V30 60 H -5.295454 -4.097429 -2.056698 0
M  V30 61 H -6.086730 -4.127829 -0.407614 0
M  V30 62 H -4.463421 -4.794078 -0.543397 0
M  V30 63 H -6.678637 -2.080137 -0.926243 0
M  V30 64 H -5.614973 -0.673181 -0.537873 0
M  V30 65 H -6.137860 -1.804866 0.737345 0
M  V30 66 H -1.414268 -1.166856 -3.033557 0
M  V30 67 H -1.109177 -2.832095 -3.694147 0
M  V30 68 H -3.090137 -2.802200 -4.970508 0
M  V30 69 H -3.675321 -0.139142 -3.678362 0
M  V30 70 H -3.610599 -0.128755 -5.449757 0
M  V30 71 H -4.794029 -1.201329 -4.733611 0
M  V30 72 H -1.115137 -0.456214 -5.203274 0
M  V30 73 H -0.819490 -2.143678 -5.693936 0
M  V30 74 H -2.032387 -1.157839 -6.589489 0
M  V30 END ATOM
M  V30 BEGIN BOND
M  V30 1 1 1 2
M  V30 2 1 2 3
M  V30 3 1 3 4
M  V30 4 1 4 5
M  V30 5 1 5 6
M  V30 6 1 6 7
M  V30 7 1 7 8
M  V30 8 2 8 9
M  V30 9 1 8 10
M  V30 10 1 10 11
M  V30 11 1 11 12
M  V30 12 1 12 13
M  V30 13 1 13 14
M  V30 14 1 12 15
M  V30 15 1 15 16
M  V30 16 2 16 17
M  V30 17 1 17 18
M  V30 18 1 18 19
M  V30 19 1 19 20
M  V30 20 1 20 21
M  V30 21 1 21 22
M  V30 22 1 21 23
M  V30 23 1 19 24
M  V30 24 1 24 25
M  V30 25 1 25 26
M  V30 26 1 25 27
M  V30 27 1 16 28
M  V30 28 2 28 29
M  V30 29 1 28 30
M  V30 30 1 30 12
M  V30 31 1 1 31
M  V30 32 1 1 32
M  V30 33 1 1 33
M  V30 34 1 2 34
M  V30 35 1 2 35
M  V30 36 1 3 36
M  V30 37 1 3 37
M  V30 38 1 4 38
M  V30 39 1 4 39
M  V30 40 1 5 40
M  V30 41 1 5 41
M  V30 42 1 6 42
M  V30 43 1 6 43
M  V30 44 1 7 44
M  V30 45 1 7 45
M  V30 46 1 11 46
M  V30 47 1 11 47
M  V30 48 1 13 48
M  V30 49 1 13 49
M  V30 50 1 14 50
M  V30 51 1 15 51
M  V30 52 1 15 52
M  V30 53 1 17 53
M  V30 54 1 18 54
M  V30 55 1 18 55
M  V30 56 1 19 56
M  V30 57 1 20 57
M  V30 58 1 20 58
M  V30 59 1 21 59
M  V30 60 1 22 60
M  V30 61 1 22 61
M  V30 62 1 22 62
M  V30 63 1 23 63
M  V30 64 1 23 64
M  V30 65 1 23 65
M  V30 66 1 24 66
M  V30 67 1 24 67
M  V30 68 1 25 68
M  V30 69 1 26 69
M  V30 70 1 26 70
M  V30 71 1 26 71
M  V30 72 1 27 72
M  V30 73 1 27 73
M  V30 74 1 27 74
M  V30 END BOND
M  V30 END CTAB
M  END
>  <Dataset>  (380) 
ChEMBL_Kinases

>  <Ligand_Instance>  (380) 
nan

>  <PDB_ID>  (380) 
nan

>  <Standardized_SMILES>  (380) 
CCCCCCCC(=O)OCC1(CO)C/C(=C/CC(CC(C)C)CC(C)C)C(=O)O1

>  <Name>  (380) 
nan

>  <Pocket>  (380) 
nan

>  <ATP_Site>  (380) 
nan

>  <Peripheral>  (380) 
nan

>  <Num_H_Atoms_ProtBoundConf>  (380) 
nan

>  <Num_Resolved_Atoms>  (380) 
nan

>  <Num_Not_Resolved_Atoms>  (380) 
nan

$$$$
CHEMBL2063002
     RDKit          3D

  0  0  0  0  0  0  0  0  0  0999 V3000
M  V30 BEGIN CTAB
M  V30 COUNTS 216 222 0 0 0
M  V30 BEGIN ATOM
M  V30 1 C -4.004657 5.079437 3.248246 0
M  V30 2 C -3.176396 5.894466 2.280024 0
M  V30 3 O -3.101251 7.061967 1.871712 0
M  V30 4 O -2.302712 5.005884 1.770558 0
M  V30 5 C -1.277425 5.237485 0.786030 0 CFG=1
M  V30 6 C 0.007167 4.826720 1.463876 0
M  V30 7 C 1.205281 4.791490 0.573140 0 CFG=1
M  V30 8 O 1.506120 6.056207 0.138580 0
M  V30 9 C 2.337274 4.245293 1.401743 0
M  V30 10 C 3.623065 4.024992 0.631061 0 CFG=2
M  V30 11 O 3.324385 3.140275 -0.439918 0
M  V30 12 C 4.642475 3.340646 1.514462 0
M  V30 13 C 5.876721 3.030130 0.717606 0 CFG=1
M  V30 14 O 6.559692 4.125162 0.260718 0
M  V30 15 C 6.710942 1.980775 1.401124 0 CFG=2
M  V30 16 O 7.979807 1.780615 0.683047 0
M  V30 17 C 6.965001 0.885792 0.518136 0 CFG=1
M  V30 18 C 6.879511 -0.488348 1.126538 0 CFG=1
M  V30 19 C 5.647342 -0.613750 1.888717 0
M  V30 20 C 7.299675 -1.496410 0.097187 0 CFG=1
M  V30 21 C 7.009359 -2.932960 0.462186 0 CFG=1
M  V30 22 C 7.563515 -3.461538 1.697234 0
M  V30 23 C 5.589167 -3.251017 0.082823 0 CFG=1
M  V30 24 O 5.670445 -3.030822 -1.382348 0
M  V30 25 C 5.045869 -4.584164 0.153105 0 CFG=2
M  V30 26 C 5.695233 -5.595560 -0.759965 0
M  V30 27 C 3.570045 -4.835408 0.238676 0 CFG=1
M  V30 28 O 3.054975 -4.294488 1.427735 0
M  V30 29 C 2.729001 -4.510678 -0.942817 0 CFG=1
M  V30 30 C 1.290338 -4.967901 -0.598676 0
M  V30 31 C 2.498790 -3.041247 -1.295335 0 CFG=1
M  V30 32 C 1.820805 -3.122676 -2.651980 0
M  V30 33 O 1.485547 -2.433039 -0.588939 0
M  V30 34 C 1.672211 -1.650992 0.501146 0 CFG=1
M  V30 35 C 1.042029 -0.315308 0.461492 0
M  V30 36 C 0.568746 0.172061 1.786933 0
M  V30 37 C -0.331301 -0.770308 2.473037 0 CFG=2
M  V30 38 O 0.052092 -1.065443 3.764374 0
M  V30 39 C -0.842227 -1.481871 4.665470 0 CFG=2
M  V30 40 C -1.097807 -0.464341 5.776987 0
M  V30 41 C -2.227142 -0.971562 6.675240 0
M  V30 42 C -2.509349 -2.408904 6.437483 0 CFG=1
M  V30 43 O -3.448065 -2.666582 5.430802 0
M  V30 44 C -4.627513 -3.322972 5.496263 0
M  V30 45 O -4.800129 -3.723826 6.677676 0
M  V30 46 C -5.583996 -3.542306 4.367631 0 CFG=2
M  V30 47 C -6.751639 -4.298107 4.999707 0
M  V30 48 C -4.996441 -4.394002 3.254833 0 CFG=1
M  V30 49 O -4.669103 -5.669852 3.650769 0
M  V30 50 C -5.802959 -4.305065 2.038624 0
M  V30 51 C -7.238492 -4.573897 1.815626 0
M  V30 52 C -5.198704 -3.978489 0.869517 0
M  V30 53 C -5.704050 -3.809937 -0.485492 0
M  V30 54 C -5.055729 -4.362971 -1.552422 0
M  V30 55 C -5.376525 -4.271158 -2.875701 0
M  V30 56 C -6.514200 -3.509380 -3.156587 0
M  V30 57 C -7.232003 -2.913067 -2.144990 0
M  V30 58 C -6.823135 -3.069455 -0.833571 0
M  V30 59 C -8.396626 -2.133415 -2.537288 0
M  V30 60 O -9.065675 -1.584459 -1.615466 0
M  V30 61 C -8.736618 -2.016434 -3.923967 0
M  V30 62 C -8.114123 -2.543726 -4.964830 0
M  V30 63 C -6.942208 -3.328812 -4.531573 0
M  V30 64 O -6.264660 -3.888675 -5.436836 0
M  V30 65 C -1.214874 -3.174308 6.203161 0 CFG=2
M  V30 66 C -0.589191 -3.459636 7.559613 0
M  V30 67 O -0.312804 -2.584843 5.395213 0
M  V30 68 C -0.226980 -2.099593 1.638706 0 CFG=2
M  V30 69 C -1.169328 -3.081365 2.137926 0
M  V30 70 O 1.070549 -2.407385 1.547915 0
M  V30 71 O 6.631044 -1.235821 -1.048134 0
M  V30 72 C 6.781968 -0.730080 -2.286976 0
M  V30 73 O 7.988991 -0.390116 -2.267050 0
M  V30 74 C 6.977750 -0.195158 -3.569256 0
M  V30 75 C 5.560311 -0.546025 -3.596843 0
M  V30 76 C 4.257351 -0.593522 -4.329822 0 CFG=2
M  V30 77 C 4.208112 -2.153955 -4.744867 0
M  V30 78 C 4.215602 0.102417 -5.681766 0 CFG=1
M  V30 79 O 4.992904 -0.548768 -6.575048 0
M  V30 80 C 2.735573 0.184785 -6.020573 0
M  V30 81 C 1.970447 1.242160 -5.293790 0 CFG=2
M  V30 82 O 2.461047 1.410967 -3.994227 0
M  V30 83 C 0.532585 0.693013 -5.077295 0
M  V30 84 C -0.513985 1.211593 -4.516786 0
M  V30 85 C -1.916001 0.810596 -4.243222 0
M  V30 86 C -2.177017 0.809555 -2.727926 0
M  V30 87 C -3.582687 0.323322 -2.405351 0 CFG=1
M  V30 88 C -3.719893 0.261803 -0.881704 0
M  V30 89 C -4.700633 1.053873 -3.040815 0 CFG=1
M  V30 90 O -5.828433 0.134131 -2.876772 0
M  V30 91 C -5.230275 2.283141 -2.428889 0 CFG=2
M  V30 92 O -6.389337 2.659747 -3.187604 0
M  V30 93 C -4.440812 3.512408 -2.291099 0 CFG=1
M  V30 94 O -5.419341 4.532095 -1.988231 0
M  V30 95 O -3.577006 3.544026 -1.236692 0
M  V30 96 C -2.993070 4.727642 -0.920207 0 CFG=1
M  V30 97 C -1.585577 4.394211 -0.399749 0
M  V30 98 C -2.956970 5.811540 -1.931339 0
M  V30 99 C -3.517573 5.513215 -3.267208 0 CFG=1
M  V30 100 O -2.793395 6.097680 -4.306412 0
M  V30 101 C -3.752435 4.029776 -3.509961 0 CFG=2
M  V30 102 O -4.561889 3.817065 -4.612397 0
M  V30 103 H -4.775287 5.709009 3.753995 0
M  V30 104 H -4.523195 4.255952 2.744088 0
M  V30 105 H -3.343304 4.609797 4.031722 0
M  V30 106 H -1.331874 6.306745 0.533306 0
M  V30 107 H 0.203348 5.622660 2.224092 0
M  V30 108 H -0.115371 3.883669 2.027623 0
M  V30 109 H 1.073056 4.076311 -0.282921 0
M  V30 110 H 0.745286 6.696013 0.133407 0
M  V30 111 H 2.541061 4.934886 2.239739 0
M  V30 112 H 2.041793 3.262447 1.894366 0
M  V30 113 H 3.983187 4.960674 0.184591 0
M  V30 114 H 3.141645 3.664025 -1.232939 0
M  V30 115 H 4.922924 3.967125 2.381470 0
M  V30 116 H 4.183223 2.384090 1.821001 0
M  V30 117 H 5.459239 2.542782 -0.237895 0
M  V30 118 H 7.205427 3.805684 -0.451679 0
M  V30 119 H 6.858513 2.033882 2.482483 0
M  V30 120 H 6.406565 0.933665 -0.478632 0
M  V30 121 H 7.706519 -0.506896 1.910961 0
M  V30 122 H 4.684981 -0.358724 1.429431 0
M  V30 123 H 5.513632 -1.541798 2.506975 0
M  V30 124 H 5.710759 0.189126 2.716143 0
M  V30 125 H 8.380248 -1.337306 -0.027871 0
M  V30 126 H 7.610416 -3.513452 -0.349426 0
M  V30 127 H 6.915121 -3.463641 2.598029 0
M  V30 128 H 7.889045 -4.540210 1.625415 0
M  V30 129 H 8.536830 -2.912054 1.903758 0
M  V30 130 H 4.981787 -2.409162 0.371391 0
M  V30 131 H 6.444491 -3.562959 -1.665406 0
M  V30 132 H 5.391484 -5.013454 1.205895 0
M  V30 133 H 6.809192 -5.543242 -0.709480 0
M  V30 134 H 5.449380 -5.340265 -1.817696 0
M  V30 135 H 5.308612 -6.620621 -0.615394 0
M  V30 136 H 3.467625 -5.931014 0.409589 0
M  V30 137 H 3.785332 -3.796048 1.892674 0
M  V30 138 H 3.036161 -5.068857 -1.819308 0
M  V30 139 H 0.519225 -4.250356 -0.836283 0
M  V30 140 H 1.107210 -5.994910 -0.952132 0
M  V30 141 H 1.258466 -5.070335 0.530325 0
M  V30 142 H 3.396135 -2.505268 -1.276612 0
M  V30 143 H 2.357878 -3.836507 -3.342287 0
M  V30 144 H 1.809212 -2.139737 -3.159743 0
M  V30 145 H 0.739968 -3.399093 -2.583251 0
M  V30 146 H 2.726378 -1.574738 0.746340 0
M  V30 147 H 1.736312 0.498977 0.116769 0
M  V30 148 H 0.223984 -0.248092 -0.331884 0
M  V30 149 H 1.537879 0.293755 2.401469 0
M  V30 150 H 0.199633 1.229436 1.751900 0
M  V30 151 H -1.378195 -0.603735 2.407144 0
M  V30 152 H -1.857777 -1.675529 4.271944 0
M  V30 153 H -1.376433 0.528699 5.375932 0
M  V30 154 H -0.196965 -0.410428 6.396522 0
M  V30 155 H -1.929819 -0.844923 7.755501 0
M  V30 156 H -3.147715 -0.407956 6.416990 0
M  V30 157 H -2.951440 -2.867742 7.376023 0
M  V30 158 H -5.944344 -2.594638 3.975160 0
M  V30 159 H -6.481328 -5.373916 5.091076 0
M  V30 160 H -7.636054 -4.123585 4.382440 0
M  V30 161 H -6.883916 -3.849257 6.024519 0
M  V30 162 H -3.994093 -3.911132 3.005098 0
M  V30 163 H -4.985240 -6.371421 3.033929 0
M  V30 164 H -7.879110 -3.708324 2.045521 0
M  V30 165 H -7.466768 -4.865029 0.745415 0
M  V30 166 H -7.589633 -5.445769 2.423534 0
M  V30 167 H -4.136089 -3.771948 0.884378 0
M  V30 168 H -4.177410 -4.952469 -1.305181 0
M  V30 169 H -4.844728 -4.720907 -3.688672 0
M  V30 170 H -7.388003 -2.604426 -0.013799 0
M  V30 171 H -9.626743 -1.410560 -4.146962 0
M  V30 172 H -8.435263 -2.399611 -5.971947 0
M  V30 173 H -1.555211 -4.180375 5.841673 0
M  V30 174 H -1.406037 -3.561194 8.324147 0
M  V30 175 H -0.090657 -4.471492 7.535210 0
M  V30 176 H 0.192955 -2.747664 7.840471 0
M  V30 177 H -0.573966 -1.791533 0.603313 0
M  V30 178 H -1.357045 -3.931621 1.377873 0
M  V30 179 H -1.005705 -3.588460 3.083357 0
M  V30 180 H -2.240739 -2.667173 2.177542 0
M  V30 181 H 6.429929 0.129529 -4.419105 0
M  V30 182 H 4.842508 -1.016705 -2.789092 0
M  V30 183 H 3.343869 -0.456415 -3.821773 0
M  V30 184 H 4.419722 -2.649051 -3.784706 0
M  V30 185 H 3.198489 -2.333621 -5.054190 0
M  V30 186 H 5.015169 -2.283253 -5.470031 0
M  V30 187 H 4.600943 1.132893 -5.466110 0
M  V30 188 H 4.631229 -0.383436 -7.509674 0
M  V30 189 H 2.221407 -0.788083 -5.779578 0
M  V30 190 H 2.667632 0.262551 -7.114513 0
M  V30 191 H 1.902361 2.142654 -5.874461 0
M  V30 192 H 2.849346 2.345450 -3.898447 0
M  V30 193 H 0.295353 -0.322962 -5.433898 0
M  V30 194 H -0.479968 2.230720 -4.067506 0
M  V30 195 H -2.656970 1.444302 -4.720604 0
M  V30 196 H -2.111339 -0.242427 -4.584040 0
M  V30 197 H -1.910313 1.792589 -2.371996 0
M  V30 198 H -1.473471 0.024502 -2.331061 0
M  V30 199 H -3.583198 -0.752598 -2.737006 0
M  V30 200 H -3.578054 -0.798126 -0.587205 0
M  V30 201 H -4.714469 0.552412 -0.591039 0
M  V30 202 H -2.906979 0.854210 -0.404076 0
M  V30 203 H -4.567577 1.047312 -4.121177 0
M  V30 204 H -6.115778 0.303445 -1.952817 0
M  V30 205 H -5.688356 2.070233 -1.423750 0
M  V30 206 H -6.563442 1.989696 -3.900586 0
M  V30 207 H -5.533439 4.504679 -0.984991 0
M  V30 208 H -3.604206 5.130977 -0.043115 0
M  V30 209 H -0.840649 4.516873 -1.185535 0
M  V30 210 H -1.573986 3.323788 -0.083155 0
M  V30 211 H -3.406981 6.783179 -1.541793 0
M  V30 212 H -1.874708 6.089784 -2.099664 0
M  V30 213 H -4.550197 5.971277 -3.335937 0
M  V30 214 H -2.432169 5.376412 -4.895071 0
M  V30 215 H -2.749394 3.603762 -3.697334 0
M  V30 216 H -4.261608 3.134878 -5.236519 0
M  V30 END ATOM
M  V30 BEGIN BOND
M  V30 1 1 1 2
M  V30 2 2 2 3
M  V30 3 1 2 4
M  V30 4 1 4 5
M  V30 5 1 5 6
M  V30 6 1 6 7
M  V30 7 1 7 8
M  V30 8 1 7 9
M  V30 9 1 9 10
M  V30 10 1 10 11
M  V30 11 1 10 12
M  V30 12 1 12 13
M  V30 13 1 13 14
M  V30 14 1 13 15
M  V30 15 1 15 16
M  V30 16 1 16 17
M  V30 17 1 17 18
M  V30 18 1 18 19
M  V30 19 1 18 20
M  V30 20 1 20 21
M  V30 21 1 21 22
M  V30 22 1 21 23
M  V30 23 1 23 24
M  V30 24 1 23 25
M  V30 25 1 25 26
M  V30 26 1 25 27
M  V30 27 1 27 28
M  V30 28 1 27 29
M  V30 29 1 29 30
M  V30 30 1 29 31
M  V30 31 1 31 32
M  V30 32 1 31 33
M  V30 33 1 33 34
M  V30 34 1 34 35
M  V30 35 1 35 36
M  V30 36 1 36 37
M  V30 37 1 37 38
M  V30 38 1 38 39
M  V30 39 1 39 40
M  V30 40 1 40 41
M  V30 41 1 41 42
M  V30 42 1 42 43
M  V30 43 1 43 44
M  V30 44 2 44 45
M  V30 45 1 44 46
M  V30 46 1 46 47
M  V30 47 1 46 48
M  V30 48 1 48 49
M  V30 49 1 48 50
M  V30 50 1 50 51
M  V30 51 2 50 52
M  V30 52 1 52 53
M  V30 53 2 53 54
M  V30 54 1 54 55
M  V30 55 2 55 56
M  V30 56 1 56 57
M  V30 57 2 57 58
M  V30 58 1 57 59
M  V30 59 2 59 60
M  V30 60 1 59 61
M  V30 61 2 61 62
M  V30 62 1 62 63
M  V30 63 2 63 64
M  V30 64 1 42 65
M  V30 65 1 65 66
M  V30 66 1 65 67
M  V30 67 1 37 68
M  V30 68 1 68 69
M  V30 69 1 68 70
M  V30 70 1 20 71
M  V30 71 1 71 72
M  V30 72 2 72 73
M  V30 73 1 72 74
M  V30 74 2 74 75
M  V30 75 1 75 76
M  V30 76 1 76 77
M  V30 77 1 76 78
M  V30 78 1 78 79
M  V30 79 1 78 80
M  V30 80 1 80 81
M  V30 81 1 81 82
M  V30 82 1 81 83
M  V30 83 2 83 84
M  V30 84 1 84 85
M  V30 85 1 85 86
M  V30 86 1 86 87
M  V30 87 1 87 88
M  V30 88 1 87 89
M  V30 89 1 89 90
M  V30 90 1 89 91
M  V30 91 1 91 92
M  V30 92 1 91 93
M  V30 93 1 93 94 CFG=1
M  V30 94 1 93 95
M  V30 95 1 95 96
M  V30 96 1 96 97
M  V30 97 1 96 98
M  V30 98 1 98 99
M  V30 99 1 99 100
M  V30 100 1 99 101
M  V30 101 1 101 102
M  V30 102 1 97 5
M  V30 103 1 17 15
M  V30 104 1 70 34
M  V30 105 1 101 93
M  V30 106 1 67 39
M  V30 107 1 58 53
M  V30 108 1 63 56
M  V30 109 1 1 103
M  V30 110 1 1 104
M  V30 111 1 1 105
M  V30 112 1 5 106 CFG=3
M  V30 113 1 6 107
M  V30 114 1 6 108
M  V30 115 1 7 109 CFG=3
M  V30 116 1 8 110
M  V30 117 1 9 111
M  V30 118 1 9 112
M  V30 119 1 10 113 CFG=3
M  V30 120 1 11 114
M  V30 121 1 12 115
M  V30 122 1 12 116
M  V30 123 1 13 117 CFG=3
M  V30 124 1 14 118
M  V30 125 1 15 119 CFG=1
M  V30 126 1 17 120 CFG=3
M  V30 127 1 18 121 CFG=1
M  V30 128 1 19 122
M  V30 129 1 19 123
M  V30 130 1 19 124
M  V30 131 1 20 125 CFG=3
M  V30 132 1 21 126 CFG=3
M  V30 133 1 22 127
M  V30 134 1 22 128
M  V30 135 1 22 129
M  V30 136 1 23 130 CFG=1
M  V30 137 1 24 131
M  V30 138 1 25 132 CFG=1
M  V30 139 1 26 133
M  V30 140 1 26 134
M  V30 141 1 26 135
M  V30 142 1 27 136 CFG=1
M  V30 143 1 28 137
M  V30 144 1 29 138 CFG=3
M  V30 145 1 30 139
M  V30 146 1 30 140
M  V30 147 1 30 141
M  V30 148 1 31 142 CFG=3
M  V30 149 1 32 143
M  V30 150 1 32 144
M  V30 151 1 32 145
M  V30 152 1 34 146 CFG=1
M  V30 153 1 35 147
M  V30 154 1 35 148
M  V30 155 1 36 149
M  V30 156 1 36 150
M  V30 157 1 37 151 CFG=1
M  V30 158 1 39 152 CFG=3
M  V30 159 1 40 153
M  V30 160 1 40 154
M  V30 161 1 41 155
M  V30 162 1 41 156
M  V30 163 1 42 157 CFG=1
M  V30 164 1 46 158 CFG=3
M  V30 165 1 47 159
M  V30 166 1 47 160
M  V30 167 1 47 161
M  V30 168 1 48 162 CFG=3
M  V30 169 1 49 163
M  V30 170 1 51 164
M  V30 171 1 51 165
M  V30 172 1 51 166
M  V30 173 1 52 167
M  V30 174 1 54 168
M  V30 175 1 55 169
M  V30 176 1 58 170
M  V30 177 1 61 171
M  V30 178 1 62 172
M  V30 179 1 65 173 CFG=3
M  V30 180 1 66 174
M  V30 181 1 66 175
M  V30 182 1 66 176
M  V30 183 1 68 177 CFG=3
M  V30 184 1 69 178
M  V30 185 1 69 179
M  V30 186 1 69 180
M  V30 187 1 74 181
M  V30 188 1 75 182
M  V30 189 1 76 183 CFG=1
M  V30 190 1 77 184
M  V30 191 1 77 185
M  V30 192 1 77 186
M  V30 193 1 78 187 CFG=1
M  V30 194 1 79 188
M  V30 195 1 80 189
M  V30 196 1 80 190
M  V30 197 1 81 191 CFG=3
M  V30 198 1 82 192
M  V30 199 1 83 193
M  V30 200 1 84 194
M  V30 201 1 85 195
M  V30 202 1 85 196
M  V30 203 1 86 197
M  V30 204 1 86 198
M  V30 205 1 87 199 CFG=3
M  V30 206 1 88 200
M  V30 207 1 88 201
M  V30 208 1 88 202
M  V30 209 1 89 203 CFG=3
M  V30 210 1 90 204
M  V30 211 1 91 205 CFG=1
M  V30 212 1 92 206
M  V30 213 1 94 207
M  V30 214 1 96 208 CFG=1
M  V30 215 1 97 209
M  V30 216 1 97 210
M  V30 217 1 98 211
M  V30 218 1 98 212
M  V30 219 1 99 213 CFG=1
M  V30 220 1 100 214
M  V30 221 1 101 215 CFG=3
M  V30 222 1 102 216
M  V30 END BOND
M  V30 END CTAB
M  END
>  <Dataset>  (381) 
ChEMBL_Kinases

>  <Ligand_Instance>  (381) 
nan

>  <PDB_ID>  (381) 
nan

>  <Standardized_SMILES>  (381) 
CC(=O)O[C@H]1C[C@@H](O)C[C@H](O)C[C@@H](O)[C@@H]2O[C@H]2[C@@H](C)[C@@H]([C@@H](C)[C@@H](O)[C@H](C)[C@@H](O)[C@@H](C)[C@@H](C)O[C@H]2CC[C@H](O[C@@H]3CC[C@@H](OC(=O)[C@H](C)[C@@H](O)/C(C)=C/c4ccc5c(c4)C(=O)C=CC5=O)[C@H](C)O3)[C@H](C)O2)OC(=O)/C=C/[C@H](C)[C@@H](O)C[C@H](O)/C=C/CC[C@@H](C)[C@@H](O)[C@H](O)[C@@]2(O)O[C@@H](C1)C[C@@H](O)[C@@H]2O

>  <Name>  (381) 
LANGKOLIDE

>  <Pocket>  (381) 
nan

>  <ATP_Site>  (381) 
nan

>  <Peripheral>  (381) 
nan

>  <Num_H_Atoms_ProtBoundConf>  (381) 
nan

>  <Num_Resolved_Atoms>  (381) 
nan

>  <Num_Not_Resolved_Atoms>  (381) 
nan

$$$$
CHEMBL2062937
     RDKit          3D

  0  0  0  0  0  0  0  0  0  0999 V3000
M  V30 BEGIN CTAB
M  V30 COUNTS 49 52 0 0 0
M  V30 BEGIN ATOM
M  V30 1 C 4.135634 -2.678502 2.023841 0
M  V30 2 N 3.000979 -3.382642 2.432029 0
M  V30 3 C 3.184222 -4.637324 3.066929 0
M  V30 4 C 1.774125 -2.745734 2.561340 0 CFG=1
M  V30 5 C 1.829485 -1.625199 3.576642 0
M  V30 6 C 1.973256 -0.276814 2.941370 0
M  V30 7 C 0.877389 0.055590 1.953074 0 CFG=2
M  V30 8 N 0.032129 1.090127 2.494643 0
M  V30 9 C -1.092133 1.668305 1.800905 0
M  V30 10 N -1.850714 2.637667 2.388525 0
M  V30 11 C -2.893739 3.182071 1.749378 0
M  V30 12 Cl -3.833319 4.417239 2.541174 0
M  V30 13 C -3.137106 2.708639 0.498194 0
M  V30 14 C -2.408262 1.732530 -0.148778 0
M  V30 15 C -2.805358 1.344920 -1.496650 0
M  V30 16 C -3.871800 1.838128 -2.219626 0
M  V30 17 N -3.910953 1.237669 -3.419639 0
M  V30 18 C -2.907865 0.347301 -3.548715 0
M  V30 19 N -2.547995 -0.474341 -4.549654 0
M  V30 20 C -1.474670 -1.295086 -4.439894 0
M  V30 21 C -0.757263 -1.254713 -3.248069 0
M  V30 22 C -1.136778 -0.398935 -2.212878 0
M  V30 23 C -2.233551 0.426284 -2.350182 0
M  V30 24 N -1.372345 1.221634 0.540871 0
M  V30 25 C 0.076174 -1.231786 1.717925 0
M  V30 26 C 1.106073 -2.259713 1.297050 0
M  V30 27 H 4.108966 -2.136948 1.071762 0
M  V30 28 H 4.485171 -2.005348 2.857887 0
M  V30 29 H 4.983404 -3.420828 1.930361 0
M  V30 30 H 2.616025 -4.610868 4.040980 0
M  V30 31 H 2.684936 -5.431310 2.455824 0
M  V30 32 H 4.222227 -4.849650 3.330066 0
M  V30 33 H 1.044978 -3.489478 3.002274 0
M  V30 34 H 0.966786 -1.641584 4.289677 0
M  V30 35 H 2.732340 -1.759652 4.225535 0
M  V30 36 H 2.956437 -0.197382 2.477316 0
M  V30 37 H 1.982168 0.468934 3.785234 0
M  V30 38 H 1.345350 0.434723 1.028533 0
M  V30 39 H 0.226916 1.466490 3.459101 0
M  V30 40 H -3.991861 3.149259 -0.034760 0
M  V30 41 H -4.591329 2.585780 -1.920503 0
M  V30 42 H -4.606799 1.404154 -4.186851 0
M  V30 43 H -1.167107 -1.970158 -5.243717 0
M  V30 44 H 0.118676 -1.887024 -3.087383 0
M  V30 45 H -0.566973 -0.388592 -1.311135 0
M  V30 46 H -0.720930 -1.095058 0.965581 0
M  V30 47 H -0.330905 -1.515949 2.709125 0
M  V30 48 H 0.546961 -3.110333 0.838838 0
M  V30 49 H 1.791849 -1.753944 0.612049 0
M  V30 END ATOM
M  V30 BEGIN BOND
M  V30 1 1 1 2
M  V30 2 1 2 3
M  V30 3 1 2 4
M  V30 4 1 4 5
M  V30 5 1 5 6
M  V30 6 1 6 7
M  V30 7 1 7 8
M  V30 8 1 8 9
M  V30 9 2 9 10
M  V30 10 1 10 11
M  V30 11 1 11 12
M  V30 12 2 11 13
M  V30 13 1 13 14
M  V30 14 1 14 15
M  V30 15 2 15 16
M  V30 16 1 16 17
M  V30 17 1 17 18
M  V30 18 2 18 19
M  V30 19 1 19 20
M  V30 20 2 20 21
M  V30 21 1 21 22
M  V30 22 2 22 23
M  V30 23 2 14 24
M  V30 24 1 7 25
M  V30 25 1 25 26
M  V30 26 1 26 4
M  V30 27 1 24 9
M  V30 28 1 23 15
M  V30 29 1 23 18
M  V30 30 1 1 27
M  V30 31 1 1 28
M  V30 32 1 1 29
M  V30 33 1 3 30
M  V30 34 1 3 31
M  V30 35 1 3 32
M  V30 36 1 4 33 CFG=1
M  V30 37 1 5 34
M  V30 38 1 5 35
M  V30 39 1 6 36
M  V30 40 1 6 37
M  V30 41 1 7 38 CFG=3
M  V30 42 1 8 39
M  V30 43 1 13 40
M  V30 44 1 16 41
M  V30 45 1 17 42
M  V30 46 1 20 43
M  V30 47 1 21 44
M  V30 48 1 22 45
M  V30 49 1 25 46
M  V30 50 1 25 47
M  V30 51 1 26 48
M  V30 52 1 26 49
M  V30 END BOND
M  V30 END CTAB
M  END
>  <Dataset>  (382) 
ChEMBL_Kinases

>  <Ligand_Instance>  (382) 
nan

>  <PDB_ID>  (382) 
nan

>  <Standardized_SMILES>  (382) 
CN(C)[C@H]1CC[C@H](Nc2nc(Cl)cc(-c3c[nH]c4ncccc34)n2)CC1

>  <Name>  (382) 
nan

>  <Pocket>  (382) 
nan

>  <ATP_Site>  (382) 
nan

>  <Peripheral>  (382) 
nan

>  <Num_H_Atoms_ProtBoundConf>  (382) 
nan

>  <Num_Resolved_Atoms>  (382) 
nan

>  <Num_Not_Resolved_Atoms>  (382) 
nan

$$$$
CHEMBL2062727
     RDKit          3D

  0  0  0  0  0  0  0  0  0  0999 V3000
M  V30 BEGIN CTAB
M  V30 COUNTS 25 27 0 0 0
M  V30 BEGIN ATOM
M  V30 1 O 0.874009 -4.919034 -0.949808 0
M  V30 2 C 1.483925 -4.146952 -0.127772 0
M  V30 3 N 2.535234 -4.623716 0.697054 0
M  V30 4 C 3.141115 -3.654199 1.578486 0
M  V30 5 S 3.898105 -3.813021 3.014652 0
M  V30 6 S 2.807717 -2.134636 0.628841 0
M  V30 7 C 1.176568 -2.707338 0.057364 0
M  V30 8 C 0.014725 -2.102866 -0.142465 0
M  V30 9 C 0.033258 -0.670099 0.129459 0
M  V30 10 C 1.083333 0.157504 -0.247754 0
M  V30 11 N 1.039550 1.467984 0.056220 0
M  V30 12 C -0.000363 2.015813 0.722220 0
M  V30 13 C -0.049661 3.354412 1.036518 0
M  V30 14 C -1.145552 3.838960 1.720846 0
M  V30 15 C -2.205905 3.032203 2.108120 0
M  V30 16 C -2.177357 1.699828 1.805611 0
M  V30 17 C -1.071215 1.199927 1.112668 0
M  V30 18 N -1.002353 -0.087993 0.800272 0
M  V30 19 H 2.895766 -5.628258 0.706469 0
M  V30 20 H -0.797517 -2.722229 -0.476727 0
M  V30 21 H 1.941192 -0.259579 -0.798027 0
M  V30 22 H 0.795873 3.943358 0.717974 0
M  V30 23 H -1.138018 4.902744 1.947268 0
M  V30 24 H -3.061876 3.446405 2.650019 0
M  V30 25 H -2.985105 1.006148 2.082453 0
M  V30 END ATOM
M  V30 BEGIN BOND
M  V30 1 2 1 2
M  V30 2 1 2 3
M  V30 3 1 3 4
M  V30 4 2 4 5
M  V30 5 1 4 6
M  V30 6 1 6 7
M  V30 7 2 7 8
M  V30 8 1 8 9
M  V30 9 2 9 10
M  V30 10 1 10 11
M  V30 11 2 11 12
M  V30 12 1 12 13
M  V30 13 2 13 14
M  V30 14 1 14 15
M  V30 15 2 15 16
M  V30 16 1 16 17
M  V30 17 2 17 18
M  V30 18 1 7 2
M  V30 19 1 18 9
M  V30 20 1 17 12
M  V30 21 1 3 19
M  V30 22 1 8 20
M  V30 23 1 10 21
M  V30 24 1 13 22
M  V30 25 1 14 23
M  V30 26 1 15 24
M  V30 27 1 16 25
M  V30 END BOND
M  V30 END CTAB
M  END
>  <Dataset>  (383) 
ChEMBL_Kinases

>  <Ligand_Instance>  (383) 
nan

>  <PDB_ID>  (383) 
nan

>  <Standardized_SMILES>  (383) 
O=C1NC(=S)S/C1=C\c1cnc2ccccc2n1

>  <Name>  (383) 
nan

>  <Pocket>  (383) 
nan

>  <ATP_Site>  (383) 
nan

>  <Peripheral>  (383) 
nan

>  <Num_H_Atoms_ProtBoundConf>  (383) 
nan

>  <Num_Resolved_Atoms>  (383) 
nan

>  <Num_Not_Resolved_Atoms>  (383) 
nan

$$$$
CHEMBL206266
     RDKit          3D

  0  0  0  0  0  0  0  0  0  0999 V3000
M  V30 BEGIN CTAB
M  V30 COUNTS 67 71 0 0 0
M  V30 BEGIN ATOM
M  V30 1 C -0.476511 -4.954657 3.222388 0
M  V30 2 O 0.165804 -5.130240 1.994543 0
M  V30 3 C 0.649502 -4.080114 1.209474 0
M  V30 4 C 0.471563 -2.806736 1.695587 0
M  V30 5 C 0.939161 -1.757595 0.938781 0
M  V30 6 C 0.826483 -0.436275 1.313685 0
M  V30 7 N 0.218541 -0.103767 2.544687 0
M  V30 8 C 0.086589 1.273333 2.969044 0
M  V30 9 N 1.191844 1.831357 3.490988 0
M  V30 10 C 1.117881 3.130426 3.902346 0
M  V30 11 C -0.032129 3.847111 3.792976 0
M  V30 12 N -0.213578 5.219882 4.192056 0
M  V30 13 C 0.074381 6.030340 3.056989 0
M  V30 14 O 0.396384 5.303835 2.059349 0
M  V30 15 C 0.007717 7.492808 3.043046 0
M  V30 16 C -0.285484 8.326004 4.082901 0
M  V30 17 C -0.306502 9.687587 3.878209 0
M  V30 18 C -0.049321 10.308572 2.675780 0
M  V30 19 C 0.249834 9.441307 1.619251 0
M  V30 20 C 0.275050 8.068246 1.809146 0
M  V30 21 C -1.142299 3.200189 3.240396 0
M  V30 22 N -1.081740 1.924693 2.832410 0
M  V30 23 N 1.295582 0.550508 0.549043 0
M  V30 24 C 1.903232 0.322184 -0.624580 0
M  V30 25 N 2.031037 -0.972089 -1.022967 0
M  V30 26 C 1.565076 -1.967425 -0.265828 0
M  V30 27 C 1.713537 -3.265440 -0.698462 0
M  V30 28 C 1.275293 -4.383639 -0.004500 0
M  V30 29 O 1.367206 -5.688435 -0.328475 0
M  V30 30 C 1.889337 -6.351059 -1.409314 0
M  V30 31 C 1.289230 -6.146893 -2.752915 0
M  V30 32 C -0.101855 -6.559914 -2.958215 0
M  V30 33 N -1.162733 -5.982782 -2.228216 0
M  V30 34 C -2.428603 -6.672084 -2.512540 0
M  V30 35 C -3.172994 -6.099858 -3.651928 0
M  V30 36 O -2.476638 -5.283153 -4.503132 0
M  V30 37 C -1.553609 -4.435026 -3.988647 0
M  V30 38 C -1.382260 -4.576055 -2.515503 0
M  V30 39 H -1.081766 -5.871026 3.437744 0
M  V30 40 H -1.197467 -4.120639 3.254948 0
M  V30 41 H 0.288988 -4.902551 4.041882 0
M  V30 42 H -0.010841 -2.590584 2.630049 0
M  V30 43 H -0.200824 -0.680099 3.294149 0
M  V30 44 H 1.973786 3.640609 4.332432 0
M  V30 45 H -0.497701 5.708363 5.092156 0
M  V30 46 H -0.487287 7.838194 5.025210 0
M  V30 47 H -0.540493 10.328338 4.715608 0
M  V30 48 H -0.073451 11.380115 2.544741 0
M  V30 49 H 0.453947 9.926537 0.664527 0
M  V30 50 H 0.521458 7.541695 0.895939 0
M  V30 51 H -2.100610 3.688928 3.113441 0
M  V30 52 H 2.245414 1.189130 -1.164889 0
M  V30 53 H 2.202358 -3.456098 -1.630228 0
M  V30 54 H 2.018873 -7.465971 -1.194831 0
M  V30 55 H 2.983794 -6.029297 -1.472621 0
M  V30 56 H 1.917842 -6.781691 -3.460950 0
M  V30 57 H 1.466876 -5.120795 -3.135200 0
M  V30 58 H -0.338840 -6.437363 -4.062378 0
M  V30 59 H -0.165393 -7.686176 -2.830980 0
M  V30 60 H -2.168121 -7.741030 -2.630094 0
M  V30 61 H -3.025239 -6.585176 -1.587183 0
M  V30 62 H -4.056310 -5.508411 -3.320027 0
M  V30 63 H -3.584846 -6.931548 -4.264910 0
M  V30 64 H -0.630168 -4.475905 -4.584374 0
M  V30 65 H -1.942254 -3.386373 -4.154141 0
M  V30 66 H -0.697211 -3.919894 -2.025094 0
M  V30 67 H -2.397758 -4.356643 -2.068005 0
M  V30 END ATOM
M  V30 BEGIN BOND
M  V30 1 1 1 2
M  V30 2 1 2 3
M  V30 3 2 3 4
M  V30 4 1 4 5
M  V30 5 2 5 6
M  V30 6 1 6 7
M  V30 7 1 7 8
M  V30 8 2 8 9
M  V30 9 1 9 10
M  V30 10 2 10 11
M  V30 11 1 11 12
M  V30 12 1 12 13
M  V30 13 2 13 14
M  V30 14 1 13 15
M  V30 15 2 15 16
M  V30 16 1 16 17
M  V30 17 2 17 18
M  V30 18 1 18 19
M  V30 19 2 19 20
M  V30 20 1 11 21
M  V30 21 2 21 22
M  V30 22 1 6 23
M  V30 23 2 23 24
M  V30 24 1 24 25
M  V30 25 2 25 26
M  V30 26 1 26 27
M  V30 27 2 27 28
M  V30 28 1 28 29
M  V30 29 1 29 30
M  V30 30 1 30 31
M  V30 31 1 31 32
M  V30 32 1 32 33
M  V30 33 1 33 34
M  V30 34 1 34 35
M  V30 35 1 35 36
M  V30 36 1 36 37
M  V30 37 1 37 38
M  V30 38 1 28 3
M  V30 39 1 38 33
M  V30 40 1 26 5
M  V30 41 1 22 8
M  V30 42 1 20 15
M  V30 43 1 1 39
M  V30 44 1 1 40
M  V30 45 1 1 41
M  V30 46 1 4 42
M  V30 47 1 7 43
M  V30 48 1 10 44
M  V30 49 1 12 45
M  V30 50 1 16 46
M  V30 51 1 17 47
M  V30 52 1 18 48
M  V30 53 1 19 49
M  V30 54 1 20 50
M  V30 55 1 21 51
M  V30 56 1 24 52
M  V30 57 1 27 53
M  V30 58 1 30 54
M  V30 59 1 30 55
M  V30 60 1 31 56
M  V30 61 1 31 57
M  V30 62 1 32 58
M  V30 63 1 32 59
M  V30 64 1 34 60
M  V30 65 1 34 61
M  V30 66 1 35 62
M  V30 67 1 35 63
M  V30 68 1 37 64
M  V30 69 1 37 65
M  V30 70 1 38 66
M  V30 71 1 38 67
M  V30 END BOND
M  V30 END CTAB
M  END
>  <Dataset>  (384) 
ChEMBL_Kinases

>  <Ligand_Instance>  (384) 
nan

>  <PDB_ID>  (384) 
nan

>  <Standardized_SMILES>  (384) 
COc1cc2c(Nc3ncc(NC(=O)c4ccccc4)cn3)ncnc2cc1OCCCN1CCOCC1

>  <Name>  (384) 
nan

>  <Pocket>  (384) 
nan

>  <ATP_Site>  (384) 
nan

>  <Peripheral>  (384) 
nan

>  <Num_H_Atoms_ProtBoundConf>  (384) 
nan

>  <Num_Resolved_Atoms>  (384) 
nan

>  <Num_Not_Resolved_Atoms>  (384) 
nan

$$$$
CHEMBL2062583
     RDKit          3D

  0  0  0  0  0  0  0  0  0  0999 V3000
M  V30 BEGIN CTAB
M  V30 COUNTS 55 59 0 0 0
M  V30 BEGIN ATOM
M  V30 1 C 4.634632 -2.759766 4.025554 0
M  V30 2 C 3.579426 -2.886172 2.965461 0
M  V30 3 O 2.685087 -3.762553 3.134347 0
M  V30 4 N 3.668770 -1.996009 1.834913 0
M  V30 5 C 2.782277 -1.938611 0.717297 0
M  V30 6 C 3.124883 -2.750627 -0.341794 0
M  V30 7 C 2.289760 -2.723010 -1.444268 0
M  V30 8 C 1.170483 -1.923024 -1.482000 0
M  V30 9 C 0.836866 -1.119649 -0.427641 0
M  V30 10 C 1.666932 -1.152129 0.659565 0
M  V30 11 C -0.307713 -0.396482 -0.636316 0
M  V30 12 C -1.096639 0.562459 0.103086 0
M  V30 13 C -0.870777 1.156946 1.292079 0
M  V30 14 C -1.700037 2.072612 1.896324 0
M  V30 15 N -1.360290 2.635626 3.154918 0
M  V30 16 C -0.147697 2.288280 3.867200 0
M  V30 17 C 0.109791 0.866534 4.290126 0
M  V30 18 C -0.249727 1.909911 5.311900 0
M  V30 19 N -2.838658 2.430583 1.282787 0
M  V30 20 N -3.826448 3.237771 1.547558 0
M  V30 21 C -4.755679 3.226367 0.559643 0
M  V30 22 C -4.275921 2.329850 -0.378601 0
M  V30 23 C -4.906668 1.959684 -1.630842 0
M  V30 24 N -5.432299 1.654149 -2.631758 0
M  V30 25 C -3.058924 1.837458 0.101028 0
M  V30 26 N -2.246573 0.958664 -0.461425 0
M  V30 27 C -0.663145 -0.814853 -1.908952 0
M  V30 28 N 0.213999 -1.709660 -2.390066 0
M  V30 29 C 0.216469 -2.377256 -3.674812 0
M  V30 30 C -0.495473 -3.707534 -3.636445 0
M  V30 31 C -1.934296 -3.636752 -3.236390 0
M  V30 32 O -2.143551 -3.120817 -1.963649 0
M  V30 33 H 4.141530 -2.965047 4.986845 0
M  V30 34 H 5.418317 -3.531270 3.871877 0
M  V30 35 H 5.134004 -1.771021 3.991748 0
M  V30 36 H 4.447677 -1.305239 1.788423 0
M  V30 37 H 3.994765 -3.399683 -0.364302 0
M  V30 38 H 2.514880 -3.348753 -2.313917 0
M  V30 39 H 1.480509 -0.566474 1.522025 0
M  V30 40 H 0.007178 0.934112 1.832211 0
M  V30 41 H -1.992029 3.318366 3.588438 0
M  V30 42 H 0.778803 2.877324 3.636211 0
M  V30 43 H -0.665328 0.105410 4.092721 0
M  V30 44 H 1.177293 0.498863 4.266078 0
M  V30 45 H -1.242607 1.816707 5.803015 0
M  V30 46 H 0.558756 2.174707 6.012480 0
M  V30 47 H -5.691140 3.790000 0.488115 0
M  V30 48 H -1.508396 -0.535513 -2.550469 0
M  V30 49 H 1.265014 -2.575447 -3.992604 0
M  V30 50 H -0.228864 -1.709766 -4.466065 0
M  V30 51 H 0.014596 -4.324676 -2.835444 0
M  V30 52 H -0.331203 -4.294197 -4.559616 0
M  V30 53 H -2.393732 -4.637500 -3.342040 0
M  V30 54 H -2.485297 -2.954543 -3.927392 0
M  V30 55 H -3.118505 -2.889286 -1.919919 0
M  V30 END ATOM
M  V30 BEGIN BOND
M  V30 1 1 1 2
M  V30 2 2 2 3
M  V30 3 1 2 4
M  V30 4 1 4 5
M  V30 5 2 5 6
M  V30 6 1 6 7
M  V30 7 2 7 8
M  V30 8 1 8 9
M  V30 9 2 9 10
M  V30 10 1 9 11
M  V30 11 1 11 12
M  V30 12 1 12 13
M  V30 13 2 13 14
M  V30 14 1 14 15
M  V30 15 1 15 16
M  V30 16 1 16 17
M  V30 17 1 17 18
M  V30 18 1 14 19
M  V30 19 1 19 20
M  V30 20 2 20 21
M  V30 21 1 21 22
M  V30 22 1 22 23
M  V30 23 3 23 24
M  V30 24 2 22 25
M  V30 25 1 25 26
M  V30 26 2 11 27
M  V30 27 1 27 28
M  V30 28 1 28 29
M  V30 29 1 29 30
M  V30 30 1 30 31
M  V30 31 1 31 32
M  V30 32 1 10 5
M  V30 33 2 26 12
M  V30 34 1 28 8
M  V30 35 1 18 16
M  V30 36 1 25 19
M  V30 37 1 1 33
M  V30 38 1 1 34
M  V30 39 1 1 35
M  V30 40 1 4 36
M  V30 41 1 6 37
M  V30 42 1 7 38
M  V30 43 1 10 39
M  V30 44 1 13 40
M  V30 45 1 15 41
M  V30 46 1 16 42
M  V30 47 1 17 43
M  V30 48 1 17 44
M  V30 49 1 18 45
M  V30 50 1 18 46
M  V30 51 1 21 47
M  V30 52 1 27 48
M  V30 53 1 29 49
M  V30 54 1 29 50
M  V30 55 1 30 51
M  V30 56 1 30 52
M  V30 57 1 31 53
M  V30 58 1 31 54
M  V30 59 1 32 55
M  V30 END BOND
M  V30 END CTAB
M  END
>  <Dataset>  (385) 
ChEMBL_Kinases

>  <Ligand_Instance>  (385) 
nan

>  <PDB_ID>  (385) 
nan

>  <Standardized_SMILES>  (385) 
CC(=O)Nc1ccc2c(c1)c(-c1cc(NC3CC3)n3ncc(C#N)c3n1)cn2CCCO

>  <Name>  (385) 
nan

>  <Pocket>  (385) 
nan

>  <ATP_Site>  (385) 
nan

>  <Peripheral>  (385) 
nan

>  <Num_H_Atoms_ProtBoundConf>  (385) 
nan

>  <Num_Resolved_Atoms>  (385) 
nan

>  <Num_Not_Resolved_Atoms>  (385) 
nan

$$$$
CHEMBL2062582
     RDKit          3D

  0  0  0  0  0  0  0  0  0  0999 V3000
M  V30 BEGIN CTAB
M  V30 COUNTS 52 56 0 0 0
M  V30 BEGIN ATOM
M  V30 1 C 4.520092 -1.701087 4.486575 0
M  V30 2 C 3.389797 -2.282277 3.688216 0
M  V30 3 O 2.546955 -3.040890 4.250453 0
M  V30 4 N 3.363702 -1.917154 2.322495 0
M  V30 5 C 2.466398 -2.256159 1.253151 0
M  V30 6 C 2.777461 -3.373470 0.524266 0
M  V30 7 C 1.916053 -3.690201 -0.494681 0
M  V30 8 C 0.801284 -2.926270 -0.767832 0
M  V30 9 C 0.497576 -1.811869 -0.034735 0
M  V30 10 C 1.357357 -1.495141 0.982286 0
M  V30 11 C -0.641170 -1.166703 -0.439705 0
M  V30 12 C -1.379491 0.003336 -0.041767 0
M  V30 13 C -1.238849 0.860855 0.981755 0
M  V30 14 C -1.992779 1.962377 1.309051 0
M  V30 15 N -1.724858 2.800715 2.412682 0
M  V30 16 C -0.843180 3.056243 3.497179 0
M  V30 17 C -0.507371 1.995369 4.484956 0
M  V30 18 C 0.538747 2.558204 3.583331 0
M  V30 19 N -3.036505 2.212119 0.463413 0
M  V30 20 N -3.963684 3.154764 0.446646 0
M  V30 21 C -4.782817 2.977093 -0.598277 0
M  V30 22 C -4.321268 1.858409 -1.251994 0
M  V30 23 C -4.862249 1.264022 -2.428502 0
M  V30 24 N -5.310307 0.789275 -3.398755 0
M  V30 25 C -3.222613 1.387563 -0.573431 0
M  V30 26 N -2.432046 0.341122 -0.807071 0
M  V30 27 C -1.043371 -1.975944 -1.509771 0
M  V30 28 N -0.191172 -2.982020 -1.673480 0
M  V30 29 C -0.282071 -4.030411 -2.688723 0
M  V30 30 C 0.408131 -3.725850 -3.961184 0
M  V30 31 O 0.225356 -4.830220 -4.825292 0
M  V30 32 H 4.203419 -1.664169 5.550747 0
M  V30 33 H 5.426005 -2.317416 4.348258 0
M  V30 34 H 4.690977 -0.629332 4.190413 0
M  V30 35 H 4.082141 -1.285279 1.895790 0
M  V30 36 H 3.646634 -4.000623 0.709305 0
M  V30 37 H 2.100582 -4.559865 -1.111427 0
M  V30 38 H 1.220345 -0.656353 1.603620 0
M  V30 39 H -0.450951 0.674870 1.661740 0
M  V30 40 H -2.472973 3.540293 2.484930 0
M  V30 41 H -1.001486 4.066091 4.024117 0
M  V30 42 H -0.393278 2.235171 5.548222 0
M  V30 43 H -0.831111 0.934544 4.310220 0
M  V30 44 H 1.022899 1.869758 2.885347 0
M  V30 45 H 1.302006 3.269428 4.052994 0
M  V30 46 H -5.635325 3.579897 -0.882750 0
M  V30 47 H -1.915647 -1.884080 -2.179815 0
M  V30 48 H 0.124821 -4.952147 -2.233232 0
M  V30 49 H -1.372602 -4.269466 -2.860181 0
M  V30 50 H 1.488939 -3.635609 -3.803491 0
M  V30 51 H 0.066935 -2.849922 -4.498327 0
M  V30 52 H 1.028906 -5.378132 -4.904049 0
M  V30 END ATOM
M  V30 BEGIN BOND
M  V30 1 1 1 2
M  V30 2 2 2 3
M  V30 3 1 2 4
M  V30 4 1 4 5
M  V30 5 2 5 6
M  V30 6 1 6 7
M  V30 7 2 7 8
M  V30 8 1 8 9
M  V30 9 2 9 10
M  V30 10 1 9 11
M  V30 11 1 11 12
M  V30 12 1 12 13
M  V30 13 2 13 14
M  V30 14 1 14 15
M  V30 15 1 15 16
M  V30 16 1 16 17
M  V30 17 1 17 18
M  V30 18 1 14 19
M  V30 19 1 19 20
M  V30 20 2 20 21
M  V30 21 1 21 22
M  V30 22 1 22 23
M  V30 23 3 23 24
M  V30 24 2 22 25
M  V30 25 1 25 26
M  V30 26 2 11 27
M  V30 27 1 27 28
M  V30 28 1 28 29
M  V30 29 1 29 30
M  V30 30 1 30 31
M  V30 31 1 10 5
M  V30 32 2 26 12
M  V30 33 1 28 8
M  V30 34 1 18 16
M  V30 35 1 25 19
M  V30 36 1 1 32
M  V30 37 1 1 33
M  V30 38 1 1 34
M  V30 39 1 4 35
M  V30 40 1 6 36
M  V30 41 1 7 37
M  V30 42 1 10 38
M  V30 43 1 13 39
M  V30 44 1 15 40
M  V30 45 1 16 41
M  V30 46 1 17 42
M  V30 47 1 17 43
M  V30 48 1 18 44
M  V30 49 1 18 45
M  V30 50 1 21 46
M  V30 51 1 27 47
M  V30 52 1 29 48
M  V30 53 1 29 49
M  V30 54 1 30 50
M  V30 55 1 30 51
M  V30 56 1 31 52
M  V30 END BOND
M  V30 END CTAB
M  END
>  <Dataset>  (386) 
ChEMBL_Kinases

>  <Ligand_Instance>  (386) 
nan

>  <PDB_ID>  (386) 
nan

>  <Standardized_SMILES>  (386) 
CC(=O)Nc1ccc2c(c1)c(-c1cc(NC3CC3)n3ncc(C#N)c3n1)cn2CCO

>  <Name>  (386) 
nan

>  <Pocket>  (386) 
nan

>  <ATP_Site>  (386) 
nan

>  <Peripheral>  (386) 
nan

>  <Num_H_Atoms_ProtBoundConf>  (386) 
nan

>  <Num_Resolved_Atoms>  (386) 
nan

>  <Num_Not_Resolved_Atoms>  (386) 
nan

$$$$
CHEMBL2062558
     RDKit          3D

  0  0  0  0  0  0  0  0  0  0999 V3000
M  V30 BEGIN CTAB
M  V30 COUNTS 27 29 0 0 0
M  V30 BEGIN ATOM
M  V30 1 N 0.736251 -5.291506 -0.671764 0
M  V30 2 C 0.729597 -4.632905 0.303928 0
M  V30 3 C 0.711382 -3.802898 1.492042 0
M  V30 4 C 0.864350 -4.229024 2.778729 0
M  V30 5 N 0.775642 -3.118226 3.519294 0
M  V30 6 N 0.578859 -2.057005 2.747241 0
M  V30 7 C 0.428430 -0.745143 3.018710 0
M  V30 8 N 0.476101 -0.319224 4.381385 0
M  V30 9 C 0.234352 0.132640 1.966547 0
M  V30 10 C 0.184966 -0.255619 0.645954 0
M  V30 11 C -0.021077 0.692231 -0.443472 0
M  V30 12 C -0.188204 2.054464 -0.305836 0
M  V30 13 C -0.378375 2.881455 -1.393385 0
M  V30 14 C -0.409455 2.364549 -2.693103 0
M  V30 15 F -0.598493 3.210172 -3.733649 0
M  V30 16 C -0.243130 1.002889 -2.840316 0
M  V30 17 C -0.055039 0.203797 -1.732236 0
M  V30 18 N 0.339399 -1.569627 0.423614 0
M  V30 19 C 0.528882 -2.435145 1.436268 0
M  V30 20 H 1.021398 -5.253234 3.089729 0
M  V30 21 H 1.292010 -0.535963 5.015337 0
M  V30 22 H -0.406861 0.205265 4.571665 0
M  V30 23 H 0.121255 1.160871 2.242954 0
M  V30 24 H -0.164475 2.452479 0.692370 0
M  V30 25 H -0.508288 3.944423 -1.279444 0
M  V30 26 H -0.275699 0.658357 -3.863071 0
M  V30 27 H 0.071884 -0.862436 -1.891254 0
M  V30 END ATOM
M  V30 BEGIN BOND
M  V30 1 3 1 2
M  V30 2 1 2 3
M  V30 3 1 3 4
M  V30 4 2 4 5
M  V30 5 1 5 6
M  V30 6 1 6 7
M  V30 7 1 7 8
M  V30 8 2 7 9
M  V30 9 1 9 10
M  V30 10 1 10 11
M  V30 11 2 11 12
M  V30 12 1 12 13
M  V30 13 2 13 14
M  V30 14 1 14 15
M  V30 15 1 14 16
M  V30 16 2 16 17
M  V30 17 2 10 18
M  V30 18 1 18 19
M  V30 19 2 19 3
M  V30 20 1 19 6
M  V30 21 1 17 11
M  V30 22 1 4 20
M  V30 23 1 8 21
M  V30 24 1 8 22
M  V30 25 1 9 23
M  V30 26 1 12 24
M  V30 27 1 13 25
M  V30 28 1 16 26
M  V30 29 1 17 27
M  V30 END BOND
M  V30 END CTAB
M  END
>  <Dataset>  (387) 
ChEMBL_Kinases

>  <Ligand_Instance>  (387) 
nan

>  <PDB_ID>  (387) 
nan

>  <Standardized_SMILES>  (387) 
N#Cc1cnn2c(N)cc(-c3ccc(F)cc3)nc12

>  <Name>  (387) 
nan

>  <Pocket>  (387) 
nan

>  <ATP_Site>  (387) 
nan

>  <Peripheral>  (387) 
nan

>  <Num_H_Atoms_ProtBoundConf>  (387) 
nan

>  <Num_Resolved_Atoms>  (387) 
nan

>  <Num_Not_Resolved_Atoms>  (387) 
nan

$$$$
CHEMBL2062559
     RDKit          3D

  0  0  0  0  0  0  0  0  0  0999 V3000
M  V30 BEGIN CTAB
M  V30 COUNTS 31 34 0 0 0
M  V30 BEGIN ATOM
M  V30 1 N 1.340551 -0.612677 6.346202 0
M  V30 2 C 1.395593 -1.066555 5.282456 0
M  V30 3 C 1.439776 -1.633330 3.971619 0
M  V30 4 C 1.991961 -2.830615 3.585820 0
M  V30 5 N 1.798061 -2.947551 2.260803 0
M  V30 6 N 1.149231 -1.868477 1.823298 0
M  V30 7 C 0.762879 -1.593322 0.564177 0
M  V30 8 N 1.018735 -2.485418 -0.531547 0
M  V30 9 C 0.611317 -2.209829 -1.899030 0
M  V30 10 C 0.980585 -3.289238 -2.915431 0
M  V30 11 C -0.456372 -3.040326 -2.553087 0
M  V30 12 C 0.084559 -0.410485 0.255420 0
M  V30 13 C -0.150792 0.430587 1.318835 0
M  V30 14 C -0.827404 1.656419 1.135645 0
M  V30 15 C -1.211747 2.680251 1.921935 0
M  V30 16 C -1.867480 3.769699 1.476410 0
M  V30 17 C -2.126563 3.725880 0.011026 0
M  V30 18 S -1.394262 2.129110 -0.524836 0
M  V30 19 N 0.247172 0.128172 2.564195 0
M  V30 20 C 0.903357 -1.024378 2.840295 0
M  V30 21 H 2.491178 -3.558562 4.200500 0
M  V30 22 H 1.532439 -3.380821 -0.296715 0
M  V30 23 H 0.813619 -1.169422 -2.265466 0
M  V30 24 H 1.418519 -4.248167 -2.510862 0
M  V30 25 H 1.378279 -2.970683 -3.898797 0
M  V30 26 H -0.950156 -3.784106 -1.894635 0
M  V30 27 H -1.156077 -2.577432 -3.270418 0
M  V30 28 H -0.215506 -0.211330 -0.762020 0
M  V30 29 H -0.943137 2.549204 2.961451 0
M  V30 30 H -2.178218 4.592415 2.098478 0
M  V30 31 H -2.725459 4.726674 -0.380262 0
M  V30 END ATOM
M  V30 BEGIN BOND
M  V30 1 3 1 2
M  V30 2 1 2 3
M  V30 3 1 3 4
M  V30 4 2 4 5
M  V30 5 1 5 6
M  V30 6 1 6 7
M  V30 7 1 7 8
M  V30 8 1 8 9
M  V30 9 1 9 10
M  V30 10 1 10 11
M  V30 11 2 7 12
M  V30 12 1 12 13
M  V30 13 1 13 14
M  V30 14 2 14 15
M  V30 15 1 15 16
M  V30 16 2 16 17
M  V30 17 1 17 18
M  V30 18 2 13 19
M  V30 19 1 19 20
M  V30 20 2 20 3
M  V30 21 1 20 6
M  V30 22 1 11 9
M  V30 23 1 18 14
M  V30 24 1 4 21
M  V30 25 1 8 22
M  V30 26 1 9 23
M  V30 27 1 10 24
M  V30 28 1 10 25
M  V30 29 1 11 26
M  V30 30 1 11 27
M  V30 31 1 12 28
M  V30 32 1 15 29
M  V30 33 1 16 30
M  V30 34 1 17 31
M  V30 END BOND
M  V30 END CTAB
M  END
>  <Dataset>  (388) 
ChEMBL_Kinases

>  <Ligand_Instance>  (388) 
nan

>  <PDB_ID>  (388) 
nan

>  <Standardized_SMILES>  (388) 
N#Cc1cnn2c(NC3CC3)cc(-c3cccs3)nc12

>  <Name>  (388) 
nan

>  <Pocket>  (388) 
nan

>  <ATP_Site>  (388) 
nan

>  <Peripheral>  (388) 
nan

>  <Num_H_Atoms_ProtBoundConf>  (388) 
nan

>  <Num_Resolved_Atoms>  (388) 
nan

>  <Num_Not_Resolved_Atoms>  (388) 
nan

$$$$
CHEMBL2062560
     RDKit          3D

  0  0  0  0  0  0  0  0  0  0999 V3000
M  V30 BEGIN CTAB
M  V30 COUNTS 38 41 0 0 0
M  V30 BEGIN ATOM
M  V30 1 C -0.189987 -5.469791 5.404657 0
M  V30 2 O -0.293636 -4.060314 5.494006 0
M  V30 3 C -0.125231 -3.313251 4.335194 0
M  V30 4 C 0.140693 -3.821059 3.068564 0
M  V30 5 C 0.283567 -2.936483 2.001748 0
M  V30 6 C 0.174420 -1.567064 2.134150 0
M  V30 7 C 0.340724 -0.724981 0.954848 0
M  V30 8 C 0.250889 0.634028 0.986336 0
M  V30 9 C 0.430683 1.302826 -0.208070 0
M  V30 10 N 0.337301 2.723112 -0.177806 0
M  V30 11 C 0.471474 3.690459 -1.225570 0
M  V30 12 C -0.531397 3.541574 -2.369082 0
M  V30 13 C -0.572247 4.715725 -1.472252 0
M  V30 14 N 0.684957 0.684491 -1.375040 0
M  V30 15 N 0.890766 1.098453 -2.624923 0
M  V30 16 C 1.101612 0.024165 -3.405130 0
M  V30 17 C 1.031912 -1.117987 -2.647295 0
M  V30 18 C 1.198044 -2.474963 -3.091583 0
M  V30 19 N 1.339211 -3.576387 -3.471432 0
M  V30 20 C 0.767515 -0.677637 -1.366179 0
M  V30 21 N 0.594138 -1.358410 -0.202425 0
M  V30 22 C -0.089853 -1.096719 3.404378 0
M  V30 23 C -0.240096 -1.930582 4.494050 0
M  V30 24 H -0.605046 -5.974360 6.300321 0
M  V30 25 H -0.786507 -5.800800 4.524767 0
M  V30 26 H 0.857247 -5.802412 5.211829 0
M  V30 27 H 0.221253 -4.887607 2.989467 0
M  V30 28 H 0.490226 -3.440738 1.053941 0
M  V30 29 H 0.049481 1.150503 1.901748 0
M  V30 30 H 0.146741 3.262705 0.671452 0
M  V30 31 H 1.526650 3.911960 -1.482482 0
M  V30 32 H -0.115666 3.597747 -3.387425 0
M  V30 33 H -1.352173 2.810892 -2.241861 0
M  V30 34 H -1.405680 4.799483 -0.742750 0
M  V30 35 H -0.214034 5.680202 -1.888450 0
M  V30 36 H 1.295619 0.083937 -4.473045 0
M  V30 37 H -0.181399 -0.034663 3.544313 0
M  V30 38 H -0.447450 -1.467191 5.459212 0
M  V30 END ATOM
M  V30 BEGIN BOND
M  V30 1 1 1 2
M  V30 2 1 2 3
M  V30 3 2 3 4
M  V30 4 1 4 5
M  V30 5 2 5 6
M  V30 6 1 6 7
M  V30 7 1 7 8
M  V30 8 2 8 9
M  V30 9 1 9 10
M  V30 10 1 10 11
M  V30 11 1 11 12
M  V30 12 1 12 13
M  V30 13 1 9 14
M  V30 14 1 14 15
M  V30 15 2 15 16
M  V30 16 1 16 17
M  V30 17 1 17 18
M  V30 18 3 18 19
M  V30 19 2 17 20
M  V30 20 1 20 21
M  V30 21 1 6 22
M  V30 22 2 22 23
M  V30 23 1 23 3
M  V30 24 2 21 7
M  V30 25 1 13 11
M  V30 26 1 20 14
M  V30 27 1 1 24
M  V30 28 1 1 25
M  V30 29 1 1 26
M  V30 30 1 4 27
M  V30 31 1 5 28
M  V30 32 1 8 29
M  V30 33 1 10 30
M  V30 34 1 11 31
M  V30 35 1 12 32
M  V30 36 1 12 33
M  V30 37 1 13 34
M  V30 38 1 13 35
M  V30 39 1 16 36
M  V30 40 1 22 37
M  V30 41 1 23 38
M  V30 END BOND
M  V30 END CTAB
M  END
>  <Dataset>  (389) 
ChEMBL_Kinases

>  <Ligand_Instance>  (389) 
nan

>  <PDB_ID>  (389) 
nan

>  <Standardized_SMILES>  (389) 
COc1ccc(-c2cc(NC3CC3)n3ncc(C#N)c3n2)cc1

>  <Name>  (389) 
nan

>  <Pocket>  (389) 
nan

>  <ATP_Site>  (389) 
nan

>  <Peripheral>  (389) 
nan

>  <Num_H_Atoms_ProtBoundConf>  (389) 
nan

>  <Num_Resolved_Atoms>  (389) 
nan

>  <Num_Not_Resolved_Atoms>  (389) 
nan

$$$$
CHEMBL2062561
     RDKit          3D

  0  0  0  0  0  0  0  0  0  0999 V3000
M  V30 BEGIN CTAB
M  V30 COUNTS 41 44 0 0 0
M  V30 BEGIN ATOM
M  V30 1 C 3.068336 -4.928867 4.578789 0
M  V30 2 O 1.696175 -4.828475 4.218541 0
M  V30 3 C 1.312125 -3.921496 3.239338 0
M  V30 4 C 2.105226 -3.056018 2.516267 0
M  V30 5 C 1.497892 -2.233183 1.580877 0
M  V30 6 C 0.140498 -2.244691 1.345670 0
M  V30 7 C -0.449637 -1.365084 0.350891 0
M  V30 8 C 0.271322 -0.482870 -0.411567 0
M  V30 9 C -0.303456 0.358530 -1.361141 0
M  V30 10 N 0.613533 1.220461 -2.066144 0
M  V30 11 C 0.824075 2.306302 -1.134064 0
M  V30 12 C 0.318205 3.542600 -0.801508 0
M  V30 13 C 1.086452 3.990784 0.251335 0
M  V30 14 N 2.022476 3.081484 0.559465 0
M  V30 15 C 3.019949 3.171464 1.606461 0
M  V30 16 N 1.863566 2.048762 -0.289237 0
M  V30 17 N -1.633688 0.277475 -1.514494 0
M  V30 18 N -2.387900 0.967512 -2.342182 0
M  V30 19 C -3.677889 0.589729 -2.189787 0
M  V30 20 C -3.629958 -0.384639 -1.199364 0
M  V30 21 C -4.776878 -1.082016 -0.698070 0
M  V30 22 N -5.727445 -1.635926 -0.288061 0
M  V30 23 C -2.321375 -0.595290 -0.756098 0
M  V30 24 N -1.776611 -1.407654 0.159126 0
M  V30 25 C -0.666733 -3.118752 2.074396 0
M  V30 26 C -0.047934 -3.946642 3.016591 0
M  V30 27 H 3.668521 -4.855440 3.651100 0
M  V30 28 H 3.295039 -5.922173 5.021220 0
M  V30 29 H 3.330436 -4.091959 5.278230 0
M  V30 30 H 3.153248 -3.100531 2.753804 0
M  V30 31 H 2.209743 -1.603921 1.077897 0
M  V30 32 H 1.346628 -0.426302 -0.277667 0
M  V30 33 H 0.993384 1.031678 -3.032617 0
M  V30 34 H -0.512616 3.861100 -1.402157 0
M  V30 35 H 0.876243 4.953334 0.691970 0
M  V30 36 H 3.863943 2.496111 1.355668 0
M  V30 37 H 2.571278 2.715239 2.540493 0
M  V30 38 H 3.323297 4.218520 1.800197 0
M  V30 39 H -4.498775 1.001361 -2.750762 0
M  V30 40 H -1.736938 -3.113669 1.876747 0
M  V30 41 H -0.770920 -4.582898 3.524927 0
M  V30 END ATOM
M  V30 BEGIN BOND
M  V30 1 1 1 2
M  V30 2 1 2 3
M  V30 3 2 3 4
M  V30 4 1 4 5
M  V30 5 2 5 6
M  V30 6 1 6 7
M  V30 7 1 7 8
M  V30 8 2 8 9
M  V30 9 1 9 10
M  V30 10 1 10 11
M  V30 11 1 11 12
M  V30 12 2 12 13
M  V30 13 1 13 14
M  V30 14 1 14 15
M  V30 15 1 14 16
M  V30 16 1 9 17
M  V30 17 1 17 18
M  V30 18 2 18 19
M  V30 19 1 19 20
M  V30 20 1 20 21
M  V30 21 3 21 22
M  V30 22 2 20 23
M  V30 23 1 23 24
M  V30 24 1 6 25
M  V30 25 2 25 26
M  V30 26 1 26 3
M  V30 27 2 24 7
M  V30 28 2 16 11
M  V30 29 1 23 17
M  V30 30 1 1 27
M  V30 31 1 1 28
M  V30 32 1 1 29
M  V30 33 1 4 30
M  V30 34 1 5 31
M  V30 35 1 8 32
M  V30 36 1 10 33
M  V30 37 1 12 34
M  V30 38 1 13 35
M  V30 39 1 15 36
M  V30 40 1 15 37
M  V30 41 1 15 38
M  V30 42 1 19 39
M  V30 43 1 25 40
M  V30 44 1 26 41
M  V30 END BOND
M  V30 END CTAB
M  END
>  <Dataset>  (390) 
ChEMBL_Kinases

>  <Ligand_Instance>  (390) 
nan

>  <PDB_ID>  (390) 
nan

>  <Standardized_SMILES>  (390) 
COc1ccc(-c2cc(Nc3ccn(C)n3)n3ncc(C#N)c3n2)cc1

>  <Name>  (390) 
nan

>  <Pocket>  (390) 
nan

>  <ATP_Site>  (390) 
nan

>  <Peripheral>  (390) 
nan

>  <Num_H_Atoms_ProtBoundConf>  (390) 
nan

>  <Num_Resolved_Atoms>  (390) 
nan

>  <Num_Not_Resolved_Atoms>  (390) 
nan

$$$$
CHEMBL2062562
     RDKit          3D

  0  0  0  0  0  0  0  0  0  0999 V3000
M  V30 BEGIN CTAB
M  V30 COUNTS 37 40 0 0 0
M  V30 BEGIN ATOM
M  V30 1 C -0.829827 -4.800470 2.081359 0
M  V30 2 O -0.171387 -3.708786 1.496882 0
M  V30 3 C 1.108088 -3.740543 1.012410 0
M  V30 4 C 1.870700 -4.902261 1.069312 0
M  V30 5 C 3.163314 -4.970217 0.590712 0
M  V30 6 N 3.676378 -3.847818 0.053089 0
M  V30 7 C 2.960476 -2.710016 -0.014618 0
M  V30 8 C 1.667352 -2.609371 0.454293 0
M  V30 9 C 0.855145 -1.399739 0.402053 0
M  V30 10 C 1.307172 -0.211519 -0.132075 0
M  V30 11 C 0.509100 0.914007 -0.164344 0
M  V30 12 N 1.017947 2.099217 -0.719635 0
M  V30 13 C 0.348941 3.359694 -0.842320 0
M  V30 14 C -0.136447 4.071706 0.370447 0
M  V30 15 C 1.032002 4.626197 -0.387281 0
M  V30 16 N -0.745447 0.911125 0.321136 0
M  V30 17 N -1.741040 1.772977 0.444907 0
M  V30 18 C -2.813085 1.178704 1.038808 0
M  V30 19 C -2.461671 -0.138464 1.301621 0
M  V30 20 C -3.308846 -1.120764 1.926082 0
M  V30 21 N -4.000417 -1.914470 2.411316 0
M  V30 22 C -1.166374 -0.258336 0.837575 0
M  V30 23 N -0.403096 -1.366402 0.878001 0
M  V30 24 H -1.628559 -4.496104 2.785589 0
M  V30 25 H -0.114767 -5.393498 2.677562 0
M  V30 26 H -1.240019 -5.463348 1.268728 0
M  V30 27 H 1.490760 -5.820631 1.493811 0
M  V30 28 H 3.760979 -5.862741 0.629886 0
M  V30 29 H 3.414474 -1.839075 -0.453366 0
M  V30 30 H 2.296173 -0.141197 -0.535383 0
M  V30 31 H 1.958383 2.221973 -1.120356 0
M  V30 32 H -0.251789 3.493090 -1.789409 0
M  V30 33 H -1.091980 4.619875 0.354110 0
M  V30 34 H 0.125594 3.655258 1.367312 0
M  V30 35 H 0.840996 5.564385 -0.935439 0
M  V30 36 H 2.052468 4.574687 0.024597 0
M  V30 37 H -3.754044 1.696449 1.245600 0
M  V30 END ATOM
M  V30 BEGIN BOND
M  V30 1 1 1 2
M  V30 2 1 2 3
M  V30 3 2 3 4
M  V30 4 1 4 5
M  V30 5 2 5 6
M  V30 6 1 6 7
M  V30 7 2 7 8
M  V30 8 1 8 9
M  V30 9 1 9 10
M  V30 10 2 10 11
M  V30 11 1 11 12
M  V30 12 1 12 13
M  V30 13 1 13 14
M  V30 14 1 14 15
M  V30 15 1 11 16
M  V30 16 1 16 17
M  V30 17 2 17 18
M  V30 18 1 18 19
M  V30 19 1 19 20
M  V30 20 3 20 21
M  V30 21 2 19 22
M  V30 22 1 22 23
M  V30 23 1 8 3
M  V30 24 2 23 9
M  V30 25 1 15 13
M  V30 26 1 22 16
M  V30 27 1 1 24
M  V30 28 1 1 25
M  V30 29 1 1 26
M  V30 30 1 4 27
M  V30 31 1 5 28
M  V30 32 1 7 29
M  V30 33 1 10 30
M  V30 34 1 12 31
M  V30 35 1 13 32
M  V30 36 1 14 33
M  V30 37 1 14 34
M  V30 38 1 15 35
M  V30 39 1 15 36
M  V30 40 1 18 37
M  V30 END BOND
M  V30 END CTAB
M  END
>  <Dataset>  (391) 
ChEMBL_Kinases

>  <Ligand_Instance>  (391) 
nan

>  <PDB_ID>  (391) 
nan

>  <Standardized_SMILES>  (391) 
COc1ccncc1-c1cc(NC2CC2)n2ncc(C#N)c2n1

>  <Name>  (391) 
nan

>  <Pocket>  (391) 
nan

>  <ATP_Site>  (391) 
nan

>  <Peripheral>  (391) 
nan

>  <Num_H_Atoms_ProtBoundConf>  (391) 
nan

>  <Num_Resolved_Atoms>  (391) 
nan

>  <Num_Not_Resolved_Atoms>  (391) 
nan

$$$$
CHEMBL2062566
     RDKit          3D

  0  0  0  0  0  0  0  0  0  0999 V3000
M  V30 BEGIN CTAB
M  V30 COUNTS 47 51 0 0 0
M  V30 BEGIN ATOM
M  V30 1 C 5.203885 -3.311723 0.757535 0
M  V30 2 C 4.491573 -2.038859 0.392180 0
M  V30 3 O 4.796289 -0.909292 0.861517 0
M  V30 4 N 3.434512 -2.228879 -0.538768 0
M  V30 5 C 2.475874 -1.409752 -1.197673 0
M  V30 6 C 2.835051 -0.877956 -2.408447 0
M  V30 7 C 1.935026 -0.065473 -3.102931 0
M  V30 8 C 0.688464 0.204477 -2.577777 0
M  V30 9 C 0.335095 -0.341445 -1.345755 0
M  V30 10 C 1.235890 -1.156739 -0.648099 0
M  V30 11 N -0.974237 0.023975 -0.922550 0
M  V30 12 C -1.597270 0.111217 0.348738 0
M  V30 13 C -0.988076 0.130150 1.578953 0
M  V30 14 C -1.690210 0.204959 2.755971 0
M  V30 15 N -0.981297 0.219124 3.988574 0
M  V30 16 C 0.467011 0.156555 4.026214 0
M  V30 17 C 1.126550 0.174948 5.380208 0
M  V30 18 C 1.197176 -1.012152 4.522722 0
M  V30 19 N -3.033489 0.264684 2.758761 0
M  V30 20 N -3.969965 0.341470 3.708706 0
M  V30 21 C -5.186897 0.373067 3.103757 0
M  V30 22 C -5.000436 0.314093 1.736172 0
M  V30 23 C -6.012244 0.320224 0.690524 0
M  V30 24 N -6.821212 0.319585 -0.132306 0
M  V30 25 C -3.629373 0.246448 1.553319 0
M  V30 26 N -2.956663 0.173344 0.391507 0
M  V30 27 C -1.623199 0.351935 -2.193006 0
M  V30 28 C -0.518371 0.997586 -3.018803 0
M  V30 29 H 5.622382 -3.179443 1.768188 0
M  V30 30 H 6.032269 -3.518330 0.069229 0
M  V30 31 H 4.479680 -4.157609 0.819135 0
M  V30 32 H 3.153846 -3.146289 -0.948048 0
M  V30 33 H 3.787440 -1.030107 -2.903524 0
M  V30 34 H 2.128440 0.401828 -4.069705 0
M  V30 35 H 1.007581 -1.607302 0.304518 0
M  V30 36 H 0.067920 0.092649 1.613794 0
M  V30 37 H -1.501023 0.275309 4.890341 0
M  V30 38 H 1.020325 0.791707 3.274622 0
M  V30 39 H 0.446886 0.098934 6.258761 0
M  V30 40 H 1.976800 0.846821 5.566971 0
M  V30 41 H 0.653853 -1.943659 4.854904 0
M  V30 42 H 2.178533 -1.279531 4.079463 0
M  V30 43 H -6.167837 0.434987 3.599151 0
M  V30 44 H -2.465767 1.059193 -2.074511 0
M  V30 45 H -2.002180 -0.580037 -2.631758 0
M  V30 46 H -0.406526 2.049282 -2.716627 0
M  V30 47 H -0.661993 0.871756 -4.102550 0
M  V30 END ATOM
M  V30 BEGIN BOND
M  V30 1 1 1 2
M  V30 2 2 2 3
M  V30 3 1 2 4
M  V30 4 1 4 5
M  V30 5 2 5 6
M  V30 6 1 6 7
M  V30 7 2 7 8
M  V30 8 1 8 9
M  V30 9 2 9 10
M  V30 10 1 9 11
M  V30 11 1 11 12
M  V30 12 1 12 13
M  V30 13 2 13 14
M  V30 14 1 14 15
M  V30 15 1 15 16
M  V30 16 1 16 17
M  V30 17 1 17 18
M  V30 18 1 14 19
M  V30 19 1 19 20
M  V30 20 2 20 21
M  V30 21 1 21 22
M  V30 22 1 22 23
M  V30 23 3 23 24
M  V30 24 2 22 25
M  V30 25 1 25 26
M  V30 26 1 11 27
M  V30 27 1 27 28
M  V30 28 1 10 5
M  V30 29 2 26 12
M  V30 30 1 28 8
M  V30 31 1 18 16
M  V30 32 1 25 19
M  V30 33 1 1 29
M  V30 34 1 1 30
M  V30 35 1 1 31
M  V30 36 1 4 32
M  V30 37 1 6 33
M  V30 38 1 7 34
M  V30 39 1 10 35
M  V30 40 1 13 36
M  V30 41 1 15 37
M  V30 42 1 16 38
M  V30 43 1 17 39
M  V30 44 1 17 40
M  V30 45 1 18 41
M  V30 46 1 18 42
M  V30 47 1 21 43
M  V30 48 1 27 44
M  V30 49 1 27 45
M  V30 50 1 28 46
M  V30 51 1 28 47
M  V30 END BOND
M  V30 END CTAB
M  END
>  <Dataset>  (392) 
ChEMBL_Kinases

>  <Ligand_Instance>  (392) 
nan

>  <PDB_ID>  (392) 
nan

>  <Standardized_SMILES>  (392) 
CC(=O)Nc1ccc2c(c1)N(c1cc(NC3CC3)n3ncc(C#N)c3n1)CC2

>  <Name>  (392) 
nan

>  <Pocket>  (392) 
nan

>  <ATP_Site>  (392) 
nan

>  <Peripheral>  (392) 
nan

>  <Num_H_Atoms_ProtBoundConf>  (392) 
nan

>  <Num_Resolved_Atoms>  (392) 
nan

>  <Num_Not_Resolved_Atoms>  (392) 
nan

$$$$
CHEMBL2062567
     RDKit          3D

  0  0  0  0  0  0  0  0  0  0999 V3000
M  V30 BEGIN CTAB
M  V30 COUNTS 48 52 0 0 0
M  V30 BEGIN ATOM
M  V30 1 C 4.943842 -4.410295 0.592015 0
M  V30 2 C 4.552581 -2.993710 0.625511 0
M  V30 3 O 4.603327 -2.155024 1.543072 0
M  V30 4 N 4.009208 -2.381524 -0.546881 0
M  V30 5 C 3.545640 -1.067028 -0.830928 0
M  V30 6 C 4.412156 -0.092512 -1.319235 0
M  V30 7 C 3.960265 1.178165 -1.594051 0
M  V30 8 C 2.620073 1.456129 -1.369989 0
M  V30 9 C 1.695960 0.521867 -0.880955 0
M  V30 10 C 2.230328 -0.708891 -0.636846 0
M  V30 11 N 0.324798 0.834880 -0.656758 0
M  V30 12 C -0.521771 -0.034022 0.086399 0
M  V30 13 C -1.522811 0.687151 0.715830 0
M  V30 14 C -2.509245 0.078080 1.499149 0
M  V30 15 N -3.545927 0.804550 2.156496 0
M  V30 16 C -4.592772 0.227625 2.970085 0
M  V30 17 C -5.596205 1.120786 3.618724 0
M  V30 18 C -4.599832 0.290041 4.432368 0
M  V30 19 N -2.526799 -1.258217 1.677054 0
M  V30 20 N -3.224420 -2.193251 2.294118 0
M  V30 21 C -2.735924 -3.412464 2.094394 0
M  V30 22 C -1.631865 -3.256291 1.282201 0
M  V30 23 C -0.808767 -4.339609 0.825712 0
M  V30 24 N -0.157827 -5.212695 0.445656 0
M  V30 25 C -1.524187 -1.881633 1.034457 0
M  V30 26 N -0.568189 -1.334243 0.280774 0
M  V30 27 C -0.070055 2.080459 -1.281041 0
M  V30 28 C 0.956015 3.132905 -0.935910 0
M  V30 29 O 2.147362 2.754437 -1.646507 0
M  V30 30 H 4.545396 -4.950629 1.490167 0
M  V30 31 H 4.459657 -4.882875 -0.285685 0
M  V30 32 H 6.036428 -4.570419 0.477010 0
M  V30 33 H 3.862822 -2.887714 -1.468913 0
M  V30 34 H 5.455398 -0.364883 -1.476693 0
M  V30 35 H 4.606532 1.959229 -1.975027 0
M  V30 36 H 1.610870 -1.479022 -0.263447 0
M  V30 37 H -1.676071 1.779549 0.701299 0
M  V30 38 H -3.574114 1.859574 2.055966 0
M  V30 39 H -5.035968 -0.706666 2.513225 0
M  V30 40 H -5.484488 2.217015 3.589046 0
M  V30 41 H -6.661046 0.765429 3.669258 0
M  V30 42 H -3.911557 0.894704 5.023105 0
M  V30 43 H -5.046229 -0.545757 5.025181 0
M  V30 44 H -3.177989 -4.291696 2.520383 0
M  V30 45 H 0.081975 1.888410 -2.391468 0
M  V30 46 H -1.096168 2.400676 -1.082250 0
M  V30 47 H 0.648726 4.147922 -1.224395 0
M  V30 48 H 1.234893 3.164275 0.123047 0
M  V30 END ATOM
M  V30 BEGIN BOND
M  V30 1 1 1 2
M  V30 2 2 2 3
M  V30 3 1 2 4
M  V30 4 1 4 5
M  V30 5 2 5 6
M  V30 6 1 6 7
M  V30 7 2 7 8
M  V30 8 1 8 9
M  V30 9 2 9 10
M  V30 10 1 9 11
M  V30 11 1 11 12
M  V30 12 1 12 13
M  V30 13 2 13 14
M  V30 14 1 14 15
M  V30 15 1 15 16
M  V30 16 1 16 17
M  V30 17 1 17 18
M  V30 18 1 14 19
M  V30 19 1 19 20
M  V30 20 2 20 21
M  V30 21 1 21 22
M  V30 22 1 22 23
M  V30 23 3 23 24
M  V30 24 2 22 25
M  V30 25 1 25 26
M  V30 26 1 11 27
M  V30 27 1 27 28
M  V30 28 1 28 29
M  V30 29 1 10 5
M  V30 30 2 26 12
M  V30 31 1 29 8
M  V30 32 1 18 16
M  V30 33 1 25 19
M  V30 34 1 1 30
M  V30 35 1 1 31
M  V30 36 1 1 32
M  V30 37 1 4 33
M  V30 38 1 6 34
M  V30 39 1 7 35
M  V30 40 1 10 36
M  V30 41 1 13 37
M  V30 42 1 15 38
M  V30 43 1 16 39
M  V30 44 1 17 40
M  V30 45 1 17 41
M  V30 46 1 18 42
M  V30 47 1 18 43
M  V30 48 1 21 44
M  V30 49 1 27 45
M  V30 50 1 27 46
M  V30 51 1 28 47
M  V30 52 1 28 48
M  V30 END BOND
M  V30 END CTAB
M  END
>  <Dataset>  (393) 
ChEMBL_Kinases

>  <Ligand_Instance>  (393) 
nan

>  <PDB_ID>  (393) 
nan

>  <Standardized_SMILES>  (393) 
CC(=O)Nc1ccc2c(c1)N(c1cc(NC3CC3)n3ncc(C#N)c3n1)CCO2

>  <Name>  (393) 
nan

>  <Pocket>  (393) 
nan

>  <ATP_Site>  (393) 
nan

>  <Peripheral>  (393) 
nan

>  <Num_H_Atoms_ProtBoundConf>  (393) 
nan

>  <Num_Resolved_Atoms>  (393) 
nan

>  <Num_Not_Resolved_Atoms>  (393) 
nan

$$$$
CHEMBL2062568
     RDKit          3D

  0  0  0  0  0  0  0  0  0  0999 V3000
M  V30 BEGIN CTAB
M  V30 COUNTS 50 54 0 0 0
M  V30 BEGIN ATOM
M  V30 1 C 2.359888 -3.899884 4.309572 0
M  V30 2 C 2.445879 -2.760545 3.383226 0
M  V30 3 O 2.612743 -1.568969 3.740761 0
M  V30 4 N 2.335210 -3.012591 2.007669 0
M  V30 5 C 2.345897 -2.332169 0.758455 0
M  V30 6 C 3.558306 -2.164463 0.123145 0
M  V30 7 C 3.634541 -1.522444 -1.077027 0
M  V30 8 C 2.502095 -1.041252 -1.655509 0
M  V30 9 C 1.279995 -1.218786 -0.999384 0
M  V30 10 C 1.151964 -1.862279 0.217353 0
M  V30 11 N 0.077184 -0.720223 -1.598849 0
M  V30 12 C -0.909288 -0.119385 -0.769464 0
M  V30 13 C -0.709245 0.379499 0.494855 0
M  V30 14 C -1.747360 0.930001 1.212234 0
M  V30 15 N -1.573199 1.454119 2.520589 0
M  V30 16 C -0.342926 1.483511 3.255112 0
M  V30 17 C -0.229026 2.053984 4.619413 0
M  V30 18 C -0.378239 0.571372 4.491753 0
M  V30 19 N -2.958601 0.968477 0.648342 0
M  V30 20 N -4.093907 1.428380 1.102903 0
M  V30 21 C -5.068729 1.257285 0.180120 0
M  V30 22 C -4.484454 0.649874 -0.913889 0
M  V30 23 C -5.172274 0.285635 -2.129876 0
M  V30 24 N -5.718835 -0.020228 -3.092151 0
M  V30 25 C -3.163156 0.486477 -0.580222 0
M  V30 26 N -2.148068 -0.046008 -1.267744 0
M  V30 27 C -0.125344 -0.814938 -3.052480 0
M  V30 28 C 1.214691 -1.105445 -3.690057 0
M  V30 29 C 2.261246 -0.307436 -2.942811 0
M  V30 30 H 1.882265 -3.552962 5.243268 0
M  V30 31 H 1.719862 -4.717027 3.913369 0
M  V30 32 H 3.355915 -4.334371 4.516962 0
M  V30 33 H 2.193363 -4.006450 1.657823 0
M  V30 34 H 4.493657 -2.518673 0.521549 0
M  V30 35 H 4.509584 -1.312121 -1.699602 0
M  V30 36 H 0.182493 -1.990087 0.708645 0
M  V30 37 H 0.281346 0.341527 0.915113 0
M  V30 38 H -2.362628 1.860260 3.033823 0
M  V30 39 H 0.575735 1.425736 2.615329 0
M  V30 40 H -1.066117 2.648487 5.007280 0
M  V30 41 H 0.771249 2.451552 4.890146 0
M  V30 42 H 0.496258 -0.082052 4.663032 0
M  V30 43 H -1.348792 0.162132 4.821228 0
M  V30 44 H -6.107185 1.561091 0.324818 0
M  V30 45 H -0.471143 0.170308 -3.435612 0
M  V30 46 H -0.842305 -1.613962 -3.294989 0
M  V30 47 H 1.457894 -2.195827 -3.591193 0
M  V30 48 H 1.227868 -0.866540 -4.770593 0
M  V30 49 H 1.807877 0.659178 -2.645842 0
M  V30 50 H 3.187340 -0.163205 -3.521327 0
M  V30 END ATOM
M  V30 BEGIN BOND
M  V30 1 1 1 2
M  V30 2 2 2 3
M  V30 3 1 2 4
M  V30 4 1 4 5
M  V30 5 2 5 6
M  V30 6 1 6 7
M  V30 7 2 7 8
M  V30 8 1 8 9
M  V30 9 2 9 10
M  V30 10 1 9 11
M  V30 11 1 11 12
M  V30 12 1 12 13
M  V30 13 2 13 14
M  V30 14 1 14 15
M  V30 15 1 15 16
M  V30 16 1 16 17
M  V30 17 1 17 18
M  V30 18 1 14 19
M  V30 19 1 19 20
M  V30 20 2 20 21
M  V30 21 1 21 22
M  V30 22 1 22 23
M  V30 23 3 23 24
M  V30 24 2 22 25
M  V30 25 1 25 26
M  V30 26 1 11 27
M  V30 27 1 27 28
M  V30 28 1 28 29
M  V30 29 1 10 5
M  V30 30 2 26 12
M  V30 31 1 29 8
M  V30 32 1 18 16
M  V30 33 1 25 19
M  V30 34 1 1 30
M  V30 35 1 1 31
M  V30 36 1 1 32
M  V30 37 1 4 33
M  V30 38 1 6 34
M  V30 39 1 7 35
M  V30 40 1 10 36
M  V30 41 1 13 37
M  V30 42 1 15 38
M  V30 43 1 16 39
M  V30 44 1 17 40
M  V30 45 1 17 41
M  V30 46 1 18 42
M  V30 47 1 18 43
M  V30 48 1 21 44
M  V30 49 1 27 45
M  V30 50 1 27 46
M  V30 51 1 28 47
M  V30 52 1 28 48
M  V30 53 1 29 49
M  V30 54 1 29 50
M  V30 END BOND
M  V30 END CTAB
M  END
>  <Dataset>  (394) 
ChEMBL_Kinases

>  <Ligand_Instance>  (394) 
nan

>  <PDB_ID>  (394) 
nan

>  <Standardized_SMILES>  (394) 
CC(=O)Nc1ccc2c(c1)N(c1cc(NC3CC3)n3ncc(C#N)c3n1)CCC2

>  <Name>  (394) 
nan

>  <Pocket>  (394) 
nan

>  <ATP_Site>  (394) 
nan

>  <Peripheral>  (394) 
nan

>  <Num_H_Atoms_ProtBoundConf>  (394) 
nan

>  <Num_Resolved_Atoms>  (394) 
nan

>  <Num_Not_Resolved_Atoms>  (394) 
nan

$$$$
CHEMBL2062580
     RDKit          3D

  0  0  0  0  0  0  0  0  0  0999 V3000
M  V30 BEGIN CTAB
M  V30 COUNTS 48 52 0 0 0
M  V30 BEGIN ATOM
M  V30 1 C 5.432258 -1.599671 2.401027 0
M  V30 2 C 4.009116 -2.003921 2.263942 0
M  V30 3 O 3.802615 -2.455455 1.094474 0
M  V30 4 N 2.949729 -1.952176 3.193775 0
M  V30 5 C 1.773401 -2.470768 2.540744 0
M  V30 6 C 1.615113 -3.836022 2.688925 0
M  V30 7 C 0.507312 -4.396892 2.087073 0
M  V30 8 C -0.393666 -3.634030 1.375286 0
M  V30 9 C -0.218783 -2.276901 1.238625 0
M  V30 10 C 0.877088 -1.707439 1.831852 0
M  V30 11 C -1.198852 -1.663007 0.509107 0
M  V30 12 C -1.522639 -0.333381 0.073119 0
M  V30 13 C -0.842936 0.842369 0.146052 0
M  V30 14 C -1.212993 2.084166 -0.307138 0
M  V30 15 N -0.424587 3.245507 -0.159595 0
M  V30 16 C 0.792589 3.771102 0.375827 0
M  V30 17 C 2.071812 3.126307 -0.021844 0
M  V30 18 C 1.567596 3.131223 1.434079 0
M  V30 19 N -2.415071 2.139138 -0.906482 0
M  V30 20 N -3.120421 3.113005 -1.464865 0
M  V30 21 C -4.284565 2.699381 -1.942567 0
M  V30 22 C -4.315476 1.351293 -1.661558 0
M  V30 23 C -5.352702 0.426818 -1.965162 0
M  V30 24 N -6.201991 -0.317202 -2.223656 0
M  V30 25 C -3.142908 1.023195 -1.016817 0
M  V30 26 N -2.701192 -0.148123 -0.543455 0
M  V30 27 C -2.025490 -2.746082 0.186339 0
M  V30 28 N -1.517346 -3.859058 0.708816 0
M  V30 29 C -2.070684 -5.217883 0.606960 0
M  V30 30 H 5.638821 -1.188352 3.395989 0
M  V30 31 H 6.030931 -2.540646 2.231912 0
M  V30 32 H 5.754907 -0.935254 1.561186 0
M  V30 33 H 3.247892 -1.563851 4.110981 0
M  V30 34 H 2.259940 -4.519910 3.223435 0
M  V30 35 H 0.320592 -5.459993 2.162222 0
M  V30 36 H 1.096072 -0.666808 1.789779 0
M  V30 37 H 0.116044 0.810898 0.595964 0
M  V30 38 H -0.889646 4.079485 -0.626450 0
M  V30 39 H 0.892548 4.911237 0.392563 0
M  V30 40 H 2.994429 3.682183 -0.178860 0
M  V30 41 H 1.977501 2.194088 -0.606949 0
M  V30 42 H 1.452942 2.141309 1.854740 0
M  V30 43 H 2.170714 3.789764 2.145722 0
M  V30 44 H -5.054920 3.277412 -2.445765 0
M  V30 45 H -2.961608 -2.807388 -0.391853 0
M  V30 46 H -2.536465 -5.505641 1.586903 0
M  V30 47 H -1.307635 -5.932257 0.278677 0
M  V30 48 H -2.895362 -5.268986 -0.128355 0
M  V30 END ATOM
M  V30 BEGIN BOND
M  V30 1 1 1 2
M  V30 2 2 2 3
M  V30 3 1 2 4
M  V30 4 1 4 5
M  V30 5 2 5 6
M  V30 6 1 6 7
M  V30 7 2 7 8
M  V30 8 1 8 9
M  V30 9 2 9 10
M  V30 10 1 9 11
M  V30 11 1 11 12
M  V30 12 1 12 13
M  V30 13 2 13 14
M  V30 14 1 14 15
M  V30 15 1 15 16
M  V30 16 1 16 17
M  V30 17 1 17 18
M  V30 18 1 14 19
M  V30 19 1 19 20
M  V30 20 2 20 21
M  V30 21 1 21 22
M  V30 22 1 22 23
M  V30 23 3 23 24
M  V30 24 2 22 25
M  V30 25 1 25 26
M  V30 26 2 11 27
M  V30 27 1 27 28
M  V30 28 1 28 29
M  V30 29 1 10 5
M  V30 30 2 26 12
M  V30 31 1 28 8
M  V30 32 1 18 16
M  V30 33 1 25 19
M  V30 34 1 1 30
M  V30 35 1 1 31
M  V30 36 1 1 32
M  V30 37 1 4 33
M  V30 38 1 6 34
M  V30 39 1 7 35
M  V30 40 1 10 36
M  V30 41 1 13 37
M  V30 42 1 15 38
M  V30 43 1 16 39
M  V30 44 1 17 40
M  V30 45 1 17 41
M  V30 46 1 18 42
M  V30 47 1 18 43
M  V30 48 1 21 44
M  V30 49 1 27 45
M  V30 50 1 29 46
M  V30 51 1 29 47
M  V30 52 1 29 48
M  V30 END BOND
M  V30 END CTAB
M  END
>  <Dataset>  (395) 
ChEMBL_Kinases

>  <Ligand_Instance>  (395) 
nan

>  <PDB_ID>  (395) 
nan

>  <Standardized_SMILES>  (395) 
CC(=O)Nc1ccc2c(c1)c(-c1cc(NC3CC3)n3ncc(C#N)c3n1)cn2C

>  <Name>  (395) 
nan

>  <Pocket>  (395) 
nan

>  <ATP_Site>  (395) 
nan

>  <Peripheral>  (395) 
nan

>  <Num_H_Atoms_ProtBoundConf>  (395) 
nan

>  <Num_Resolved_Atoms>  (395) 
nan

>  <Num_Not_Resolved_Atoms>  (395) 
nan

$$$$
CHEMBL2062570
     RDKit          3D

  0  0  0  0  0  0  0  0  0  0999 V3000
M  V30 BEGIN CTAB
M  V30 COUNTS 48 52 0 0 0
M  V30 BEGIN ATOM
M  V30 1 C 1.725142 -6.629743 2.327158 0
M  V30 2 C 2.296515 -5.358554 1.756304 0
M  V30 3 O 3.048568 -4.580677 2.429860 0
M  V30 4 N 2.042831 -4.927066 0.424709 0
M  V30 5 C 2.744248 -3.680623 0.223886 0
M  V30 6 C 4.036007 -3.553230 -0.242328 0
M  V30 7 C 4.579210 -2.292115 -0.384762 0
M  V30 8 C 3.784144 -1.206848 -0.046153 0
M  V30 9 C 4.090660 0.143357 -0.098146 0
M  V30 10 C 2.982677 0.834365 0.337292 0
M  V30 11 N 2.039325 -0.042195 0.642960 0
M  V30 12 C 0.744635 0.292996 1.130886 0
M  V30 13 C 0.280165 1.578558 1.114689 0
M  V30 14 C -0.983222 1.883761 1.594457 0
M  V30 15 N -1.551850 3.189371 1.618538 0
M  V30 16 C -2.242452 3.370298 0.383844 0
M  V30 17 C -1.798639 3.872516 -0.821531 0
M  V30 18 C -2.862203 3.838792 -1.713207 0
M  V30 19 N -3.907102 3.325426 -1.037379 0
M  V30 20 C -5.241745 3.107574 -1.589095 0
M  V30 21 N -3.548501 3.042487 0.214305 0
M  V30 22 N -1.805110 0.921101 2.097156 0
M  V30 23 N -3.018133 0.878586 2.612884 0
M  V30 24 C -3.349055 -0.374109 2.957277 0
M  V30 25 C -2.278388 -1.189068 2.641983 0
M  V30 26 C -2.124397 -2.619360 2.812152 0
M  V30 27 N -2.020525 -3.764289 2.946226 0
M  V30 28 C -1.323544 -0.341895 2.102478 0
M  V30 29 N -0.107242 -0.625055 1.638839 0
M  V30 30 C 2.503428 -1.286479 0.418153 0
M  V30 31 C 1.977133 -2.558692 0.553926 0
M  V30 32 H 2.292657 -7.522758 2.025345 0
M  V30 33 H 0.669439 -6.786595 2.003679 0
M  V30 34 H 1.707923 -6.577622 3.415529 0
M  V30 35 H 1.419112 -5.549184 -0.170744 0
M  V30 36 H 4.557808 -4.482390 -0.474172 0
M  V30 37 H 5.590006 -2.202267 -0.750009 0
M  V30 38 H 5.033149 0.562707 -0.423779 0
M  V30 39 H 2.978837 1.922874 0.387086 0
M  V30 40 H 0.871515 2.397165 0.732320 0
M  V30 41 H -1.416586 3.801983 2.443272 0
M  V30 42 H -0.792571 4.223110 -1.007976 0
M  V30 43 H -2.834015 4.170566 -2.758832 0
M  V30 44 H -6.018240 3.084416 -0.812001 0
M  V30 45 H -5.442677 3.815828 -2.415714 0
M  V30 46 H -5.270661 2.089134 -2.072950 0
M  V30 47 H -4.272129 -0.732337 3.403233 0
M  V30 48 H 0.957878 -2.631029 0.923077 0
M  V30 END ATOM
M  V30 BEGIN BOND
M  V30 1 1 1 2
M  V30 2 2 2 3
M  V30 3 1 2 4
M  V30 4 1 4 5
M  V30 5 2 5 6
M  V30 6 1 6 7
M  V30 7 2 7 8
M  V30 8 1 8 9
M  V30 9 2 9 10
M  V30 10 1 10 11
M  V30 11 1 11 12
M  V30 12 1 12 13
M  V30 13 2 13 14
M  V30 14 1 14 15
M  V30 15 1 15 16
M  V30 16 1 16 17
M  V30 17 2 17 18
M  V30 18 1 18 19
M  V30 19 1 19 20
M  V30 20 1 19 21
M  V30 21 1 14 22
M  V30 22 1 22 23
M  V30 23 2 23 24
M  V30 24 1 24 25
M  V30 25 1 25 26
M  V30 26 3 26 27
M  V30 27 2 25 28
M  V30 28 1 28 29
M  V30 29 1 11 30
M  V30 30 2 30 31
M  V30 31 1 31 5
M  V30 32 1 30 8
M  V30 33 2 29 12
M  V30 34 2 21 16
M  V30 35 1 28 22
M  V30 36 1 1 32
M  V30 37 1 1 33
M  V30 38 1 1 34
M  V30 39 1 4 35
M  V30 40 1 6 36
M  V30 41 1 7 37
M  V30 42 1 9 38
M  V30 43 1 10 39
M  V30 44 1 13 40
M  V30 45 1 15 41
M  V30 46 1 17 42
M  V30 47 1 18 43
M  V30 48 1 20 44
M  V30 49 1 20 45
M  V30 50 1 20 46
M  V30 51 1 24 47
M  V30 52 1 31 48
M  V30 END BOND
M  V30 END CTAB
M  END
>  <Dataset>  (396) 
ChEMBL_Kinases

>  <Ligand_Instance>  (396) 
nan

>  <PDB_ID>  (396) 
nan

>  <Standardized_SMILES>  (396) 
CC(=O)Nc1ccc2ccn(-c3cc(Nc4ccn(C)n4)n4ncc(C#N)c4n3)c2c1

>  <Name>  (396) 
nan

>  <Pocket>  (396) 
nan

>  <ATP_Site>  (396) 
nan

>  <Peripheral>  (396) 
nan

>  <Num_H_Atoms_ProtBoundConf>  (396) 
nan

>  <Num_Resolved_Atoms>  (396) 
nan

>  <Num_Not_Resolved_Atoms>  (396) 
nan

$$$$
CHEMBL2062571
     RDKit          3D

  0  0  0  0  0  0  0  0  0  0999 V3000
M  V30 BEGIN CTAB
M  V30 COUNTS 46 50 0 0 0
M  V30 BEGIN ATOM
M  V30 1 C 2.029538 -4.384448 4.411313 0
M  V30 2 C 2.453009 -3.412920 3.365794 0
M  V30 3 O 3.089036 -2.389890 3.679214 0
M  V30 4 N 2.098201 -3.713094 2.022605 0
M  V30 5 C 2.364578 -2.976809 0.824408 0
M  V30 6 C 3.519717 -3.250015 0.150626 0
M  V30 7 C 3.783062 -2.555545 -0.990263 0
M  V30 8 C 2.893981 -1.592911 -1.453218 0
M  V30 9 C 2.931079 -0.760423 -2.572403 0
M  V30 10 C 1.777746 0.010578 -2.549672 0
M  V30 11 N 1.045183 -0.323240 -1.460822 0
M  V30 12 C -0.205410 0.151375 -0.964675 0
M  V30 13 C -0.398658 0.962131 0.135322 0
M  V30 14 C -1.667323 1.352690 0.512452 0
M  V30 15 N -1.835413 2.185822 1.646662 0
M  V30 16 C -0.679173 2.598310 2.368927 0
M  V30 17 C -1.063060 3.487458 3.553060 0
M  V30 18 O -1.278777 2.284389 4.261877 0
M  V30 19 C -0.215401 1.769035 3.518955 0
M  V30 20 N -2.718910 0.914771 -0.231919 0
M  V30 21 N -4.006131 1.153972 -0.067267 0
M  V30 22 C -4.709013 0.513731 -1.047109 0
M  V30 23 C -3.796918 -0.145019 -1.842742 0
M  V30 24 C -4.015091 -0.967281 -3.012214 0
M  V30 25 N -4.177611 -1.625235 -3.945560 0
M  V30 26 C -2.541255 0.123580 -1.306802 0
M  V30 27 N -1.300775 -0.256275 -1.672734 0
M  V30 28 C 1.717716 -1.287902 -0.802083 0
M  V30 29 C 1.495105 -2.014060 0.343824 0
M  V30 30 H 1.150722 -3.996671 4.993807 0
M  V30 31 H 1.690491 -5.337416 3.980899 0
M  V30 32 H 2.839620 -4.599998 5.133740 0
M  V30 33 H 1.559712 -4.589652 1.802152 0
M  V30 34 H 4.194728 -3.992228 0.516930 0
M  V30 35 H 4.697337 -2.759401 -1.539711 0
M  V30 36 H 3.682207 -0.688549 -3.336080 0
M  V30 37 H 1.442692 0.771556 -3.243659 0
M  V30 38 H 0.473188 1.258811 0.660306 0
M  V30 39 H -2.808073 2.457087 1.896944 0
M  V30 40 H 0.141585 3.040158 1.768128 0
M  V30 41 H -0.180676 3.988398 4.000655 0
M  V30 42 H -1.974845 4.087618 3.413672 0
M  V30 43 H -0.188154 0.675630 3.396020 0
M  V30 44 H 0.720459 2.216233 3.931818 0
M  V30 45 H -5.751688 0.430828 -1.297704 0
M  V30 46 H 0.609961 -1.861648 0.934429 0
M  V30 END ATOM
M  V30 BEGIN BOND
M  V30 1 1 1 2
M  V30 2 2 2 3
M  V30 3 1 2 4
M  V30 4 1 4 5
M  V30 5 2 5 6
M  V30 6 1 6 7
M  V30 7 2 7 8
M  V30 8 1 8 9
M  V30 9 2 9 10
M  V30 10 1 10 11
M  V30 11 1 11 12
M  V30 12 1 12 13
M  V30 13 2 13 14
M  V30 14 1 14 15
M  V30 15 1 15 16
M  V30 16 1 16 17
M  V30 17 1 17 18
M  V30 18 1 18 19
M  V30 19 1 14 20
M  V30 20 1 20 21
M  V30 21 2 21 22
M  V30 22 1 22 23
M  V30 23 1 23 24
M  V30 24 3 24 25
M  V30 25 2 23 26
M  V30 26 1 26 27
M  V30 27 1 11 28
M  V30 28 2 28 29
M  V30 29 1 29 5
M  V30 30 1 28 8
M  V30 31 2 27 12
M  V30 32 1 19 16
M  V30 33 1 26 20
M  V30 34 1 1 30
M  V30 35 1 1 31
M  V30 36 1 1 32
M  V30 37 1 4 33
M  V30 38 1 6 34
M  V30 39 1 7 35
M  V30 40 1 9 36
M  V30 41 1 10 37
M  V30 42 1 13 38
M  V30 43 1 15 39
M  V30 44 1 16 40
M  V30 45 1 17 41
M  V30 46 1 17 42
M  V30 47 1 19 43
M  V30 48 1 19 44
M  V30 49 1 22 45
M  V30 50 1 29 46
M  V30 END BOND
M  V30 END CTAB
M  END
>  <Dataset>  (397) 
ChEMBL_Kinases

>  <Ligand_Instance>  (397) 
nan

>  <PDB_ID>  (397) 
nan

>  <Standardized_SMILES>  (397) 
CC(=O)Nc1ccc2ccn(-c3cc(NC4COC4)n4ncc(C#N)c4n3)c2c1

>  <Name>  (397) 
nan

>  <Pocket>  (397) 
nan

>  <ATP_Site>  (397) 
nan

>  <Peripheral>  (397) 
nan

>  <Num_H_Atoms_ProtBoundConf>  (397) 
nan

>  <Num_Resolved_Atoms>  (397) 
nan

>  <Num_Not_Resolved_Atoms>  (397) 
nan

$$$$
CHEMBL2062572
     RDKit          3D

  0  0  0  0  0  0  0  0  0  0999 V3000
M  V30 BEGIN CTAB
M  V30 COUNTS 51 54 0 0 0
M  V30 BEGIN ATOM
M  V30 1 C -1.936641 -4.162905 4.134906 0
M  V30 2 C -0.770150 -3.268799 4.026099 0
M  V30 3 O -0.754056 -2.127271 4.568826 0
M  V30 4 N 0.387846 -3.673969 3.294542 0
M  V30 5 C 1.447692 -2.718260 3.265658 0
M  V30 6 C 2.475093 -2.670225 4.183895 0
M  V30 7 C 3.489563 -1.740310 4.149669 0
M  V30 8 C 3.477359 -0.794678 3.130310 0
M  V30 9 C 4.319924 0.260126 2.804163 0
M  V30 10 C 3.808869 0.865270 1.678581 0
M  V30 11 N 2.677546 0.218399 1.297368 0
M  V30 12 C 1.774095 0.434588 0.190943 0
M  V30 13 C 0.845050 1.418718 0.022752 0
M  V30 14 C 0.070740 1.450096 -1.130132 0
M  V30 15 N -0.902830 2.468674 -1.282590 0
M  V30 16 C -2.340502 2.592238 -1.323436 0
M  V30 17 C -3.055045 2.017015 -0.140440 0
M  V30 18 C -2.808384 0.531749 0.013577 0
M  V30 19 C -3.286991 -0.227703 -1.207119 0
M  V30 20 O -3.013777 -1.574703 -0.986365 0
M  V30 21 N 0.253138 0.501284 -2.066066 0
M  V30 22 N -0.307330 0.248857 -3.245734 0
M  V30 23 C 0.228071 -0.844353 -3.816876 0
M  V30 24 C 1.183191 -1.322131 -2.960175 0
M  V30 25 C 2.048074 -2.484906 -3.098478 0
M  V30 26 N 2.720365 -3.422798 -3.208162 0
M  V30 27 C 1.195669 -0.465018 -1.851684 0
M  V30 28 N 1.960314 -0.516944 -0.741474 0
M  V30 29 C 2.455989 -0.805042 2.176834 0
M  V30 30 C 1.455465 -1.759152 2.249747 0
M  V30 31 H -1.699938 -5.146629 4.621554 0
M  V30 32 H -2.358733 -4.448855 3.146730 0
M  V30 33 H -2.744238 -3.626551 4.681374 0
M  V30 34 H 0.440414 -4.611471 2.819751 0
M  V30 35 H 2.426902 -3.445179 4.965582 0
M  V30 36 H 4.288276 -1.744365 4.903903 0
M  V30 37 H 5.198386 0.526519 3.349174 0
M  V30 38 H 4.187913 1.715473 1.134212 0
M  V30 39 H 0.788564 2.124256 0.837288 0
M  V30 40 H -0.309888 3.340257 -1.387299 0
M  V30 41 H -2.752984 2.165227 -2.281926 0
M  V30 42 H -2.589842 3.667633 -1.384104 0
M  V30 43 H -2.749328 2.573963 0.763668 0
M  V30 44 H -4.144670 2.183256 -0.244141 0
M  V30 45 H -3.430313 0.178969 0.865195 0
M  V30 46 H -1.778871 0.247952 0.183209 0
M  V30 47 H -4.401554 -0.148250 -1.186819 0
M  V30 48 H -2.866585 0.121260 -2.149498 0
M  V30 49 H -2.991892 -2.111509 -1.798534 0
M  V30 50 H 0.000613 -1.315845 -4.764734 0
M  V30 51 H 0.637123 -1.800665 1.520939 0
M  V30 END ATOM
M  V30 BEGIN BOND
M  V30 1 1 1 2
M  V30 2 2 2 3
M  V30 3 1 2 4
M  V30 4 1 4 5
M  V30 5 2 5 6
M  V30 6 1 6 7
M  V30 7 2 7 8
M  V30 8 1 8 9
M  V30 9 2 9 10
M  V30 10 1 10 11
M  V30 11 1 11 12
M  V30 12 1 12 13
M  V30 13 2 13 14
M  V30 14 1 14 15
M  V30 15 1 15 16
M  V30 16 1 16 17
M  V30 17 1 17 18
M  V30 18 1 18 19
M  V30 19 1 19 20
M  V30 20 1 14 21
M  V30 21 1 21 22
M  V30 22 2 22 23
M  V30 23 1 23 24
M  V30 24 1 24 25
M  V30 25 3 25 26
M  V30 26 2 24 27
M  V30 27 1 27 28
M  V30 28 1 11 29
M  V30 29 2 29 30
M  V30 30 1 30 5
M  V30 31 1 29 8
M  V30 32 2 28 12
M  V30 33 1 27 21
M  V30 34 1 1 31
M  V30 35 1 1 32
M  V30 36 1 1 33
M  V30 37 1 4 34
M  V30 38 1 6 35
M  V30 39 1 7 36
M  V30 40 1 9 37
M  V30 41 1 10 38
M  V30 42 1 13 39
M  V30 43 1 15 40
M  V30 44 1 16 41
M  V30 45 1 16 42
M  V30 46 1 17 43
M  V30 47 1 17 44
M  V30 48 1 18 45
M  V30 49 1 18 46
M  V30 50 1 19 47
M  V30 51 1 19 48
M  V30 52 1 20 49
M  V30 53 1 23 50
M  V30 54 1 30 51
M  V30 END BOND
M  V30 END CTAB
M  END
>  <Dataset>  (398) 
ChEMBL_Kinases

>  <Ligand_Instance>  (398) 
nan

>  <PDB_ID>  (398) 
nan

>  <Standardized_SMILES>  (398) 
CC(=O)Nc1ccc2ccn(-c3cc(NCCCCO)n4ncc(C#N)c4n3)c2c1

>  <Name>  (398) 
nan

>  <Pocket>  (398) 
nan

>  <ATP_Site>  (398) 
nan

>  <Peripheral>  (398) 
nan

>  <Num_H_Atoms_ProtBoundConf>  (398) 
nan

>  <Num_Resolved_Atoms>  (398) 
nan

>  <Num_Not_Resolved_Atoms>  (398) 
nan

$$$$
CHEMBL2062573
     RDKit          3D

  0  0  0  0  0  0  0  0  0  0999 V3000
M  V30 BEGIN CTAB
M  V30 COUNTS 57 61 0 0 0
M  V30 BEGIN ATOM
M  V30 1 C 4.710429 -2.004836 5.917975 0
M  V30 2 C 4.418212 -0.905372 4.957244 0
M  V30 3 O 4.009511 0.277622 5.108036 0
M  V30 4 N 4.661967 -1.311994 3.608734 0
M  V30 5 C 4.514363 -0.584272 2.398318 0
M  V30 6 C 5.564930 0.154289 1.887299 0
M  V30 7 C 5.364937 0.842593 0.706329 0
M  V30 8 C 4.137208 0.774339 0.077829 0
M  V30 9 C 3.747634 1.385880 -1.098201 0
M  V30 10 C 2.440557 1.008161 -1.297031 0
M  V30 11 N 2.031562 0.202223 -0.298634 0
M  V30 12 C 0.804960 -0.465121 -0.002849 0
M  V30 13 C -0.330724 0.154571 0.517880 0
M  V30 14 C -1.472427 -0.608068 0.764888 0
M  V30 15 N -2.612269 0.049799 1.295877 0
M  V30 16 C -3.785481 0.740333 0.819641 0
M  V30 17 C -4.590587 -0.188146 -0.031242 0
M  V30 18 N -3.829602 -0.643182 -1.153978 0
M  V30 19 C -4.605172 -1.557231 -1.983453 0
M  V30 20 C -4.300275 -1.405434 -3.450602 0
M  V30 21 O -4.554279 -0.146907 -3.942440 0
M  V30 22 C -4.493915 0.829109 -2.927067 0
M  V30 23 C -3.341741 0.395824 -2.020291 0
M  V30 24 N -1.483287 -1.949471 0.501079 0
M  V30 25 N -2.418449 -2.879557 0.642987 0
M  V30 26 C -1.887562 -4.058030 0.222526 0
M  V30 27 C -0.586504 -3.864755 -0.194150 0
M  V30 28 C 0.371153 -4.799718 -0.715476 0
M  V30 29 N 1.135404 -5.550724 -1.152708 0
M  V30 30 C -0.368307 -2.513703 -0.001338 0
M  V30 31 N 0.744252 -1.791621 -0.246278 0
M  V30 32 C 3.065369 0.046896 0.558967 0
M  V30 33 C 3.298682 -0.633146 1.747057 0
M  V30 34 H 4.581328 -1.611734 6.949973 0
M  V30 35 H 4.004422 -2.868186 5.804705 0
M  V30 36 H 5.761905 -2.381352 5.820514 0
M  V30 37 H 5.005950 -2.257846 3.271245 0
M  V30 38 H 6.477649 0.134221 2.463835 0
M  V30 39 H 6.198223 1.414784 0.322016 0
M  V30 40 H 4.334412 2.031307 -1.742712 0
M  V30 41 H 1.762346 1.270134 -2.106413 0
M  V30 42 H -0.253213 1.211250 0.701627 0
M  V30 43 H -2.363993 -0.108307 2.315581 0
M  V30 44 H -3.606813 1.728769 0.389865 0
M  V30 45 H -4.400019 0.914883 1.757442 0
M  V30 46 H -5.503467 0.361209 -0.384113 0
M  V30 47 H -4.869357 -1.054694 0.604644 0
M  V30 48 H -5.692965 -1.395587 -1.846414 0
M  V30 49 H -4.386538 -2.597895 -1.693028 0
M  V30 50 H -4.975395 -2.107346 -3.980815 0
M  V30 51 H -3.252212 -1.708968 -3.689675 0
M  V30 52 H -5.444419 0.771281 -2.372806 0
M  V30 53 H -4.295980 1.831642 -3.360474 0
M  V30 54 H -2.558389 -0.070882 -2.677235 0
M  V30 55 H -2.919376 1.222757 -1.434777 0
M  V30 56 H -2.376801 -5.023288 0.201399 0
M  V30 57 H 2.474169 -1.220254 2.159779 0
M  V30 END ATOM
M  V30 BEGIN BOND
M  V30 1 1 1 2
M  V30 2 2 2 3
M  V30 3 1 2 4
M  V30 4 1 4 5
M  V30 5 2 5 6
M  V30 6 1 6 7
M  V30 7 2 7 8
M  V30 8 1 8 9
M  V30 9 2 9 10
M  V30 10 1 10 11
M  V30 11 1 11 12
M  V30 12 1 12 13
M  V30 13 2 13 14
M  V30 14 1 14 15
M  V30 15 1 15 16
M  V30 16 1 16 17
M  V30 17 1 17 18
M  V30 18 1 18 19
M  V30 19 1 19 20
M  V30 20 1 20 21
M  V30 21 1 21 22
M  V30 22 1 22 23
M  V30 23 1 14 24
M  V30 24 1 24 25
M  V30 25 2 25 26
M  V30 26 1 26 27
M  V30 27 1 27 28
M  V30 28 3 28 29
M  V30 29 2 27 30
M  V30 30 1 30 31
M  V30 31 1 11 32
M  V30 32 2 32 33
M  V30 33 1 33 5
M  V30 34 1 32 8
M  V30 35 2 31 12
M  V30 36 1 23 18
M  V30 37 1 30 24
M  V30 38 1 1 34
M  V30 39 1 1 35
M  V30 40 1 1 36
M  V30 41 1 4 37
M  V30 42 1 6 38
M  V30 43 1 7 39
M  V30 44 1 9 40
M  V30 45 1 10 41
M  V30 46 1 13 42
M  V30 47 1 15 43
M  V30 48 1 16 44
M  V30 49 1 16 45
M  V30 50 1 17 46
M  V30 51 1 17 47
M  V30 52 1 19 48
M  V30 53 1 19 49
M  V30 54 1 20 50
M  V30 55 1 20 51
M  V30 56 1 22 52
M  V30 57 1 22 53
M  V30 58 1 23 54
M  V30 59 1 23 55
M  V30 60 1 26 56
M  V30 61 1 33 57
M  V30 END BOND
M  V30 END CTAB
M  END
>  <Dataset>  (399) 
ChEMBL_Kinases

>  <Ligand_Instance>  (399) 
nan

>  <PDB_ID>  (399) 
nan

>  <Standardized_SMILES>  (399) 
CC(=O)Nc1ccc2ccn(-c3cc(NCCN4CCOCC4)n4ncc(C#N)c4n3)c2c1

>  <Name>  (399) 
nan

>  <Pocket>  (399) 
nan

>  <ATP_Site>  (399) 
nan

>  <Peripheral>  (399) 
nan

>  <Num_H_Atoms_ProtBoundConf>  (399) 
nan

>  <Num_Resolved_Atoms>  (399) 
nan

>  <Num_Not_Resolved_Atoms>  (399) 
nan

$$$$
CHEMBL2062574
     RDKit          3D

  0  0  0  0  0  0  0  0  0  0999 V3000
M  V30 BEGIN CTAB
M  V30 COUNTS 56 60 0 0 0
M  V30 BEGIN ATOM
M  V30 1 C 4.352240 -2.723281 6.454506 0
M  V30 2 C 4.914957 -1.888485 5.340647 0
M  V30 3 O 6.084307 -1.483785 5.456584 0
M  V30 4 N 4.158045 -1.570348 4.211375 0
M  V30 5 C 4.550354 -0.795577 3.098411 0
M  V30 6 C 5.761159 -0.193463 2.875281 0
M  V30 7 C 6.046078 0.546390 1.745598 0
M  V30 8 C 5.113141 0.729396 0.748892 0
M  V30 9 C 5.026356 1.362193 -0.472891 0
M  V30 10 C 3.768359 1.131381 -0.961723 0
M  V30 11 N 3.054243 0.375312 -0.095137 0
M  V30 12 C 1.716503 -0.095460 -0.254672 0
M  V30 13 C 0.461282 0.433545 -0.117175 0
M  V30 14 C -0.678896 -0.363139 -0.364124 0
M  V30 15 N -1.867950 0.386929 -0.185575 0
M  V30 16 C -3.076608 0.570015 -0.927131 0
M  V30 17 C -4.104212 -0.525597 -0.796424 0
M  V30 18 N -5.244110 -0.263116 -1.626047 0
M  V30 19 C -6.290379 -1.270322 -1.501925 0
M  V30 20 C -7.438622 -0.655278 -2.288220 0
M  V30 21 C -7.289759 0.829952 -2.027936 0
M  V30 22 C -5.967218 0.926309 -1.286066 0
M  V30 23 N -0.401262 -1.610020 -0.722631 0
M  V30 24 N -1.302314 -2.525119 -1.000071 0
M  V30 25 C -0.749023 -3.697213 -1.332875 0
M  V30 26 C 0.594044 -3.510063 -1.261191 0
M  V30 27 C 1.712392 -4.352026 -1.510083 0
M  V30 28 N 2.618612 -5.054574 -1.710012 0
M  V30 29 C 0.788919 -2.186455 -0.873631 0
M  V30 30 N 1.863738 -1.399317 -0.631086 0
M  V30 31 C 3.888839 0.145288 0.928646 0
M  V30 32 C 3.653341 -0.581294 2.074750 0
M  V30 33 H 3.952718 -3.689668 6.109138 0
M  V30 34 H 5.076015 -2.858579 7.282365 0
M  V30 35 H 3.467636 -2.184720 6.885287 0
M  V30 36 H 3.198370 -1.976145 4.233556 0
M  V30 37 H 6.534781 -0.297381 3.621066 0
M  V30 38 H 7.024000 0.990686 1.617247 0
M  V30 39 H 5.867980 1.917225 -0.881912 0
M  V30 40 H 3.465109 1.532644 -1.919649 0
M  V30 41 H 0.589696 1.481556 0.187334 0
M  V30 42 H -1.922530 0.957249 0.718719 0
M  V30 43 H -3.555010 1.564374 -0.696341 0
M  V30 44 H -2.785469 0.683962 -2.015530 0
M  V30 45 H -4.491747 -0.449752 0.282597 0
M  V30 46 H -3.738231 -1.550227 -0.868439 0
M  V30 47 H -6.554368 -1.404322 -0.450658 0
M  V30 48 H -5.983327 -2.197278 -2.015385 0
M  V30 49 H -8.409040 -1.013467 -1.983008 0
M  V30 50 H -7.297911 -0.824078 -3.386895 0
M  V30 51 H -8.116438 1.231412 -1.415885 0
M  V30 52 H -7.219481 1.425989 -2.932770 0
M  V30 53 H -6.215093 1.006446 -0.194167 0
M  V30 54 H -5.426465 1.835226 -1.631381 0
M  V30 55 H -1.202977 -4.636969 -1.604727 0
M  V30 56 H 2.648730 -1.042823 2.194220 0
M  V30 END ATOM
M  V30 BEGIN BOND
M  V30 1 1 1 2
M  V30 2 2 2 3
M  V30 3 1 2 4
M  V30 4 1 4 5
M  V30 5 2 5 6
M  V30 6 1 6 7
M  V30 7 2 7 8
M  V30 8 1 8 9
M  V30 9 2 9 10
M  V30 10 1 10 11
M  V30 11 1 11 12
M  V30 12 1 12 13
M  V30 13 2 13 14
M  V30 14 1 14 15
M  V30 15 1 15 16
M  V30 16 1 16 17
M  V30 17 1 17 18
M  V30 18 1 18 19
M  V30 19 1 19 20
M  V30 20 1 20 21
M  V30 21 1 21 22
M  V30 22 1 14 23
M  V30 23 1 23 24
M  V30 24 2 24 25
M  V30 25 1 25 26
M  V30 26 1 26 27
M  V30 27 3 27 28
M  V30 28 2 26 29
M  V30 29 1 29 30
M  V30 30 1 11 31
M  V30 31 2 31 32
M  V30 32 1 32 5
M  V30 33 1 31 8
M  V30 34 2 30 12
M  V30 35 1 22 18
M  V30 36 1 29 23
M  V30 37 1 1 33
M  V30 38 1 1 34
M  V30 39 1 1 35
M  V30 40 1 4 36
M  V30 41 1 6 37
M  V30 42 1 7 38
M  V30 43 1 9 39
M  V30 44 1 10 40
M  V30 45 1 13 41
M  V30 46 1 15 42
M  V30 47 1 16 43
M  V30 48 1 16 44
M  V30 49 1 17 45
M  V30 50 1 17 46
M  V30 51 1 19 47
M  V30 52 1 19 48
M  V30 53 1 20 49
M  V30 54 1 20 50
M  V30 55 1 21 51
M  V30 56 1 21 52
M  V30 57 1 22 53
M  V30 58 1 22 54
M  V30 59 1 25 55
M  V30 60 1 32 56
M  V30 END BOND
M  V30 END CTAB
M  END
>  <Dataset>  (400) 
ChEMBL_Kinases

>  <Ligand_Instance>  (400) 
nan

>  <PDB_ID>  (400) 
nan

>  <Standardized_SMILES>  (400) 
CC(=O)Nc1ccc2ccn(-c3cc(NCCN4CCCC4)n4ncc(C#N)c4n3)c2c1

>  <Name>  (400) 
nan

>  <Pocket>  (400) 
nan

>  <ATP_Site>  (400) 
nan

>  <Peripheral>  (400) 
nan

>  <Num_H_Atoms_ProtBoundConf>  (400) 
nan

>  <Num_Resolved_Atoms>  (400) 
nan

>  <Num_Not_Resolved_Atoms>  (400) 
nan

$$$$
CHEMBL2062576
     RDKit          3D

  0  0  0  0  0  0  0  0  0  0999 V3000
M  V30 BEGIN CTAB
M  V30 COUNTS 59 63 0 0 0
M  V30 BEGIN ATOM
M  V30 1 C 5.067622 -2.230328 6.536108 0
M  V30 2 C 4.819665 -1.010567 5.687685 0
M  V30 3 O 4.422434 0.088512 6.121735 0
M  V30 4 N 5.077895 -1.193594 4.289501 0
M  V30 5 C 4.974244 -0.314881 3.151562 0
M  V30 6 C 5.954415 0.510434 2.665662 0
M  V30 7 C 5.723503 1.298514 1.565707 0
M  V30 8 C 4.495292 1.294200 0.902164 0
M  V30 9 C 4.015224 1.970572 -0.195821 0
M  V30 10 C 2.706777 1.530966 -0.365703 0
M  V30 11 N 2.399681 0.627826 0.583582 0
M  V30 12 C 1.190769 -0.097137 0.819719 0
M  V30 13 C -0.105467 0.375426 0.842361 0
M  V30 14 C -1.124420 -0.517089 1.097241 0
M  V30 15 N -2.433494 0.009452 1.109376 0
M  V30 16 C -3.448712 0.124799 0.103047 0
M  V30 17 C -3.878375 -1.234477 -0.422063 0
M  V30 18 C -4.925621 -1.101704 -1.455241 0
M  V30 19 N -4.622939 -0.372995 -2.622601 0
M  V30 20 C -5.684014 -0.269092 -3.588702 0
M  V30 21 C -5.070881 -0.264287 -4.965879 0
M  V30 22 C -3.603835 -0.524712 -4.776913 0
M  V30 23 C -3.409699 -0.651957 -3.287039 0
M  V30 24 N -0.928209 -1.840511 1.328108 0
M  V30 25 N -1.713192 -2.862408 1.585592 0
M  V30 26 C -0.936049 -3.951533 1.722106 0
M  V30 27 C 0.390899 -3.626263 1.547789 0
M  V30 28 C 1.573970 -4.439629 1.595659 0
M  V30 29 N 2.523809 -5.098297 1.620920 0
M  V30 30 C 0.354399 -2.271523 1.298443 0
M  V30 31 N 1.375240 -1.429173 1.053189 0
M  V30 32 C 3.506461 0.482573 1.366705 0
M  V30 33 C 3.741824 -0.321746 2.488850 0
M  V30 34 H 4.269052 -2.256906 7.327643 0
M  V30 35 H 6.075220 -2.139853 6.974353 0
M  V30 36 H 4.909322 -3.153611 5.939758 0
M  V30 37 H 5.412115 -2.105613 3.911438 0
M  V30 38 H 6.894389 0.485153 3.208011 0
M  V30 39 H 6.524429 1.920970 1.234623 0
M  V30 40 H 4.539475 2.686877 -0.794395 0
M  V30 41 H 2.024377 1.841686 -1.121532 0
M  V30 42 H -0.194448 1.415659 0.655538 0
M  V30 43 H -2.547776 0.341385 2.099678 0
M  V30 44 H -3.145709 0.819050 -0.701263 0
M  V30 45 H -4.350245 0.561534 0.577028 0
M  V30 46 H -3.034187 -1.889823 -0.686086 0
M  V30 47 H -4.372659 -1.736205 0.463950 0
M  V30 48 H -5.806300 -0.607919 -0.960558 0
M  V30 49 H -5.286828 -2.120388 -1.741201 0
M  V30 50 H -6.309096 -1.184407 -3.501613 0
M  V30 51 H -6.367735 0.585841 -3.408479 0
M  V30 52 H -5.242269 0.750387 -5.398039 0
M  V30 53 H -5.517213 -1.017080 -5.642166 0
M  V30 54 H -3.001098 0.286880 -5.236915 0
M  V30 55 H -3.282483 -1.452734 -5.324392 0
M  V30 56 H -3.142271 -1.721898 -3.055551 0
M  V30 57 H -2.525364 -0.057408 -3.009237 0
M  V30 58 H -1.229425 -4.986930 1.940851 0
M  V30 59 H 2.946378 -0.968954 2.855248 0
M  V30 END ATOM
M  V30 BEGIN BOND
M  V30 1 1 1 2
M  V30 2 2 2 3
M  V30 3 1 2 4
M  V30 4 1 4 5
M  V30 5 2 5 6
M  V30 6 1 6 7
M  V30 7 2 7 8
M  V30 8 1 8 9
M  V30 9 2 9 10
M  V30 10 1 10 11
M  V30 11 1 11 12
M  V30 12 1 12 13
M  V30 13 2 13 14
M  V30 14 1 14 15
M  V30 15 1 15 16
M  V30 16 1 16 17
M  V30 17 1 17 18
M  V30 18 1 18 19
M  V30 19 1 19 20
M  V30 20 1 20 21
M  V30 21 1 21 22
M  V30 22 1 22 23
M  V30 23 1 14 24
M  V30 24 1 24 25
M  V30 25 2 25 26
M  V30 26 1 26 27
M  V30 27 1 27 28
M  V30 28 3 28 29
M  V30 29 2 27 30
M  V30 30 1 30 31
M  V30 31 1 11 32
M  V30 32 2 32 33
M  V30 33 1 33 5
M  V30 34 1 32 8
M  V30 35 2 31 12
M  V30 36 1 23 19
M  V30 37 1 30 24
M  V30 38 1 1 34
M  V30 39 1 1 35
M  V30 40 1 1 36
M  V30 41 1 4 37
M  V30 42 1 6 38
M  V30 43 1 7 39
M  V30 44 1 9 40
M  V30 45 1 10 41
M  V30 46 1 13 42
M  V30 47 1 15 43
M  V30 48 1 16 44
M  V30 49 1 16 45
M  V30 50 1 17 46
M  V30 51 1 17 47
M  V30 52 1 18 48
M  V30 53 1 18 49
M  V30 54 1 20 50
M  V30 55 1 20 51
M  V30 56 1 21 52
M  V30 57 1 21 53
M  V30 58 1 22 54
M  V30 59 1 22 55
M  V30 60 1 23 56
M  V30 61 1 23 57
M  V30 62 1 26 58
M  V30 63 1 33 59
M  V30 END BOND
M  V30 END CTAB
M  END
>  <Dataset>  (401) 
ChEMBL_Kinases

>  <Ligand_Instance>  (401) 
nan

>  <PDB_ID>  (401) 
nan

>  <Standardized_SMILES>  (401) 
CC(=O)Nc1ccc2ccn(-c3cc(NCCCN4CCCC4)n4ncc(C#N)c4n3)c2c1

>  <Name>  (401) 
nan

>  <Pocket>  (401) 
nan

>  <ATP_Site>  (401) 
nan

>  <Peripheral>  (401) 
nan

>  <Num_H_Atoms_ProtBoundConf>  (401) 
nan

>  <Num_Resolved_Atoms>  (401) 
nan

>  <Num_Not_Resolved_Atoms>  (401) 
nan

$$$$
CHEMBL2062578
     RDKit          3D

  0  0  0  0  0  0  0  0  0  0999 V3000
M  V30 BEGIN CTAB
M  V30 COUNTS 42 46 0 0 0
M  V30 BEGIN ATOM
M  V30 1 N 5.256524 -4.241297 1.077409 0
M  V30 2 C 4.816251 -3.384547 0.408348 0
M  V30 3 C 4.295241 -2.315564 -0.419644 0
M  V30 4 C 4.935131 -1.611764 -1.420296 0
M  V30 5 N 4.021080 -0.722011 -1.886828 0
M  V30 6 N 2.885790 -0.860059 -1.222585 0
M  V30 7 C 1.720258 -0.202963 -1.339815 0
M  V30 8 N 1.546180 0.831194 -2.293744 0
M  V30 9 C 0.353060 1.623219 -2.533187 0
M  V30 10 C -0.916417 0.934781 -2.943335 0
M  V30 11 C -0.166415 1.772998 -3.921877 0
M  V30 12 C 0.695041 -0.572966 -0.494533 0
M  V30 13 C 0.789638 -1.578081 0.467175 0
M  V30 14 N -0.306168 -1.914023 1.311094 0
M  V30 15 C -1.068666 -2.989473 0.995984 0
M  V30 16 C -2.062942 -3.107316 1.962157 0
M  V30 17 C -1.841228 -2.070768 2.829775 0
M  V30 18 C -2.480989 -1.641503 3.992930 0
M  V30 19 C -2.078514 -0.534314 4.737651 0
M  V30 20 C -0.976406 0.133878 4.242996 0
M  V30 21 C -0.506770 1.335003 5.014594 0
M  V30 22 O 0.435246 0.954298 5.983727 0
M  V30 23 C -0.279020 -0.213244 3.104584 0
M  V30 24 C -0.756382 -1.323449 2.438916 0
M  V30 25 N 1.994642 -2.181417 0.512332 0
M  V30 26 C 3.006946 -1.834865 -0.303506 0
M  V30 27 H 5.962681 -1.853604 -1.654558 0
M  V30 28 H 2.342246 1.085853 -2.917407 0
M  V30 29 H 0.166746 2.522474 -1.881345 0
M  V30 30 H -0.939213 -0.147297 -3.167349 0
M  V30 31 H -1.894504 1.310293 -2.563439 0
M  V30 32 H -0.686627 2.688780 -4.243906 0
M  V30 33 H 0.432360 1.303573 -4.726514 0
M  V30 34 H -0.253506 -0.031997 -0.596154 0
M  V30 35 H -1.003738 -3.686911 0.176954 0
M  V30 36 H -2.839473 -3.848189 2.021147 0
M  V30 37 H -3.345991 -2.251108 4.289860 0
M  V30 38 H -2.604590 -0.249596 5.620932 0
M  V30 39 H -1.346028 1.911317 5.442186 0
M  V30 40 H 0.040249 2.019744 4.329092 0
M  V30 41 H -0.044269 0.820400 6.847177 0
M  V30 42 H 0.567438 0.327972 2.754717 0
M  V30 END ATOM
M  V30 BEGIN BOND
M  V30 1 3 1 2
M  V30 2 1 2 3
M  V30 3 1 3 4
M  V30 4 2 4 5
M  V30 5 1 5 6
M  V30 6 1 6 7
M  V30 7 1 7 8
M  V30 8 1 8 9
M  V30 9 1 9 10
M  V30 10 1 10 11
M  V30 11 2 7 12
M  V30 12 1 12 13
M  V30 13 1 13 14
M  V30 14 1 14 15
M  V30 15 2 15 16
M  V30 16 1 16 17
M  V30 17 2 17 18
M  V30 18 1 18 19
M  V30 19 2 19 20
M  V30 20 1 20 21
M  V30 21 1 21 22
M  V30 22 1 20 23
M  V30 23 2 23 24
M  V30 24 2 13 25
M  V30 25 1 25 26
M  V30 26 2 26 3
M  V30 27 1 26 6
M  V30 28 1 11 9
M  V30 29 1 24 14
M  V30 30 1 24 17
M  V30 31 1 4 27
M  V30 32 1 8 28
M  V30 33 1 9 29
M  V30 34 1 10 30
M  V30 35 1 10 31
M  V30 36 1 11 32
M  V30 37 1 11 33
M  V30 38 1 12 34
M  V30 39 1 15 35
M  V30 40 1 16 36
M  V30 41 1 18 37
M  V30 42 1 19 38
M  V30 43 1 21 39
M  V30 44 1 21 40
M  V30 45 1 22 41
M  V30 46 1 23 42
M  V30 END BOND
M  V30 END CTAB
M  END
>  <Dataset>  (402) 
ChEMBL_Kinases

>  <Ligand_Instance>  (402) 
nan

>  <PDB_ID>  (402) 
nan

>  <Standardized_SMILES>  (402) 
N#Cc1cnn2c(NC3CC3)cc(-n3ccc4ccc(CO)cc43)nc12

>  <Name>  (402) 
nan

>  <Pocket>  (402) 
nan

>  <ATP_Site>  (402) 
nan

>  <Peripheral>  (402) 
nan

>  <Num_H_Atoms_ProtBoundConf>  (402) 
nan

>  <Num_Resolved_Atoms>  (402) 
nan

>  <Num_Not_Resolved_Atoms>  (402) 
nan

$$$$
CHEMBL2062579
     RDKit          3D

  0  0  0  0  0  0  0  0  0  0999 V3000
M  V30 BEGIN CTAB
M  V30 COUNTS 47 51 0 0 0
M  V30 BEGIN ATOM
M  V30 1 C 1.831508 -1.748232 6.088342 0
M  V30 2 S 2.276560 -1.494346 4.394183 0
M  V30 3 O 3.670264 -2.027484 4.148898 0
M  V30 4 O 1.344763 -2.238446 3.501181 0
M  V30 5 C 2.301237 0.249363 3.968576 0
M  V30 6 C 2.682328 0.403473 2.530120 0
M  V30 7 C 4.003313 0.537690 2.134553 0
M  V30 8 C 4.339376 0.679826 0.794726 0
M  V30 9 C 3.306074 0.683538 -0.143123 0
M  V30 10 C 3.288338 0.802674 -1.525548 0
M  V30 11 C 1.958153 0.735063 -1.902297 0
M  V30 12 N 1.171350 0.580074 -0.805569 0
M  V30 13 C -0.252390 0.479239 -0.882132 0
M  V30 14 C -0.965326 -0.579801 -0.348773 0
M  V30 15 C -2.338110 -0.679408 -0.421259 0
M  V30 16 N -3.010039 -1.796900 0.149092 0
M  V30 17 C -2.303287 -2.847337 0.811037 0
M  V30 18 C -1.288048 -3.694176 0.196787 0
M  V30 19 C -2.694849 -4.233555 0.326883 0
M  V30 20 N -3.033281 0.292206 -1.037331 0
M  V30 21 N -4.329896 0.438364 -1.241987 0
M  V30 22 C -4.577279 1.590642 -1.918411 0
M  V30 23 C -3.319278 2.151929 -2.118404 0
M  V30 24 C -3.105613 3.405753 -2.809090 0
M  V30 25 N -2.931885 4.434155 -3.354667 0
M  V30 26 C -2.353870 1.329431 -1.561469 0
M  V30 27 N -1.000206 1.438132 -1.495929 0
M  V30 28 C 1.988860 0.548578 0.264230 0
M  V30 29 C 1.646470 0.406883 1.593497 0
M  V30 30 H 2.591305 -2.375192 6.607630 0
M  V30 31 H 0.841472 -2.266455 6.182692 0
M  V30 32 H 1.800827 -0.792811 6.646040 0
M  V30 33 H 2.995008 0.790694 4.627720 0
M  V30 34 H 1.278778 0.626973 4.151823 0
M  V30 35 H 4.801574 0.533899 2.869823 0
M  V30 36 H 5.360907 0.786664 0.453777 0
M  V30 37 H 4.173314 0.923767 -2.148344 0
M  V30 38 H 1.652406 0.801770 -2.932721 0
M  V30 39 H -0.348801 -1.330857 0.134882 0
M  V30 40 H -4.050126 -1.857123 0.085444 0
M  V30 41 H -2.282579 -2.773916 1.932921 0
M  V30 42 H -0.945707 -3.603162 -0.839972 0
M  V30 43 H -0.492438 -4.121524 0.854904 0
M  V30 44 H -2.827376 -5.038057 1.061473 0
M  V30 45 H -3.315120 -4.324141 -0.601245 0
M  V30 46 H -5.557039 1.926012 -2.200549 0
M  V30 47 H 0.608445 0.301859 1.899183 0
M  V30 END ATOM
M  V30 BEGIN BOND
M  V30 1 1 1 2
M  V30 2 2 2 3
M  V30 3 2 2 4
M  V30 4 1 2 5
M  V30 5 1 5 6
M  V30 6 2 6 7
M  V30 7 1 7 8
M  V30 8 2 8 9
M  V30 9 1 9 10
M  V30 10 2 10 11
M  V30 11 1 11 12
M  V30 12 1 12 13
M  V30 13 1 13 14
M  V30 14 2 14 15
M  V30 15 1 15 16
M  V30 16 1 16 17
M  V30 17 1 17 18
M  V30 18 1 18 19
M  V30 19 1 15 20
M  V30 20 1 20 21
M  V30 21 2 21 22
M  V30 22 1 22 23
M  V30 23 1 23 24
M  V30 24 3 24 25
M  V30 25 2 23 26
M  V30 26 1 26 27
M  V30 27 1 12 28
M  V30 28 2 28 29
M  V30 29 1 29 6
M  V30 30 1 28 9
M  V30 31 2 27 13
M  V30 32 1 19 17
M  V30 33 1 26 20
M  V30 34 1 1 30
M  V30 35 1 1 31
M  V30 36 1 1 32
M  V30 37 1 5 33
M  V30 38 1 5 34
M  V30 39 1 7 35
M  V30 40 1 8 36
M  V30 41 1 10 37
M  V30 42 1 11 38
M  V30 43 1 14 39
M  V30 44 1 16 40
M  V30 45 1 17 41
M  V30 46 1 18 42
M  V30 47 1 18 43
M  V30 48 1 19 44
M  V30 49 1 19 45
M  V30 50 1 22 46
M  V30 51 1 29 47
M  V30 END BOND
M  V30 END CTAB
M  END
>  <Dataset>  (403) 
ChEMBL_Kinases

>  <Ligand_Instance>  (403) 
nan

>  <PDB_ID>  (403) 
nan

>  <Standardized_SMILES>  (403) 
CS(=O)(=O)Cc1ccc2ccn(-c3cc(NC4CC4)n4ncc(C#N)c4n3)c2c1

>  <Name>  (403) 
nan

>  <Pocket>  (403) 
nan

>  <ATP_Site>  (403) 
nan

>  <Peripheral>  (403) 
nan

>  <Num_H_Atoms_ProtBoundConf>  (403) 
nan

>  <Num_Resolved_Atoms>  (403) 
nan

>  <Num_Not_Resolved_Atoms>  (403) 
nan

$$$$
CHEMBL2062569
     RDKit          3D

  0  0  0  0  0  0  0  0  0  0999 V3000
M  V30 BEGIN CTAB
M  V30 COUNTS 48 52 0 0 0
M  V30 BEGIN ATOM
M  V30 1 C -2.687950 -4.931227 2.681154 0
M  V30 2 C -1.394146 -4.368410 2.164271 0
M  V30 3 O -0.800547 -4.672216 1.107699 0
M  V30 4 N -0.708317 -3.363377 2.920622 0
M  V30 5 C 0.498843 -2.981491 2.229525 0
M  V30 6 C 0.382689 -1.935583 1.330450 0
M  V30 7 C 1.492015 -1.490921 0.611778 0
M  V30 8 C 2.700920 -2.119339 0.821230 0
M  V30 9 C 3.654338 -1.529500 0.018346 0
M  V30 10 C 2.977543 -0.536308 -0.670935 0
M  V30 11 N 1.684182 -0.510038 -0.318831 0
M  V30 12 C 0.617494 0.326965 -0.755612 0
M  V30 13 C 0.179025 1.436128 -0.064549 0
M  V30 14 C -0.838829 2.284587 -0.423897 0
M  V30 15 N -1.262367 3.408555 0.329752 0
M  V30 16 C -0.934700 4.031303 1.561278 0
M  V30 17 C 0.560105 4.378237 1.681538 0
M  V30 18 C -0.149374 3.515217 2.667985 0
M  V30 19 N -1.447157 1.952062 -1.594913 0
M  V30 20 N -2.445179 2.513972 -2.255093 0
M  V30 21 C -2.754644 1.879280 -3.380487 0
M  V30 22 C -1.867979 0.827507 -3.422866 0
M  V30 23 C -1.774658 -0.176180 -4.443640 0
M  V30 24 N -1.706950 -1.005860 -5.271644 0
M  V30 25 C -1.062142 0.884589 -2.308461 0
M  V30 26 N -0.058261 0.077950 -1.918949 0
M  V30 27 C 2.822081 -3.162962 1.716814 0
M  V30 28 C 1.717539 -3.602309 2.429356 0
M  V30 29 C 1.691849 -4.707209 3.422230 0
M  V30 30 H -2.657320 -5.049281 3.777431 0
M  V30 31 H -3.557674 -4.321420 2.372061 0
M  V30 32 H -2.858057 -5.958385 2.271932 0
M  V30 33 H -1.087173 -3.011100 3.825865 0
M  V30 34 H -0.579285 -1.451999 1.178471 0
M  V30 35 H 4.691256 -1.771303 -0.067066 0
M  V30 36 H 3.353484 0.150548 -1.392678 0
M  V30 37 H 0.735467 1.592436 0.819809 0
M  V30 38 H -2.048753 3.936459 -0.176455 0
M  V30 39 H -1.635449 4.881882 1.825678 0
M  V30 40 H 0.819973 5.444399 1.931963 0
M  V30 41 H 1.269977 3.922858 0.969523 0
M  V30 42 H -0.300328 4.048966 3.664890 0
M  V30 43 H 0.218607 2.514410 2.838985 0
M  V30 44 H -3.492280 2.061333 -4.133905 0
M  V30 45 H 3.751752 -3.690943 1.917770 0
M  V30 46 H 1.079521 -5.566601 3.069668 0
M  V30 47 H 1.210475 -4.289694 4.342047 0
M  V30 48 H 2.744407 -5.033200 3.594588 0
M  V30 END ATOM
M  V30 BEGIN BOND
M  V30 1 1 1 2
M  V30 2 2 2 3
M  V30 3 1 2 4
M  V30 4 1 4 5
M  V30 5 2 5 6
M  V30 6 1 6 7
M  V30 7 2 7 8
M  V30 8 1 8 9
M  V30 9 2 9 10
M  V30 10 1 10 11
M  V30 11 1 11 12
M  V30 12 1 12 13
M  V30 13 2 13 14
M  V30 14 1 14 15
M  V30 15 1 15 16
M  V30 16 1 16 17
M  V30 17 1 17 18
M  V30 18 1 14 19
M  V30 19 1 19 20
M  V30 20 2 20 21
M  V30 21 1 21 22
M  V30 22 1 22 23
M  V30 23 3 23 24
M  V30 24 2 22 25
M  V30 25 1 25 26
M  V30 26 1 8 27
M  V30 27 2 27 28
M  V30 28 1 28 29
M  V30 29 1 28 5
M  V30 30 1 11 7
M  V30 31 2 26 12
M  V30 32 1 18 16
M  V30 33 1 25 19
M  V30 34 1 1 30
M  V30 35 1 1 31
M  V30 36 1 1 32
M  V30 37 1 4 33
M  V30 38 1 6 34
M  V30 39 1 9 35
M  V30 40 1 10 36
M  V30 41 1 13 37
M  V30 42 1 15 38
M  V30 43 1 16 39
M  V30 44 1 17 40
M  V30 45 1 17 41
M  V30 46 1 18 42
M  V30 47 1 18 43
M  V30 48 1 21 44
M  V30 49 1 27 45
M  V30 50 1 29 46
M  V30 51 1 29 47
M  V30 52 1 29 48
M  V30 END BOND
M  V30 END CTAB
M  END
>  <Dataset>  (404) 
ChEMBL_Kinases

>  <Ligand_Instance>  (404) 
nan

>  <PDB_ID>  (404) 
nan

>  <Standardized_SMILES>  (404) 
CC(=O)Nc1cc2c(ccn2-c2cc(NC3CC3)n3ncc(C#N)c3n2)cc1C

>  <Name>  (404) 
nan

>  <Pocket>  (404) 
nan

>  <ATP_Site>  (404) 
nan

>  <Peripheral>  (404) 
nan

>  <Num_H_Atoms_ProtBoundConf>  (404) 
nan

>  <Num_Resolved_Atoms>  (404) 
nan

>  <Num_Not_Resolved_Atoms>  (404) 
nan

$$$$
CHEMBL205156
     RDKit          3D

  0  0  0  0  0  0  0  0  0  0999 V3000
M  V30 BEGIN CTAB
M  V30 COUNTS 40 43 0 0 0
M  V30 BEGIN ATOM
M  V30 1 C 0.921867 -6.935941 1.324127 0
M  V30 2 C 0.508416 -5.500916 1.297639 0
M  V30 3 C -0.057340 -4.925939 2.433176 0
M  V30 4 C -0.448817 -3.599673 2.431408 0
M  V30 5 C -0.283260 -2.826850 1.300760 0
M  V30 6 C -0.705700 -1.434215 1.345040 0
M  V30 7 C -0.594192 -0.552484 0.291094 0
M  V30 8 C -1.016651 0.779506 0.401588 0
M  V30 9 C -0.834201 1.588356 -0.806833 0
M  V30 10 C -1.579058 1.407750 -1.961746 0
M  V30 11 N -1.081560 2.351657 -2.782593 0
M  V30 12 N -0.122538 3.056417 -2.209169 0
M  V30 13 C 0.079358 2.616519 -0.951418 0
M  V30 14 C 1.054426 3.135854 -0.002683 0
M  V30 15 C 0.904103 3.758217 1.217743 0
M  V30 16 C 2.014777 4.154699 1.928219 0
M  V30 17 C 3.305620 3.950999 1.460374 0
M  V30 18 C 3.397285 3.326665 0.240145 0
M  V30 19 N 2.320511 2.930722 -0.471664 0
M  V30 20 C -1.558359 1.199520 1.612797 0
M  V30 21 C -1.657522 0.292053 2.651700 0
M  V30 22 N -1.236612 -0.976318 2.493479 0
M  V30 23 C 0.279932 -3.440593 0.204594 0
M  V30 24 C 0.689446 -4.757923 0.146709 0
M  V30 25 H 0.441459 -7.420017 2.169901 0
M  V30 26 H 0.602263 -7.459506 0.380555 0
M  V30 27 H 2.033324 -7.024453 1.398729 0
M  V30 28 H -0.192998 -5.511884 3.318260 0
M  V30 29 H -0.885390 -3.202300 3.345665 0
M  V30 30 H -0.160585 -0.918669 -0.649647 0
M  V30 31 H -2.357445 0.693406 -2.154380 0
M  V30 32 H -1.360962 2.565730 -3.759176 0
M  V30 33 H -0.134179 3.865038 1.483124 0
M  V30 34 H 1.811835 4.636158 2.875106 0
M  V30 35 H 4.106275 4.292001 2.078162 0
M  V30 36 H 4.403271 3.164883 -0.131650 0
M  V30 37 H -1.862626 2.214590 1.642969 0
M  V30 38 H -2.086488 0.681465 3.565355 0
M  V30 39 H 0.422675 -2.864058 -0.693085 0
M  V30 40 H 1.123119 -5.158911 -0.758544 0
M  V30 END ATOM
M  V30 BEGIN BOND
M  V30 1 1 1 2
M  V30 2 2 2 3
M  V30 3 1 3 4
M  V30 4 2 4 5
M  V30 5 1 5 6
M  V30 6 2 6 7
M  V30 7 1 7 8
M  V30 8 1 8 9
M  V30 9 2 9 10
M  V30 10 1 10 11
M  V30 11 1 11 12
M  V30 12 2 12 13
M  V30 13 1 13 14
M  V30 14 2 14 15
M  V30 15 1 15 16
M  V30 16 2 16 17
M  V30 17 1 17 18
M  V30 18 2 18 19
M  V30 19 2 8 20
M  V30 20 1 20 21
M  V30 21 2 21 22
M  V30 22 1 5 23
M  V30 23 2 23 24
M  V30 24 1 24 2
M  V30 25 1 22 6
M  V30 26 1 13 9
M  V30 27 1 19 14
M  V30 28 1 1 25
M  V30 29 1 1 26
M  V30 30 1 1 27
M  V30 31 1 3 28
M  V30 32 1 4 29
M  V30 33 1 7 30
M  V30 34 1 10 31
M  V30 35 1 11 32
M  V30 36 1 15 33
M  V30 37 1 16 34
M  V30 38 1 17 35
M  V30 39 1 18 36
M  V30 40 1 20 37
M  V30 41 1 21 38
M  V30 42 1 23 39
M  V30 43 1 24 40
M  V30 END BOND
M  V30 END CTAB
M  END
>  <Dataset>  (405) 
ChEMBL_Kinases

>  <Ligand_Instance>  (405) 
nan

>  <PDB_ID>  (405) 
nan

>  <Standardized_SMILES>  (405) 
Cc1ccc(-c2cc(-c3c[nH]nc3-c3ccccn3)ccn2)cc1

>  <Name>  (405) 
nan

>  <Pocket>  (405) 
nan

>  <ATP_Site>  (405) 
nan

>  <Peripheral>  (405) 
nan

>  <Num_H_Atoms_ProtBoundConf>  (405) 
nan

>  <Num_Resolved_Atoms>  (405) 
nan

>  <Num_Not_Resolved_Atoms>  (405) 
nan

$$$$
CHEMBL205151
     RDKit          3D

  0  0  0  0  0  0  0  0  0  0999 V3000
M  V30 BEGIN CTAB
M  V30 COUNTS 51 54 0 0 0
M  V30 BEGIN ATOM
M  V30 1 C 4.544055 -1.177508 7.097529 0
M  V30 2 O 4.589342 -1.534991 5.749447 0
M  V30 3 C 5.630049 -0.898897 5.119234 0
M  V30 4 C 5.661845 -1.306784 3.638213 0
M  V30 5 N 4.404313 -0.918219 3.026379 0
M  V30 6 C 4.264173 -1.217849 1.645015 0
M  V30 7 O 5.246111 -1.786173 1.105330 0
M  V30 8 C 3.094214 -0.924305 0.821132 0
M  V30 9 C 3.179127 -1.257584 -0.519616 0
M  V30 10 C 2.087003 -0.990655 -1.329926 0
M  V30 11 C 0.948307 -0.409207 -0.813340 0
M  V30 12 C -0.151759 -0.151903 -1.725156 0
M  V30 13 C -1.364754 0.415588 -1.409377 0
M  V30 14 C -2.392049 0.651332 -2.293474 0
M  V30 15 C -3.663300 1.252277 -1.904100 0
M  V30 16 C -4.117288 2.493543 -2.294857 0
M  V30 17 N -5.321971 2.576324 -1.671423 0
M  V30 18 N -5.590990 1.495392 -0.963378 0
M  V30 19 C -4.547411 0.625715 -1.090687 0
M  V30 20 C -4.526200 -0.674381 -0.425628 0
M  V30 21 C -5.413301 -1.553712 -1.008873 0
M  V30 22 C -5.601266 -2.866710 -0.578461 0
M  V30 23 C -4.843066 -3.303753 0.504264 0
M  V30 24 C -3.977875 -2.384508 1.043480 0
M  V30 25 N -3.777201 -1.098370 0.641562 0
M  V30 26 C -2.208774 0.296481 -3.608267 0
M  V30 27 C -0.996873 -0.273180 -3.936185 0
M  V30 28 N -0.020889 -0.485478 -3.040631 0
M  V30 29 C 0.889167 -0.087746 0.525598 0
M  V30 30 C 1.962421 -0.334735 1.390146 0
M  V30 31 H 4.399285 -0.077841 7.202902 0
M  V30 32 H 3.626030 -1.645978 7.553532 0
M  V30 33 H 5.457601 -1.461064 7.662126 0
M  V30 34 H 5.578177 0.205380 5.204776 0
M  V30 35 H 6.585919 -1.260066 5.547986 0
M  V30 36 H 5.771537 -2.412035 3.639743 0
M  V30 37 H 6.547922 -0.888189 3.144417 0
M  V30 38 H 3.600212 -0.444063 3.494552 0
M  V30 39 H 4.055070 -1.713411 -0.959353 0
M  V30 40 H 2.179453 -1.265328 -2.392460 0
M  V30 41 H -1.512328 0.696589 -0.377679 0
M  V30 42 H -3.589676 3.178881 -2.940165 0
M  V30 43 H -5.935534 3.437106 -1.777748 0
M  V30 44 H -6.065473 -1.334052 -1.866016 0
M  V30 45 H -6.292615 -3.559362 -1.031045 0
M  V30 46 H -4.893404 -4.299787 0.934358 0
M  V30 47 H -3.355961 -2.643513 1.882443 0
M  V30 48 H -3.004366 0.472090 -4.329496 0
M  V30 49 H -0.798439 -0.571591 -4.950542 0
M  V30 50 H 0.006199 0.366951 0.949891 0
M  V30 51 H 1.902933 -0.077425 2.438491 0
M  V30 END ATOM
M  V30 BEGIN BOND
M  V30 1 1 1 2
M  V30 2 1 2 3
M  V30 3 1 3 4
M  V30 4 1 4 5
M  V30 5 1 5 6
M  V30 6 2 6 7
M  V30 7 1 6 8
M  V30 8 2 8 9
M  V30 9 1 9 10
M  V30 10 2 10 11
M  V30 11 1 11 12
M  V30 12 2 12 13
M  V30 13 1 13 14
M  V30 14 1 14 15
M  V30 15 2 15 16
M  V30 16 1 16 17
M  V30 17 1 17 18
M  V30 18 2 18 19
M  V30 19 1 19 20
M  V30 20 2 20 21
M  V30 21 1 21 22
M  V30 22 2 22 23
M  V30 23 1 23 24
M  V30 24 2 24 25
M  V30 25 2 14 26
M  V30 26 1 26 27
M  V30 27 2 27 28
M  V30 28 1 11 29
M  V30 29 2 29 30
M  V30 30 1 30 8
M  V30 31 1 28 12
M  V30 32 1 19 15
M  V30 33 1 25 20
M  V30 34 1 1 31
M  V30 35 1 1 32
M  V30 36 1 1 33
M  V30 37 1 3 34
M  V30 38 1 3 35
M  V30 39 1 4 36
M  V30 40 1 4 37
M  V30 41 1 5 38
M  V30 42 1 9 39
M  V30 43 1 10 40
M  V30 44 1 13 41
M  V30 45 1 16 42
M  V30 46 1 17 43
M  V30 47 1 21 44
M  V30 48 1 22 45
M  V30 49 1 23 46
M  V30 50 1 24 47
M  V30 51 1 26 48
M  V30 52 1 27 49
M  V30 53 1 29 50
M  V30 54 1 30 51
M  V30 END BOND
M  V30 END CTAB
M  END
>  <Dataset>  (406) 
ChEMBL_Kinases

>  <Ligand_Instance>  (406) 
nan

>  <PDB_ID>  (406) 
nan

>  <Standardized_SMILES>  (406) 
COCCNC(=O)c1ccc(-c2cc(-c3c[nH]nc3-c3ccccn3)ccn2)cc1

>  <Name>  (406) 
nan

>  <Pocket>  (406) 
nan

>  <ATP_Site>  (406) 
nan

>  <Peripheral>  (406) 
nan

>  <Num_H_Atoms_ProtBoundConf>  (406) 
nan

>  <Num_Resolved_Atoms>  (406) 
nan

>  <Num_Not_Resolved_Atoms>  (406) 
nan

$$$$
CHEMBL205141
     RDKit          3D

  0  0  0  0  0  0  0  0  0  0999 V3000
M  V30 BEGIN CTAB
M  V30 COUNTS 39 42 0 0 0
M  V30 BEGIN ATOM
M  V30 1 N 0.911175 -5.090534 -0.561966 0
M  V30 2 C 1.456292 -3.965792 0.117712 0
M  V30 3 N 2.686048 -3.931293 0.654336 0
M  V30 4 C 3.192420 -2.874955 1.290310 0
M  V30 5 C 2.327623 -1.795892 1.352349 0
M  V30 6 C 1.046418 -1.750846 0.825550 0
M  V30 7 C 0.233119 -0.563593 0.952584 0
M  V30 8 C 0.590188 0.643617 0.388631 0
M  V30 9 C 1.777295 0.946582 -0.395360 0
M  V30 10 C 1.883772 0.250849 -1.582639 0
M  V30 11 C 2.987836 0.488608 -2.379861 0
M  V30 12 C 3.930599 1.404191 -1.959649 0
M  V30 13 F 5.029445 1.672549 -2.704022 0
M  V30 14 C 3.840835 2.118844 -0.760768 0
M  V30 15 C 2.726695 1.860548 0.015363 0
M  V30 16 N -0.385723 1.535242 0.697741 0
M  V30 17 C -1.338450 0.926785 1.434353 0
M  V30 18 C -2.530986 1.303132 2.021775 0
M  V30 19 C -3.323645 0.437172 2.740347 0
M  V30 20 C -4.606996 0.848360 3.371043 0
M  V30 21 O -5.657580 0.651635 2.459157 0
M  V30 22 C -2.891292 -0.869238 2.871349 0
M  V30 23 C -1.693319 -1.227982 2.275576 0
M  V30 24 N -0.943242 -0.352055 1.579001 0
M  V30 25 N 0.637604 -2.884013 0.200446 0
M  V30 26 H 0.180251 -5.516719 0.081608 0
M  V30 27 H 0.965608 -5.641079 -1.446916 0
M  V30 28 H 4.172311 -2.827950 1.725694 0
M  V30 29 H 2.663063 -0.883848 1.858206 0
M  V30 30 H 1.164605 -0.472406 -1.941337 0
M  V30 31 H 3.134755 -0.024536 -3.327912 0
M  V30 32 H 4.597406 2.829905 -0.460202 0
M  V30 33 H 2.569730 2.364214 0.959192 0
M  V30 34 H -2.834906 2.314755 1.902229 0
M  V30 35 H -4.591158 1.869902 3.750203 0
M  V30 36 H -4.838679 0.143896 4.219494 0
M  V30 37 H -5.608116 1.254512 1.695586 0
M  V30 38 H -3.480315 -1.569463 3.422014 0
M  V30 39 H -1.393719 -2.263910 2.404896 0
M  V30 END ATOM
M  V30 BEGIN BOND
M  V30 1 1 1 2
M  V30 2 2 2 3
M  V30 3 1 3 4
M  V30 4 2 4 5
M  V30 5 1 5 6
M  V30 6 1 6 7
M  V30 7 2 7 8
M  V30 8 1 8 9
M  V30 9 2 9 10
M  V30 10 1 10 11
M  V30 11 2 11 12
M  V30 12 1 12 13
M  V30 13 1 12 14
M  V30 14 2 14 15
M  V30 15 1 8 16
M  V30 16 2 16 17
M  V30 17 1 17 18
M  V30 18 2 18 19
M  V30 19 1 19 20
M  V30 20 1 20 21
M  V30 21 1 19 22
M  V30 22 2 22 23
M  V30 23 1 23 24
M  V30 24 2 6 25
M  V30 25 1 25 2
M  V30 26 1 24 7
M  V30 27 1 15 9
M  V30 28 1 24 17
M  V30 29 1 1 26
M  V30 30 1 1 27
M  V30 31 1 4 28
M  V30 32 1 5 29
M  V30 33 1 10 30
M  V30 34 1 11 31
M  V30 35 1 14 32
M  V30 36 1 15 33
M  V30 37 1 18 34
M  V30 38 1 20 35
M  V30 39 1 20 36
M  V30 40 1 21 37
M  V30 41 1 22 38
M  V30 42 1 23 39
M  V30 END BOND
M  V30 END CTAB
M  END
>  <Dataset>  (407) 
ChEMBL_Kinases

>  <Ligand_Instance>  (407) 
nan

>  <PDB_ID>  (407) 
nan

>  <Standardized_SMILES>  (407) 
Nc1nccc(-c2c(-c3ccc(F)cc3)nc3cc(CO)ccn23)n1

>  <Name>  (407) 
nan

>  <Pocket>  (407) 
nan

>  <ATP_Site>  (407) 
nan

>  <Peripheral>  (407) 
nan

>  <Num_H_Atoms_ProtBoundConf>  (407) 
nan

>  <Num_Resolved_Atoms>  (407) 
nan

>  <Num_Not_Resolved_Atoms>  (407) 
nan

$$$$
CHEMBL205133
     RDKit          3D

  0  0  0  0  0  0  0  0  0  0999 V3000
M  V30 BEGIN CTAB
M  V30 COUNTS 45 47 0 0 0
M  V30 BEGIN ATOM
M  V30 1 N -0.737777 -3.021375 2.895613 0
M  V30 2 C -0.969938 -2.957062 1.496373 0
M  V30 3 C -0.474648 -2.182350 0.445007 0
M  V30 4 C 0.510438 -1.154809 0.720233 0
M  V30 5 O 0.821277 -0.988772 1.950768 0
M  V30 6 C 1.203081 -0.275627 -0.199125 0
M  V30 7 C 1.469420 -0.472122 -1.532061 0
M  V30 8 C 2.105310 0.394649 -2.379350 0
M  V30 9 C 2.525997 1.591717 -1.846132 0
M  V30 10 C 2.317965 1.895277 -0.539684 0
M  V30 11 O 2.683436 3.053780 0.128799 0
M  V30 12 C 3.355993 4.091401 -0.552214 0
M  V30 13 C 3.614800 5.219753 0.451852 0 CFG=2
M  V30 14 O 4.390295 4.767263 1.495410 0
M  V30 15 C 2.240516 5.687699 0.948859 0
M  V30 16 O 2.352198 6.711804 1.855909 0
M  V30 17 C 1.669190 0.967920 0.247391 0
M  V30 18 C -1.116684 -2.622151 -0.684241 0
M  V30 19 N -1.962468 -3.620080 -0.324743 0
M  V30 20 N -1.875385 -3.821685 0.981791 0
M  V30 21 C -2.678061 -4.826135 1.587494 0
M  V30 22 C -3.634001 -4.354306 2.489103 0
M  V30 23 C -4.478894 -5.196365 3.148163 0
M  V30 24 C -4.404457 -6.554249 2.933338 0
M  V30 25 F -5.218503 -7.447306 3.560169 0
M  V30 26 C -3.469301 -7.021980 2.050884 0
M  V30 27 C -2.585568 -6.193373 1.355845 0
M  V30 28 H -1.057943 -2.378726 3.679031 0
M  V30 29 H -0.186227 -3.739242 3.454993 0
M  V30 30 H 1.161585 -1.404500 -1.970729 0
M  V30 31 H 2.269077 0.149788 -3.418850 0
M  V30 32 H 3.041081 2.345437 -2.441225 0
M  V30 33 H 4.339783 3.725928 -0.910650 0
M  V30 34 H 2.751066 4.502651 -1.382411 0
M  V30 35 H 4.072733 6.063124 -0.060918 0
M  V30 36 H 5.079063 4.125373 1.212939 0
M  V30 37 H 1.751483 4.768528 1.331901 0
M  V30 38 H 1.620884 6.031569 0.097016 0
M  V30 39 H 1.988513 6.518295 2.747877 0
M  V30 40 H 1.482571 1.182128 1.311438 0
M  V30 41 H -0.975827 -2.238725 -1.662662 0
M  V30 42 H -3.741845 -3.297942 2.700165 0
M  V30 43 H -5.220312 -4.810943 3.848811 0
M  V30 44 H -3.360773 -8.083915 1.838950 0
M  V30 45 H -1.840306 -6.503350 0.659019 0
M  V30 END ATOM
M  V30 BEGIN BOND
M  V30 1 1 1 2
M  V30 2 2 2 3
M  V30 3 1 3 4
M  V30 4 2 4 5
M  V30 5 1 4 6
M  V30 6 2 6 7
M  V30 7 1 7 8
M  V30 8 2 8 9
M  V30 9 1 9 10
M  V30 10 1 10 11
M  V30 11 1 11 12
M  V30 12 1 12 13
M  V30 13 1 13 14
M  V30 14 1 13 15
M  V30 15 1 15 16
M  V30 16 2 10 17
M  V30 17 1 3 18
M  V30 18 2 18 19
M  V30 19 1 19 20
M  V30 20 1 20 21
M  V30 21 2 21 22
M  V30 22 1 22 23
M  V30 23 2 23 24
M  V30 24 1 24 25
M  V30 25 1 24 26
M  V30 26 2 26 27
M  V30 27 1 20 2
M  V30 28 1 27 21
M  V30 29 1 17 6
M  V30 30 1 1 28
M  V30 31 1 1 29
M  V30 32 1 7 30
M  V30 33 1 8 31
M  V30 34 1 9 32
M  V30 35 1 12 33
M  V30 36 1 12 34
M  V30 37 1 13 35 CFG=3
M  V30 38 1 14 36
M  V30 39 1 15 37
M  V30 40 1 15 38
M  V30 41 1 16 39
M  V30 42 1 17 40
M  V30 43 1 18 41
M  V30 44 1 22 42
M  V30 45 1 23 43
M  V30 46 1 26 44
M  V30 47 1 27 45
M  V30 END BOND
M  V30 END CTAB
M  END
>  <Dataset>  (408) 
ChEMBL_Kinases

>  <Ligand_Instance>  (408) 
nan

>  <PDB_ID>  (408) 
nan

>  <Standardized_SMILES>  (408) 
Nc1c(C(=O)c2cccc(OC[C@H](O)CO)c2)cnn1-c1ccc(F)cc1

>  <Name>  (408) 
nan

>  <Pocket>  (408) 
nan

>  <ATP_Site>  (408) 
nan

>  <Peripheral>  (408) 
nan

>  <Num_H_Atoms_ProtBoundConf>  (408) 
nan

>  <Num_Resolved_Atoms>  (408) 
nan

>  <Num_Not_Resolved_Atoms>  (408) 
nan

$$$$
CHEMBL205088
     RDKit          3D

  0  0  0  0  0  0  0  0  0  0999 V3000
M  V30 BEGIN CTAB
M  V30 COUNTS 55 57 0 0 0
M  V30 BEGIN ATOM
M  V30 1 C 3.004071 -4.952049 1.044672 0
M  V30 2 O 1.670567 -4.720894 1.390670 0
M  V30 3 C 1.127701 -3.559879 1.868601 0
M  V30 4 C 1.892132 -2.410152 2.075426 0
M  V30 5 C 1.309802 -1.263594 2.556888 0
M  V30 6 N 2.010796 -0.036914 2.800678 0
M  V30 7 C 1.966421 0.738880 1.612702 0
M  V30 8 O 1.389963 0.335472 0.580475 0
M  V30 9 C 2.554604 2.087040 1.379373 0
M  V30 10 C 2.214136 2.450799 -0.052067 0
M  V30 11 C 2.733752 3.784841 -0.454833 0
M  V30 12 O 2.299081 4.878401 0.261706 0
M  V30 13 C 1.060421 5.391630 0.448793 0
M  V30 14 C 1.164698 6.518746 1.277120 0
M  V30 15 C 0.049204 7.273462 1.656077 0
M  V30 16 C -1.200494 6.905419 1.205386 0
M  V30 17 C -1.311915 5.806666 0.396314 0
M  V30 18 C -0.211625 5.078145 0.033847 0
M  V30 19 C -0.045200 -1.226719 2.845875 0
M  V30 20 Cl -0.844102 0.207114 3.462353 0
M  V30 21 C -0.825776 -2.362515 2.646751 0
M  V30 22 C -0.219357 -3.501540 2.162725 0
M  V30 23 N -1.100557 -4.631179 1.985472 0
M  V30 24 C -1.694359 -4.702519 0.721250 0
M  V30 25 O -1.388068 -3.793980 -0.073489 0
M  V30 26 N -2.583933 -5.660416 0.239800 0
M  V30 27 C -3.219084 -5.794887 -1.016236 0
M  V30 28 C -3.095517 -4.968943 -2.100703 0
M  V30 29 N -3.741381 -5.174991 -3.262580 0
M  V30 30 C -4.559305 -6.227929 -3.418098 0
M  V30 31 C -5.222620 -6.398654 -4.678846 0
M  V30 32 N -5.752707 -6.555594 -5.694981 0
M  V30 33 C -4.700088 -7.073349 -2.341336 0
M  V30 34 N -4.043527 -6.844533 -1.192456 0
M  V30 35 H 3.695290 -4.799826 1.895783 0
M  V30 36 H 3.270494 -4.270784 0.211098 0
M  V30 37 H 3.047819 -6.014725 0.670761 0
M  V30 38 H 2.942700 -2.400513 1.863399 0
M  V30 39 H 2.526206 0.431176 3.575986 0
M  V30 40 H 3.664276 1.959631 1.427226 0
M  V30 41 H 2.243384 2.844287 2.097060 0
M  V30 42 H 1.142891 2.320965 -0.251854 0
M  V30 43 H 2.720089 1.686111 -0.714934 0
M  V30 44 H 2.469684 3.903415 -1.545973 0
M  V30 45 H 3.845835 3.746995 -0.398969 0
M  V30 46 H 2.066996 6.960908 1.729862 0
M  V30 47 H 0.062744 8.143147 2.285283 0
M  V30 48 H -2.139597 7.411090 1.430974 0
M  V30 49 H -2.266544 5.468890 0.011194 0
M  V30 50 H -0.211990 4.212308 -0.597138 0
M  V30 51 H -1.889029 -2.330065 2.874635 0
M  V30 52 H -1.351645 -5.398240 2.673821 0
M  V30 53 H -2.760586 -6.360396 0.990319 0
M  V30 54 H -2.467729 -4.122036 -2.045560 0
M  V30 55 H -5.353941 -7.928662 -2.443056 0
M  V30 END ATOM
M  V30 BEGIN BOND
M  V30 1 1 1 2
M  V30 2 1 2 3
M  V30 3 2 3 4
M  V30 4 1 4 5
M  V30 5 1 5 6
M  V30 6 1 6 7
M  V30 7 2 7 8
M  V30 8 1 7 9
M  V30 9 1 9 10
M  V30 10 1 10 11
M  V30 11 1 11 12
M  V30 12 1 12 13
M  V30 13 2 13 14
M  V30 14 1 14 15
M  V30 15 2 15 16
M  V30 16 1 16 17
M  V30 17 2 17 18
M  V30 18 2 5 19
M  V30 19 1 19 20
M  V30 20 1 19 21
M  V30 21 2 21 22
M  V30 22 1 22 23
M  V30 23 1 23 24
M  V30 24 2 24 25
M  V30 25 1 24 26
M  V30 26 1 26 27
M  V30 27 2 27 28
M  V30 28 1 28 29
M  V30 29 2 29 30
M  V30 30 1 30 31
M  V30 31 3 31 32
M  V30 32 1 30 33
M  V30 33 2 33 34
M  V30 34 1 22 3
M  V30 35 1 34 27
M  V30 36 1 18 13
M  V30 37 1 1 35
M  V30 38 1 1 36
M  V30 39 1 1 37
M  V30 40 1 4 38
M  V30 41 1 6 39
M  V30 42 1 9 40
M  V30 43 1 9 41
M  V30 44 1 10 42
M  V30 45 1 10 43
M  V30 46 1 11 44
M  V30 47 1 11 45
M  V30 48 1 14 46
M  V30 49 1 15 47
M  V30 50 1 16 48
M  V30 51 1 17 49
M  V30 52 1 18 50
M  V30 53 1 21 51
M  V30 54 1 23 52
M  V30 55 1 26 53
M  V30 56 1 28 54
M  V30 57 1 33 55
M  V30 END BOND
M  V30 END CTAB
M  END
>  <Dataset>  (409) 
ChEMBL_Kinases

>  <Ligand_Instance>  (409) 
nan

>  <PDB_ID>  (409) 
nan

>  <Standardized_SMILES>  (409) 
COc1cc(NC(=O)CCCOc2ccccc2)c(Cl)cc1NC(=O)Nc1cnc(C#N)cn1

>  <Name>  (409) 
nan

>  <Pocket>  (409) 
nan

>  <ATP_Site>  (409) 
nan

>  <Peripheral>  (409) 
nan

>  <Num_H_Atoms_ProtBoundConf>  (409) 
nan

>  <Num_Resolved_Atoms>  (409) 
nan

>  <Num_Not_Resolved_Atoms>  (409) 
nan

$$$$
CHEMBL205024
     RDKit          3D

  0  0  0  0  0  0  0  0  0  0999 V3000
M  V30 BEGIN CTAB
M  V30 COUNTS 45 47 0 0 0
M  V30 BEGIN ATOM
M  V30 1 N -0.950643 -2.502820 2.951562 0
M  V30 2 C -1.038481 -2.440665 1.554503 0
M  V30 3 C -0.452838 -1.712801 0.517975 0
M  V30 4 C 0.530544 -0.699109 0.854929 0
M  V30 5 O 0.740082 -0.514178 2.104327 0
M  V30 6 C 1.314397 0.141113 -0.034132 0
M  V30 7 C 1.671239 -0.128155 -1.336915 0
M  V30 8 C 2.386123 0.711767 -2.154196 0
M  V30 9 C 2.770590 1.922347 -1.603632 0
M  V30 10 C 2.461999 2.298757 -0.288902 0
M  V30 11 C 2.944805 3.625900 0.145914 0
M  V30 12 O 2.965010 4.439080 -1.017407 0
M  V30 13 C 4.328225 3.452657 0.717379 0
M  V30 14 O 5.181232 2.845807 -0.211617 0
M  V30 15 C 2.032272 4.337876 1.102022 0
M  V30 16 O 1.923324 3.691276 2.326293 0
M  V30 17 C 1.742331 1.369171 0.423028 0
M  V30 18 C -1.012175 -2.168998 -0.640767 0
M  V30 19 N -1.899471 -3.132678 -0.325537 0
M  V30 20 N -1.929319 -3.309665 0.986079 0
M  V30 21 C -2.823519 -4.298445 1.479812 0
M  V30 22 C -3.768065 -3.969823 2.451985 0
M  V30 23 C -4.618988 -4.956856 2.906291 0
M  V30 24 C -4.572439 -6.255120 2.437511 0
M  V30 25 F -5.405262 -7.225299 2.879012 0
M  V30 26 C -3.645638 -6.615001 1.471273 0
M  V30 27 C -2.800027 -5.608695 1.028209 0
M  V30 28 H -1.296626 -1.792123 3.665520 0
M  V30 29 H -0.536753 -3.242431 3.567891 0
M  V30 30 H 1.389887 -1.072205 -1.765352 0
M  V30 31 H 2.630313 0.435781 -3.169828 0
M  V30 32 H 3.338348 2.598216 -2.245807 0
M  V30 33 H 2.090158 4.886147 -1.136535 0
M  V30 34 H 4.737930 4.457229 0.948436 0
M  V30 35 H 4.239160 2.871876 1.638028 0
M  V30 36 H 5.421658 3.451686 -0.944183 0
M  V30 37 H 2.417636 5.373939 1.253462 0
M  V30 38 H 1.040875 4.481931 0.618154 0
M  V30 39 H 1.364885 4.231115 2.938663 0
M  V30 40 H 1.498327 1.637388 1.434808 0
M  V30 41 H -0.788045 -1.816145 -1.622384 0
M  V30 42 H -3.836408 -2.965055 2.843529 0
M  V30 43 H -5.375654 -4.776418 3.656792 0
M  V30 44 H -3.534848 -7.604242 1.045784 0
M  V30 45 H -2.047318 -5.827136 0.268169 0
M  V30 END ATOM
M  V30 BEGIN BOND
M  V30 1 1 1 2
M  V30 2 2 2 3
M  V30 3 1 3 4
M  V30 4 2 4 5
M  V30 5 1 4 6
M  V30 6 2 6 7
M  V30 7 1 7 8
M  V30 8 2 8 9
M  V30 9 1 9 10
M  V30 10 1 10 11
M  V30 11 1 11 12
M  V30 12 1 11 13
M  V30 13 1 13 14
M  V30 14 1 11 15
M  V30 15 1 15 16
M  V30 16 2 10 17
M  V30 17 1 3 18
M  V30 18 2 18 19
M  V30 19 1 19 20
M  V30 20 1 20 21
M  V30 21 2 21 22
M  V30 22 1 22 23
M  V30 23 2 23 24
M  V30 24 1 24 25
M  V30 25 1 24 26
M  V30 26 2 26 27
M  V30 27 1 20 2
M  V30 28 1 27 21
M  V30 29 1 17 6
M  V30 30 1 1 28
M  V30 31 1 1 29
M  V30 32 1 7 30
M  V30 33 1 8 31
M  V30 34 1 9 32
M  V30 35 1 12 33
M  V30 36 1 13 34
M  V30 37 1 13 35
M  V30 38 1 14 36
M  V30 39 1 15 37
M  V30 40 1 15 38
M  V30 41 1 16 39
M  V30 42 1 17 40
M  V30 43 1 18 41
M  V30 44 1 22 42
M  V30 45 1 23 43
M  V30 46 1 26 44
M  V30 47 1 27 45
M  V30 END BOND
M  V30 END CTAB
M  END
>  <Dataset>  (410) 
ChEMBL_Kinases

>  <Ligand_Instance>  (410) 
nan

>  <PDB_ID>  (410) 
nan

>  <Standardized_SMILES>  (410) 
Nc1c(C(=O)c2cccc(C(O)(CO)CO)c2)cnn1-c1ccc(F)cc1

>  <Name>  (410) 
nan

>  <Pocket>  (410) 
nan

>  <ATP_Site>  (410) 
nan

>  <Peripheral>  (410) 
nan

>  <Num_H_Atoms_ProtBoundConf>  (410) 
nan

>  <Num_Resolved_Atoms>  (410) 
nan

>  <Num_Not_Resolved_Atoms>  (410) 
nan

$$$$
CHEMBL204966
     RDKit          3D

  0  0  0  0  0  0  0  0  0  0999 V3000
M  V30 BEGIN CTAB
M  V30 COUNTS 44 48 0 0 0
M  V30 BEGIN ATOM
M  V30 1 C -0.602683 -4.572835 3.309415 0
M  V30 2 C -0.884928 -3.806389 2.056817 0
M  V30 3 C -2.144477 -3.823107 1.467907 0
M  V30 4 C -2.347880 -3.097991 0.314610 0
M  V30 5 C -1.322032 -2.354812 -0.266220 0
M  V30 6 C -0.088661 -2.360621 0.342938 0
M  V30 7 C 1.109484 -1.656762 -0.095821 0
M  V30 8 N 2.238169 -2.290487 -0.467024 0
M  V30 9 N 3.164782 -1.393756 -0.819661 0
M  V30 10 C 2.656090 -0.138404 -0.684888 0
M  V30 11 C 1.363502 -0.307618 -0.229591 0
M  V30 12 C 0.398078 0.744440 0.071332 0
M  V30 13 C 0.042927 1.553007 -0.988984 0
M  V30 14 C -0.879310 2.578143 -0.754812 0
M  V30 15 C -1.403785 2.748370 0.525406 0
M  V30 16 N -2.295365 3.636585 1.038813 0
M  V30 17 C -2.425896 3.319819 2.358166 0
M  V30 18 N -1.652773 2.273324 2.681553 0
M  V30 19 C -1.570659 1.700585 4.001544 0
M  V30 20 C -0.999910 1.892230 1.555306 0
M  V30 21 C -0.101569 0.884511 1.352575 0
M  V30 22 C 3.705207 0.820847 -1.082412 0
M  V30 23 C 4.663205 -0.019161 -1.899821 0
M  V30 24 C 4.540381 -1.400047 -1.298752 0
M  V30 25 N 0.073017 -3.079455 1.466328 0
M  V30 26 H -1.510016 -5.116039 3.601060 0
M  V30 27 H 0.281025 -5.218666 3.112637 0
M  V30 28 H -0.302790 -3.886693 4.134666 0
M  V30 29 H -2.955727 -4.394077 1.902831 0
M  V30 30 H -3.313439 -3.080647 -0.178607 0
M  V30 31 H -1.401056 -1.764973 -1.161649 0
M  V30 32 H 0.464840 1.401563 -1.985279 0
M  V30 33 H -1.192123 3.241640 -1.550783 0
M  V30 34 H -3.106040 3.919290 2.970015 0
M  V30 35 H -1.204776 2.431474 4.764141 0
M  V30 36 H -0.793917 0.892386 3.967045 0
M  V30 37 H -2.531373 1.315446 4.374591 0
M  V30 38 H 0.207878 0.223193 2.155354 0
M  V30 39 H 4.213605 1.226594 -0.190741 0
M  V30 40 H 3.337245 1.637944 -1.708622 0
M  V30 41 H 4.322894 -0.089641 -2.967706 0
M  V30 42 H 5.700081 0.376813 -1.844190 0
M  V30 43 H 4.701684 -2.200959 -2.029030 0
M  V30 44 H 5.244975 -1.435884 -0.442872 0
M  V30 END ATOM
M  V30 BEGIN BOND
M  V30 1 1 1 2
M  V30 2 2 2 3
M  V30 3 1 3 4
M  V30 4 2 4 5
M  V30 5 1 5 6
M  V30 6 1 6 7
M  V30 7 2 7 8
M  V30 8 1 8 9
M  V30 9 1 9 10
M  V30 10 2 10 11
M  V30 11 1 11 12
M  V30 12 2 12 13
M  V30 13 1 13 14
M  V30 14 2 14 15
M  V30 15 1 15 16
M  V30 16 2 16 17
M  V30 17 1 17 18
M  V30 18 1 18 19
M  V30 19 1 18 20
M  V30 20 2 20 21
M  V30 21 1 10 22
M  V30 22 1 22 23
M  V30 23 1 23 24
M  V30 24 2 6 25
M  V30 25 1 25 2
M  V30 26 1 11 7
M  V30 27 1 21 12
M  V30 28 1 24 9
M  V30 29 1 20 15
M  V30 30 1 1 26
M  V30 31 1 1 27
M  V30 32 1 1 28
M  V30 33 1 3 29
M  V30 34 1 4 30
M  V30 35 1 5 31
M  V30 36 1 13 32
M  V30 37 1 14 33
M  V30 38 1 17 34
M  V30 39 1 19 35
M  V30 40 1 19 36
M  V30 41 1 19 37
M  V30 42 1 21 38
M  V30 43 1 22 39
M  V30 44 1 22 40
M  V30 45 1 23 41
M  V30 46 1 23 42
M  V30 47 1 24 43
M  V30 48 1 24 44
M  V30 END BOND
M  V30 END CTAB
M  END
>  <Dataset>  (411) 
ChEMBL_Kinases

>  <Ligand_Instance>  (411) 
nan

>  <PDB_ID>  (411) 
nan

>  <Standardized_SMILES>  (411) 
Cc1cccc(-c2nn3c(c2-c2ccc4ncn(C)c4c2)CCC3)n1

>  <Name>  (411) 
nan

>  <Pocket>  (411) 
nan

>  <ATP_Site>  (411) 
nan

>  <Peripheral>  (411) 
nan

>  <Num_H_Atoms_ProtBoundConf>  (411) 
nan

>  <Num_Resolved_Atoms>  (411) 
nan

>  <Num_Not_Resolved_Atoms>  (411) 
nan

$$$$
CHEMBL204943
     RDKit          3D

  0  0  0  0  0  0  0  0  0  0999 V3000
M  V30 BEGIN CTAB
M  V30 COUNTS 49 52 0 0 0
M  V30 BEGIN ATOM
M  V30 1 C 1.331037 -2.792744 5.121990 0
M  V30 2 N 2.471643 -3.118683 4.286903 0
M  V30 3 C 2.662640 -2.716710 2.936231 0
M  V30 4 N 3.745131 -3.055950 2.234688 0
M  V30 5 C 3.916708 -2.670505 0.957379 0
M  V30 6 C 2.932570 -1.895453 0.356683 0
M  V30 7 C 1.817291 -1.543811 1.073978 0
M  V30 8 C 0.864059 -0.730331 0.328254 0
M  V30 9 C 1.151916 0.555202 -0.145272 0
M  V30 10 C 2.405294 1.321115 -0.001543 0
M  V30 11 C 3.419379 1.286216 -0.938982 0
M  V30 12 C 4.543532 2.049959 -0.682166 0
M  V30 13 C 4.693719 2.830230 0.447449 0
M  V30 14 F 5.812330 3.567189 0.666235 0
M  V30 15 C 3.679055 2.861239 1.379030 0
M  V30 16 C 2.539712 2.106477 1.150036 0
M  V30 17 N 0.055802 0.977904 -0.771580 0
M  V30 18 C -0.916727 0.046756 -0.730612 0
M  V30 19 C -2.212194 -0.058727 -1.195593 0
M  V30 20 C -3.012159 -1.156127 -1.011675 0
M  V30 21 C -4.367154 -1.185370 -1.538938 0
M  V30 22 N -5.405267 -0.692981 -0.703939 0
M  V30 23 C -5.238308 0.697771 -0.328885 0
M  V30 24 C -5.396839 -1.460418 0.526655 0
M  V30 25 C -2.394912 -2.176648 -0.301255 0
M  V30 26 C -1.104836 -2.136687 0.191645 0
M  V30 27 N -0.403656 -0.996292 -0.051267 0
M  V30 28 N 1.706496 -1.969959 2.369071 0
M  V30 29 H 0.861748 -1.825421 4.784339 0
M  V30 30 H 1.623099 -2.627102 6.178052 0
M  V30 31 H 0.572543 -3.581398 4.999371 0
M  V30 32 H 3.216823 -3.702930 4.726010 0
M  V30 33 H 4.825678 -2.991437 0.464576 0
M  V30 34 H 3.109787 -1.607296 -0.670874 0
M  V30 35 H 3.300411 0.674832 -1.823200 0
M  V30 36 H 5.331813 2.003677 -1.442289 0
M  V30 37 H 3.794505 3.469109 2.260667 0
M  V30 38 H 1.719569 2.117144 1.880234 0
M  V30 39 H -2.528027 0.842607 -1.732538 0
M  V30 40 H -4.690177 -2.205741 -1.896886 0
M  V30 41 H -4.373516 -0.559352 -2.469214 0
M  V30 42 H -6.213767 1.169341 -0.059637 0
M  V30 43 H -4.835815 1.255142 -1.224820 0
M  V30 44 H -4.523365 0.728122 0.513530 0
M  V30 45 H -5.661919 -2.528170 0.282165 0
M  V30 46 H -6.166833 -1.110043 1.242674 0
M  V30 47 H -4.384493 -1.500776 0.990087 0
M  V30 48 H -2.981232 -3.090210 -0.118263 0
M  V30 49 H -0.700195 -2.980211 0.737094 0
M  V30 END ATOM
M  V30 BEGIN BOND
M  V30 1 1 1 2
M  V30 2 1 2 3
M  V30 3 2 3 4
M  V30 4 1 4 5
M  V30 5 2 5 6
M  V30 6 1 6 7
M  V30 7 1 7 8
M  V30 8 2 8 9
M  V30 9 1 9 10
M  V30 10 2 10 11
M  V30 11 1 11 12
M  V30 12 2 12 13
M  V30 13 1 13 14
M  V30 14 1 13 15
M  V30 15 2 15 16
M  V30 16 1 9 17
M  V30 17 2 17 18
M  V30 18 1 18 19
M  V30 19 2 19 20
M  V30 20 1 20 21
M  V30 21 1 21 22
M  V30 22 1 22 23
M  V30 23 1 22 24
M  V30 24 1 20 25
M  V30 25 2 25 26
M  V30 26 1 26 27
M  V30 27 2 7 28
M  V30 28 1 28 3
M  V30 29 1 27 8
M  V30 30 1 16 10
M  V30 31 1 27 18
M  V30 32 1 1 29
M  V30 33 1 1 30
M  V30 34 1 1 31
M  V30 35 1 2 32
M  V30 36 1 5 33
M  V30 37 1 6 34
M  V30 38 1 11 35
M  V30 39 1 12 36
M  V30 40 1 15 37
M  V30 41 1 16 38
M  V30 42 1 19 39
M  V30 43 1 21 40
M  V30 44 1 21 41
M  V30 45 1 23 42
M  V30 46 1 23 43
M  V30 47 1 23 44
M  V30 48 1 24 45
M  V30 49 1 24 46
M  V30 50 1 24 47
M  V30 51 1 25 48
M  V30 52 1 26 49
M  V30 END BOND
M  V30 END CTAB
M  END
>  <Dataset>  (412) 
ChEMBL_Kinases

>  <Ligand_Instance>  (412) 
nan

>  <PDB_ID>  (412) 
nan

>  <Standardized_SMILES>  (412) 
CNc1nccc(-c2c(-c3ccc(F)cc3)nc3cc(CN(C)C)ccn23)n1

>  <Name>  (412) 
nan

>  <Pocket>  (412) 
nan

>  <ATP_Site>  (412) 
nan

>  <Peripheral>  (412) 
nan

>  <Num_H_Atoms_ProtBoundConf>  (412) 
nan

>  <Num_Resolved_Atoms>  (412) 
nan

>  <Num_Not_Resolved_Atoms>  (412) 
nan

$$$$
CHEMBL204930
     RDKit          3D

  0  0  0  0  0  0  0  0  0  0999 V3000
M  V30 BEGIN CTAB
M  V30 COUNTS 40 43 0 0 0
M  V30 BEGIN ATOM
M  V30 1 O 0.841724 -7.739228 -1.115090 0
M  V30 2 C 0.038935 -7.494202 -0.158086 0
M  V30 3 O -0.279293 -8.775479 0.240951 0
M  V30 4 C -0.402506 -6.201629 0.351626 0
M  V30 5 C -1.293988 -6.097429 1.416766 0
M  V30 6 C -1.618872 -4.796848 1.786906 0
M  V30 7 C -1.114548 -3.667647 1.167373 0
M  V30 8 C -1.328125 -2.340910 1.403963 0
M  V30 9 C -0.537054 -1.700701 0.448328 0
M  V30 10 C -0.423237 -0.240993 0.291303 0
M  V30 11 C 0.403722 0.235563 -0.704920 0
M  V30 12 C 0.522786 1.618685 -0.867125 0
M  V30 13 C -0.184473 2.476291 -0.033171 0
M  V30 14 O -0.098324 3.877865 -0.156260 0
M  V30 15 C 0.896701 4.515715 0.588195 0
M  V30 16 C 0.652455 4.974553 1.885900 0
M  V30 17 C 1.658383 5.599539 2.590752 0
M  V30 18 C 2.920291 5.797732 2.065672 0
M  V30 19 Cl 4.081702 6.612694 3.104090 0
M  V30 20 C 3.169768 5.342795 0.773196 0
M  V30 21 C 2.161706 4.718641 0.072041 0
M  V30 22 C -1.013381 1.986991 0.965566 0
M  V30 23 C -1.124735 0.600655 1.118592 0
M  V30 24 N 0.095567 -2.615053 -0.295523 0
M  V30 25 C -0.236852 -3.851433 0.119863 0
M  V30 26 C 0.139366 -5.123453 -0.312102 0
M  V30 27 H 0.370528 -9.416349 0.710102 0
M  V30 28 H -1.679002 -6.971963 1.889913 0
M  V30 29 H -2.323605 -4.759954 2.629569 0
M  V30 30 H -1.952274 -1.889095 2.144284 0
M  V30 31 H 0.973227 -0.401406 -1.377210 0
M  V30 32 H 1.142173 2.091390 -1.614944 0
M  V30 33 H -0.350494 4.788585 2.234799 0
M  V30 34 H 1.307351 5.892798 3.574917 0
M  V30 35 H 4.170403 5.519902 0.404823 0
M  V30 36 H 2.376758 4.369591 -0.938378 0
M  V30 37 H -1.569618 2.662218 1.621436 0
M  V30 38 H -1.762926 0.163852 1.888397 0
M  V30 39 H 0.750991 -2.408498 -1.082666 0
M  V30 40 H 0.822249 -5.202229 -1.128021 0
M  V30 END ATOM
M  V30 BEGIN BOND
M  V30 1 2 1 2
M  V30 2 1 2 3
M  V30 3 1 2 4
M  V30 4 2 4 5
M  V30 5 1 5 6
M  V30 6 2 6 7
M  V30 7 1 7 8
M  V30 8 2 8 9
M  V30 9 1 9 10
M  V30 10 2 10 11
M  V30 11 1 11 12
M  V30 12 2 12 13
M  V30 13 1 13 14
M  V30 14 1 14 15
M  V30 15 2 15 16
M  V30 16 1 16 17
M  V30 17 2 17 18
M  V30 18 1 18 19
M  V30 19 1 18 20
M  V30 20 2 20 21
M  V30 21 1 13 22
M  V30 22 2 22 23
M  V30 23 1 9 24
M  V30 24 1 24 25
M  V30 25 2 25 26
M  V30 26 1 26 4
M  V30 27 1 25 7
M  V30 28 1 23 10
M  V30 29 1 21 15
M  V30 30 1 3 27
M  V30 31 1 5 28
M  V30 32 1 6 29
M  V30 33 1 8 30
M  V30 34 1 11 31
M  V30 35 1 12 32
M  V30 36 1 16 33
M  V30 37 1 17 34
M  V30 38 1 20 35
M  V30 39 1 21 36
M  V30 40 1 22 37
M  V30 41 1 23 38
M  V30 42 1 24 39
M  V30 43 1 26 40
M  V30 END BOND
M  V30 END CTAB
M  END
>  <Dataset>  (413) 
ChEMBL_Kinases

>  <Ligand_Instance>  (413) 
nan

>  <PDB_ID>  (413) 
nan

>  <Standardized_SMILES>  (413) 
O=C(O)c1ccc2cc(-c3ccc(Oc4ccc(Cl)cc4)cc3)[nH]c2c1

>  <Name>  (413) 
nan

>  <Pocket>  (413) 
nan

>  <ATP_Site>  (413) 
nan

>  <Peripheral>  (413) 
nan

>  <Num_H_Atoms_ProtBoundConf>  (413) 
nan

>  <Num_Resolved_Atoms>  (413) 
nan

>  <Num_Not_Resolved_Atoms>  (413) 
nan

$$$$
CHEMBL204901
     RDKit          3D

  0  0  0  0  0  0  0  0  0  0999 V3000
M  V30 BEGIN CTAB
M  V30 COUNTS 33 35 0 0 0
M  V30 BEGIN ATOM
M  V30 1 N -1.855981 -0.672598 1.636634 0
M  V30 2 C -0.784499 -0.363183 0.723747 0
M  V30 3 C 0.512687 -0.803052 0.573899 0
M  V30 4 C 1.032682 -1.816075 1.479543 0
M  V30 5 O 0.231131 -2.287143 2.356131 0
M  V30 6 C 2.353987 -2.415909 1.572030 0
M  V30 7 C 2.451712 -3.710302 2.059100 0
M  V30 8 C 3.692885 -4.347354 2.182498 0
M  V30 9 C 4.862151 -3.711586 1.824749 0
M  V30 10 C 4.794379 -2.441070 1.344325 0
M  V30 11 C 3.562565 -1.845134 1.235868 0
M  V30 12 C 1.060836 -0.134385 -0.492107 0
M  V30 13 N 0.117597 0.699540 -0.985862 0
M  V30 14 N -0.997723 0.563683 -0.253951 0
M  V30 15 C -2.177426 1.311490 -0.525794 0
M  V30 16 C -2.898269 0.869675 -1.639406 0
M  V30 17 C -4.073185 1.505421 -2.024971 0
M  V30 18 C -4.521891 2.585572 -1.289346 0
M  V30 19 C -3.808306 3.016741 -0.193503 0
M  V30 20 F -4.225474 4.081047 0.553678 0
M  V30 21 C -2.634733 2.375704 0.185273 0
M  V30 22 H -2.345456 0.105378 2.150464 0
M  V30 23 H -2.097989 -1.696377 1.742409 0
M  V30 24 H 1.572736 -4.277175 2.362192 0
M  V30 25 H 3.702620 -5.364054 2.571436 0
M  V30 26 H 5.827631 -4.179934 1.910023 0
M  V30 27 H 5.684938 -1.901904 1.050805 0
M  V30 28 H 3.543880 -0.835056 0.859869 0
M  V30 29 H 2.062854 -0.264382 -0.861373 0
M  V30 30 H -2.577358 0.018998 -2.247926 0
M  V30 31 H -4.642211 1.164979 -2.895336 0
M  V30 32 H -5.439551 3.118901 -1.551772 0
M  V30 33 H -2.046239 2.667472 1.021782 0
M  V30 END ATOM
M  V30 BEGIN BOND
M  V30 1 1 1 2
M  V30 2 2 2 3
M  V30 3 1 3 4
M  V30 4 2 4 5
M  V30 5 1 4 6
M  V30 6 2 6 7
M  V30 7 1 7 8
M  V30 8 2 8 9
M  V30 9 1 9 10
M  V30 10 2 10 11
M  V30 11 1 3 12
M  V30 12 2 12 13
M  V30 13 1 13 14
M  V30 14 1 14 15
M  V30 15 2 15 16
M  V30 16 1 16 17
M  V30 17 2 17 18
M  V30 18 1 18 19
M  V30 19 1 19 20
M  V30 20 2 19 21
M  V30 21 1 14 2
M  V30 22 1 21 15
M  V30 23 1 11 6
M  V30 24 1 1 22
M  V30 25 1 1 23
M  V30 26 1 7 24
M  V30 27 1 8 25
M  V30 28 1 9 26
M  V30 29 1 10 27
M  V30 30 1 11 28
M  V30 31 1 12 29
M  V30 32 1 16 30
M  V30 33 1 17 31
M  V30 34 1 18 32
M  V30 35 1 21 33
M  V30 END BOND
M  V30 END CTAB
M  END
>  <Dataset>  (414) 
ChEMBL_Kinases

>  <Ligand_Instance>  (414) 
nan

>  <PDB_ID>  (414) 
nan

>  <Standardized_SMILES>  (414) 
Nc1c(C(=O)c2ccccc2)cnn1-c1cccc(F)c1

>  <Name>  (414) 
nan

>  <Pocket>  (414) 
nan

>  <ATP_Site>  (414) 
nan

>  <Peripheral>  (414) 
nan

>  <Num_H_Atoms_ProtBoundConf>  (414) 
nan

>  <Num_Resolved_Atoms>  (414) 
nan

>  <Num_Not_Resolved_Atoms>  (414) 
nan

$$$$
CHEMBL2048871
     RDKit          3D

  0  0  0  0  0  0  0  0  0  0999 V3000
M  V30 BEGIN CTAB
M  V30 COUNTS 48 50 0 0 0
M  V30 BEGIN ATOM
M  V30 1 C 0.255456 -5.145273 -0.471554 0
M  V30 2 C 0.716401 -4.362193 0.740455 0
M  V30 3 C -0.060813 -4.880383 1.934761 0
M  V30 4 O 0.427448 -3.000926 0.642944 0
M  V30 5 C 1.321992 -1.954508 0.741065 0
M  V30 6 C 2.678362 -2.080461 0.956423 0
M  V30 7 C 3.535234 -0.997706 1.047401 0
M  V30 8 C 2.958931 0.261488 0.909170 0
M  V30 9 C 1.623019 0.434862 0.695168 0
M  V30 10 C 1.056946 1.760445 0.558351 0
M  V30 11 C 1.489021 2.782443 1.280940 0
M  V30 12 S 2.784768 2.881140 2.546854 0
M  V30 13 C 3.025503 4.669156 2.365933 0
M  V30 14 O 4.029238 5.328142 2.684254 0
M  V30 15 N 1.805237 5.113252 1.782002 0
M  V30 16 C 0.973195 4.145691 1.202210 0
M  V30 17 O -0.129920 4.418494 0.655863 0
M  V30 18 C 0.771967 -0.673412 0.606031 0
M  V30 19 N -0.633405 -0.511000 0.382258 0
M  V30 20 C -1.540776 -0.381453 1.530066 0
M  V30 21 C -2.863484 -1.049665 1.232826 0
M  V30 22 C -3.534887 -0.546859 -0.008212 0
M  V30 23 C -2.573308 0.256375 -0.874267 0 CFG=1
M  V30 24 N -2.513236 1.571929 -0.315455 0
M  V30 25 C -1.264300 -0.460923 -0.920977 0
M  V30 26 H -0.455745 -5.961673 -0.223271 0
M  V30 27 H -0.277488 -4.501607 -1.221321 0
M  V30 28 H 1.116569 -5.647691 -0.985395 0
M  V30 29 H 1.778298 -4.609155 0.913608 0
M  V30 30 H -1.036185 -4.342193 2.006499 0
M  V30 31 H -0.277844 -5.951285 1.740024 0
M  V30 32 H 0.538378 -4.827518 2.868253 0
M  V30 33 H 3.087609 -3.060495 1.058646 0
M  V30 34 H 4.587576 -1.194514 1.217986 0
M  V30 35 H 3.666746 1.076227 0.987019 0
M  V30 36 H 0.259823 1.914881 -0.154691 0
M  V30 37 H 1.590698 6.155476 1.817618 0
M  V30 38 H -1.077436 -0.938245 2.359402 0
M  V30 39 H -1.637221 0.662943 1.850287 0
M  V30 40 H -2.654815 -2.139273 1.099287 0
M  V30 41 H -3.501715 -0.864323 2.122207 0
M  V30 42 H -3.917806 -1.381726 -0.646018 0
M  V30 43 H -4.401016 0.117679 0.196133 0
M  V30 44 H -2.974304 0.338006 -1.905315 0
M  V30 45 H -3.240866 1.747134 0.427795 0
M  V30 46 H -2.689449 2.336871 -1.032204 0
M  V30 47 H -1.488443 -1.539798 -1.169562 0
M  V30 48 H -0.589929 -0.135587 -1.736770 0
M  V30 END ATOM
M  V30 BEGIN BOND
M  V30 1 1 1 2
M  V30 2 1 2 3
M  V30 3 1 2 4
M  V30 4 1 4 5
M  V30 5 2 5 6
M  V30 6 1 6 7
M  V30 7 2 7 8
M  V30 8 1 8 9
M  V30 9 1 9 10
M  V30 10 2 10 11
M  V30 11 1 11 12
M  V30 12 1 12 13
M  V30 13 2 13 14
M  V30 14 1 13 15
M  V30 15 1 15 16
M  V30 16 2 16 17
M  V30 17 2 9 18
M  V30 18 1 18 19
M  V30 19 1 19 20
M  V30 20 1 20 21
M  V30 21 1 21 22
M  V30 22 1 22 23
M  V30 23 1 23 24
M  V30 24 1 23 25
M  V30 25 1 18 5
M  V30 26 1 25 19
M  V30 27 1 16 11
M  V30 28 1 1 26
M  V30 29 1 1 27
M  V30 30 1 1 28
M  V30 31 1 2 29
M  V30 32 1 3 30
M  V30 33 1 3 31
M  V30 34 1 3 32
M  V30 35 1 6 33
M  V30 36 1 7 34
M  V30 37 1 8 35
M  V30 38 1 10 36
M  V30 39 1 15 37
M  V30 40 1 20 38
M  V30 41 1 20 39
M  V30 42 1 21 40
M  V30 43 1 21 41
M  V30 44 1 22 42
M  V30 45 1 22 43
M  V30 46 1 23 44 CFG=3
M  V30 47 1 24 45
M  V30 48 1 24 46
M  V30 49 1 25 47
M  V30 50 1 25 48
M  V30 END BOND
M  V30 END CTAB
M  END
>  <Dataset>  (415) 
ChEMBL_Kinases

>  <Ligand_Instance>  (415) 
nan

>  <PDB_ID>  (415) 
nan

>  <Standardized_SMILES>  (415) 
CC(C)Oc1cccc(/C=C2\SC(=O)NC2=O)c1N1CCC[C@@H](N)C1

>  <Name>  (415) 
nan

>  <Pocket>  (415) 
nan

>  <ATP_Site>  (415) 
nan

>  <Peripheral>  (415) 
nan

>  <Num_H_Atoms_ProtBoundConf>  (415) 
nan

>  <Num_Resolved_Atoms>  (415) 
nan

>  <Num_Not_Resolved_Atoms>  (415) 
nan

$$$$
CHEMBL2048863
     RDKit          3D

  0  0  0  0  0  0  0  0  0  0999 V3000
M  V30 BEGIN CTAB
M  V30 COUNTS 35 37 0 0 0
M  V30 BEGIN ATOM
M  V30 1 N -1.022841 -1.065019 3.466289 0
M  V30 2 C 0.255105 -1.476439 2.960741 0 CFG=1
M  V30 3 C 0.074748 -2.513114 1.866207 0
M  V30 4 C 1.259608 -2.185741 0.977771 0
M  V30 5 N 1.294177 -0.733418 0.980173 0
M  V30 6 C 1.537449 -0.141858 -0.286786 0
M  V30 7 C 2.900552 0.050376 -0.453950 0
M  V30 8 Cl 4.140604 -0.303508 0.715061 0
M  V30 9 C 3.409471 0.575131 -1.642626 0
M  V30 10 C 2.542636 0.905968 -2.663662 0
M  V30 11 C 1.180562 0.701950 -2.465509 0
M  V30 12 C 0.652539 0.175737 -1.276253 0
M  V30 13 C -0.775837 0.053556 -1.193537 0
M  V30 14 C -1.665395 0.518191 -0.368955 0
M  V30 15 S -1.563786 1.556344 1.087499 0
M  V30 16 C -3.085587 0.930649 1.836530 0
M  V30 17 O -3.408970 0.913960 3.046106 0
M  V30 18 N -3.794017 0.474589 0.693839 0
M  V30 19 C -3.092993 0.244449 -0.488884 0
M  V30 20 O -3.670670 -0.164058 -1.555023 0
M  V30 21 C 1.089744 -0.387240 2.380626 0
M  V30 22 H -0.941076 -0.846537 4.501880 0
M  V30 23 H -1.627131 -1.942082 3.461595 0
M  V30 24 H 0.757537 -2.008878 3.828049 0
M  V30 25 H -0.859147 -2.409049 1.305483 0
M  V30 26 H 0.216555 -3.531737 2.269299 0
M  V30 27 H 2.164209 -2.573414 1.520424 0
M  V30 28 H 1.125964 -2.642455 -0.008156 0
M  V30 29 H 4.464181 0.752453 -1.847040 0
M  V30 30 H 2.916212 1.319201 -3.606756 0
M  V30 31 H 0.501841 0.960056 -3.269657 0
M  V30 32 H -1.099459 -0.583444 -2.038068 0
M  V30 33 H -4.845619 0.329729 0.811591 0
M  V30 34 H 0.768411 0.634770 2.565680 0
M  V30 35 H 2.094585 -0.460573 2.919310 0
M  V30 END ATOM
M  V30 BEGIN BOND
M  V30 1 1 1 2
M  V30 2 1 2 3
M  V30 3 1 3 4
M  V30 4 1 4 5
M  V30 5 1 5 6
M  V30 6 2 6 7
M  V30 7 1 7 8
M  V30 8 1 7 9
M  V30 9 2 9 10
M  V30 10 1 10 11
M  V30 11 2 11 12
M  V30 12 1 12 13
M  V30 13 2 13 14
M  V30 14 1 14 15
M  V30 15 1 15 16
M  V30 16 2 16 17
M  V30 17 1 16 18
M  V30 18 1 18 19
M  V30 19 2 19 20
M  V30 20 1 5 21
M  V30 21 1 21 2
M  V30 22 1 12 6
M  V30 23 1 19 14
M  V30 24 1 1 22
M  V30 25 1 1 23
M  V30 26 1 2 24 CFG=1
M  V30 27 1 3 25
M  V30 28 1 3 26
M  V30 29 1 4 27
M  V30 30 1 4 28
M  V30 31 1 9 29
M  V30 32 1 10 30
M  V30 33 1 11 31
M  V30 34 1 13 32
M  V30 35 1 18 33
M  V30 36 1 21 34
M  V30 37 1 21 35
M  V30 END BOND
M  V30 END CTAB
M  END
>  <Dataset>  (416) 
ChEMBL_Kinases

>  <Ligand_Instance>  (416) 
nan

>  <PDB_ID>  (416) 
nan

>  <Standardized_SMILES>  (416) 
N[C@H]1CCN(c2c(Cl)cccc2/C=C2\SC(=O)NC2=O)C1

>  <Name>  (416) 
nan

>  <Pocket>  (416) 
nan

>  <ATP_Site>  (416) 
nan

>  <Peripheral>  (416) 
nan

>  <Num_H_Atoms_ProtBoundConf>  (416) 
nan

>  <Num_Resolved_Atoms>  (416) 
nan

>  <Num_Not_Resolved_Atoms>  (416) 
nan

$$$$
CHEMBL2048685
     RDKit          3D

  0  0  0  0  0  0  0  0  0  0999 V3000
M  V30 BEGIN CTAB
M  V30 COUNTS 40 43 0 0 0
M  V30 BEGIN ATOM
M  V30 1 C 2.663630 -3.215419 3.108719 0
M  V30 2 O 2.509739 -2.231539 2.118203 0
M  V30 3 C 3.355272 -2.148344 1.008250 0
M  V30 4 C 4.378709 -3.101989 0.924567 0
M  V30 5 C 5.251755 -3.091016 -0.135008 0
M  V30 6 N 5.142990 -2.160360 -1.119956 0
M  V30 7 C 4.129812 -1.244299 -1.002645 0
M  V30 8 C 3.221028 -1.193813 0.026765 0
M  V30 9 N 2.185783 -0.249706 0.124150 0
M  V30 10 C 1.778602 0.762003 -0.744507 0
M  V30 11 O 2.404110 0.898209 -1.825268 0
M  V30 12 C 0.729218 1.751991 -0.670634 0
M  V30 13 C 0.895862 3.048982 -1.110718 0
M  V30 14 C -0.067163 4.049503 -1.075886 0
M  V30 15 N -1.253655 3.682062 -0.559246 0
M  V30 16 C -1.449119 2.428126 -0.120743 0
M  V30 17 N -2.576008 1.954309 0.410336 0
M  V30 18 C -2.370116 0.644293 0.728835 0
M  V30 19 C -3.285678 -0.308175 1.328119 0
M  V30 20 C -2.921788 -1.606572 1.628605 0
M  V30 21 C -3.814905 -2.489631 2.197511 0
M  V30 22 N -5.078454 -2.072902 2.467450 0
M  V30 23 C -5.477048 -0.817443 2.192382 0
M  V30 24 C -4.587000 0.096357 1.614651 0
M  V30 25 N -1.098148 0.335847 0.380024 0
M  V30 26 C -0.508380 1.397205 -0.139795 0
M  V30 27 H 2.924420 -4.221339 2.721053 0
M  V30 28 H 3.350237 -2.871970 3.891430 0
M  V30 29 H 1.657680 -3.350942 3.572013 0
M  V30 30 H 4.577466 -3.875164 1.615505 0
M  V30 31 H 6.071036 -3.818722 -0.245619 0
M  V30 32 H 4.118563 -0.552073 -1.821503 0
M  V30 33 H 1.568421 -0.254015 0.990732 0
M  V30 34 H 1.881373 3.307357 -1.528563 0
M  V30 35 H 0.205815 5.022354 -1.456581 0
M  V30 36 H -3.494634 2.453679 0.580364 0
M  V30 37 H -1.904237 -1.942984 1.412410 0
M  V30 38 H -3.472954 -3.510932 2.418287 0
M  V30 39 H -6.486726 -0.469301 2.404264 0
M  V30 40 H -4.952030 1.117930 1.397872 0
M  V30 END ATOM
M  V30 BEGIN BOND
M  V30 1 1 1 2
M  V30 2 1 2 3
M  V30 3 2 3 4
M  V30 4 1 4 5
M  V30 5 2 5 6
M  V30 6 1 6 7
M  V30 7 2 7 8
M  V30 8 1 8 9
M  V30 9 1 9 10
M  V30 10 2 10 11
M  V30 11 1 10 12
M  V30 12 2 12 13
M  V30 13 1 13 14
M  V30 14 2 14 15
M  V30 15 1 15 16
M  V30 16 1 16 17
M  V30 17 1 17 18
M  V30 18 1 18 19
M  V30 19 2 19 20
M  V30 20 1 20 21
M  V30 21 2 21 22
M  V30 22 1 22 23
M  V30 23 2 23 24
M  V30 24 2 18 25
M  V30 25 1 25 26
M  V30 26 1 8 3
M  V30 27 1 26 12
M  V30 28 2 26 16
M  V30 29 1 24 19
M  V30 30 1 1 27
M  V30 31 1 1 28
M  V30 32 1 1 29
M  V30 33 1 4 30
M  V30 34 1 5 31
M  V30 35 1 7 32
M  V30 36 1 9 33
M  V30 37 1 13 34
M  V30 38 1 14 35
M  V30 39 1 17 36
M  V30 40 1 20 37
M  V30 41 1 21 38
M  V30 42 1 23 39
M  V30 43 1 24 40
M  V30 END BOND
M  V30 END CTAB
M  END
>  <Dataset>  (417) 
ChEMBL_Kinases

>  <Ligand_Instance>  (417) 
nan

>  <PDB_ID>  (417) 
nan

>  <Standardized_SMILES>  (417) 
COc1ccncc1NC(=O)c1ccnc2[nH]c(-c3ccncc3)nc12

>  <Name>  (417) 
nan

>  <Pocket>  (417) 
nan

>  <ATP_Site>  (417) 
nan

>  <Peripheral>  (417) 
nan

>  <Num_H_Atoms_ProtBoundConf>  (417) 
nan

>  <Num_Resolved_Atoms>  (417) 
nan

>  <Num_Not_Resolved_Atoms>  (417) 
nan

$$$$
CHEMBL2048684
     RDKit          3D

  0  0  0  0  0  0  0  0  0  0999 V3000
M  V30 BEGIN CTAB
M  V30 COUNTS 41 44 0 0 0
M  V30 BEGIN ATOM
M  V30 1 C 2.867756 -2.990747 2.435695 0
M  V30 2 O 3.014929 -2.113106 1.354419 0
M  V30 3 C 3.068362 -2.511702 0.026515 0
M  V30 4 C 2.967456 -3.872848 -0.207775 0
M  V30 5 C 3.020949 -4.273344 -1.533662 0
M  V30 6 N 3.161409 -3.407716 -2.538387 0
M  V30 7 C 3.263259 -2.072466 -2.353220 0
M  V30 8 C 3.213474 -1.650184 -1.054601 0
M  V30 9 N 3.302293 -0.271519 -0.635851 0
M  V30 10 C 1.961857 0.199502 -0.621945 0
M  V30 11 O 1.064596 -0.647041 -0.958856 0
M  V30 12 C 1.421204 1.525055 -0.277821 0
M  V30 13 C 1.995987 2.760746 -0.586428 0
M  V30 14 C 1.356148 3.911977 -0.188118 0
M  V30 15 N 0.201798 3.884674 0.484578 0
M  V30 16 C -0.393119 2.723836 0.806502 0
M  V30 17 N -1.536994 2.381365 1.466975 0
M  V30 18 C -1.640781 1.041541 1.498670 0
M  V30 19 C -2.712957 0.266188 2.107110 0
M  V30 20 C -3.777169 0.860378 2.739415 0
M  V30 21 C -4.779087 0.082293 3.307017 0
M  V30 22 C -4.717037 -1.306991 3.242148 0
M  V30 23 C -3.655231 -1.920269 2.611019 0
M  V30 24 Cl -3.518303 -3.658462 2.496460 0
M  V30 25 C -2.692565 -1.112586 2.066950 0
M  V30 26 N -0.572637 0.528271 0.864001 0
M  V30 27 C 0.212296 1.544280 0.427909 0
M  V30 28 H 3.866508 -3.406673 2.662394 0
M  V30 29 H 2.470587 -2.410819 3.317543 0
M  V30 30 H 2.164197 -3.831459 2.255277 0
M  V30 31 H 2.853154 -4.658982 0.506032 0
M  V30 32 H 2.951223 -5.311453 -1.810538 0
M  V30 33 H 3.377503 -1.325414 -3.126801 0
M  V30 34 H 3.978602 0.490048 -0.345899 0
M  V30 35 H 2.922234 2.680920 -1.129394 0
M  V30 36 H 1.864714 4.828125 -0.465855 0
M  V30 37 H -2.208869 3.067148 1.874147 0
M  V30 38 H -3.827833 1.940120 2.791591 0
M  V30 39 H -5.636688 0.520351 3.814677 0
M  V30 40 H -5.469251 -1.974693 3.666765 0
M  V30 41 H -1.851138 -1.604395 1.566425 0
M  V30 END ATOM
M  V30 BEGIN BOND
M  V30 1 1 1 2
M  V30 2 1 2 3
M  V30 3 2 3 4
M  V30 4 1 4 5
M  V30 5 2 5 6
M  V30 6 1 6 7
M  V30 7 2 7 8
M  V30 8 1 8 9
M  V30 9 1 9 10
M  V30 10 2 10 11
M  V30 11 1 10 12
M  V30 12 2 12 13
M  V30 13 1 13 14
M  V30 14 2 14 15
M  V30 15 1 15 16
M  V30 16 1 16 17
M  V30 17 1 17 18
M  V30 18 1 18 19
M  V30 19 2 19 20
M  V30 20 1 20 21
M  V30 21 2 21 22
M  V30 22 1 22 23
M  V30 23 1 23 24
M  V30 24 2 23 25
M  V30 25 2 18 26
M  V30 26 1 26 27
M  V30 27 1 8 3
M  V30 28 1 27 12
M  V30 29 2 27 16
M  V30 30 1 25 19
M  V30 31 1 1 28
M  V30 32 1 1 29
M  V30 33 1 1 30
M  V30 34 1 4 31
M  V30 35 1 5 32
M  V30 36 1 7 33
M  V30 37 1 9 34
M  V30 38 1 13 35
M  V30 39 1 14 36
M  V30 40 1 17 37
M  V30 41 1 20 38
M  V30 42 1 21 39
M  V30 43 1 22 40
M  V30 44 1 25 41
M  V30 END BOND
M  V30 END CTAB
M  END
>  <Dataset>  (418) 
ChEMBL_Kinases

>  <Ligand_Instance>  (418) 
nan

>  <PDB_ID>  (418) 
nan

>  <Standardized_SMILES>  (418) 
COc1ccncc1NC(=O)c1ccnc2[nH]c(-c3cccc(Cl)c3)nc12

>  <Name>  (418) 
nan

>  <Pocket>  (418) 
nan

>  <ATP_Site>  (418) 
nan

>  <Peripheral>  (418) 
nan

>  <Num_H_Atoms_ProtBoundConf>  (418) 
nan

>  <Num_Resolved_Atoms>  (418) 
nan

>  <Num_Not_Resolved_Atoms>  (418) 
nan

$$$$
CHEMBL2048683
     RDKit          3D

  0  0  0  0  0  0  0  0  0  0999 V3000
M  V30 BEGIN CTAB
M  V30 COUNTS 48 51 0 0 0
M  V30 BEGIN ATOM
M  V30 1 C 0.636690 -1.953990 -1.228780 0
M  V30 2 C 2.097624 -1.543659 -1.417605 0
M  V30 3 O 2.451734 -0.557957 -0.478645 0
M  V30 4 C 3.721165 -0.028256 -0.474718 0
M  V30 5 C 4.667500 -0.461001 -1.401756 0
M  V30 6 C 5.879254 0.167119 -1.261322 0
M  V30 7 N 6.164893 1.102985 -0.339309 0
M  V30 8 C 5.260611 1.524027 0.558435 0
M  V30 9 C 3.991581 0.951217 0.503275 0
M  V30 10 N 2.851968 1.237658 1.346758 0
M  V30 11 C 1.677308 2.065595 1.486679 0
M  V30 12 O 1.405727 2.941074 0.616285 0
M  V30 13 C 0.953457 1.691225 2.730399 0
M  V30 14 C 1.352926 1.996205 4.029167 0
M  V30 15 C 0.565814 1.528915 5.060386 0
M  V30 16 N -0.563002 0.796698 4.904773 0
M  V30 17 C -0.957690 0.495991 3.644227 0
M  V30 18 N -1.997706 -0.189225 3.144737 0
M  V30 19 C -1.954238 -0.205823 1.804999 0
M  V30 20 C -2.723028 -0.802595 0.723091 0
M  V30 21 C -2.559846 -0.458972 -0.597744 0
M  V30 22 C -3.230267 -1.033946 -1.642464 0
M  V30 23 C -4.146684 -2.047211 -1.318625 0
M  V30 24 C -4.342725 -2.430281 0.016685 0
M  V30 25 O -5.284199 -3.430721 -0.000347 0
M  V30 26 C -5.688030 -4.039473 1.198407 0
M  V30 27 C -3.616201 -1.787062 1.003009 0
M  V30 28 N -0.827995 0.508002 1.492405 0
M  V30 29 C -0.213271 0.937211 2.580881 0
M  V30 30 H 0.509607 -2.208814 -0.158703 0
M  V30 31 H 0.059805 -1.046333 -1.525996 0
M  V30 32 H 0.399160 -2.856767 -1.813835 0
M  V30 33 H 2.241328 -1.127095 -2.437349 0
M  V30 34 H 2.757204 -2.409336 -1.266206 0
M  V30 35 H 4.400030 -1.213200 -2.121895 0
M  V30 36 H 6.660053 -0.126751 -1.962786 0
M  V30 37 H 5.372387 2.263276 1.337266 0
M  V30 38 H 3.138070 0.488595 2.051296 0
M  V30 39 H 2.242595 2.572040 4.122214 0
M  V30 40 H 0.932132 1.808500 6.048079 0
M  V30 41 H -2.773992 -0.673862 3.641367 0
M  V30 42 H -1.838281 0.338223 -0.819789 0
M  V30 43 H -3.018034 -0.675101 -2.638070 0
M  V30 44 H -4.613380 -2.424072 -2.245517 0
M  V30 45 H -4.936894 -3.890256 2.009340 0
M  V30 46 H -5.819077 -5.144529 1.076830 0
M  V30 47 H -6.673926 -3.641687 1.551561 0
M  V30 48 H -3.868130 -2.173790 1.963637 0
M  V30 END ATOM
M  V30 BEGIN BOND
M  V30 1 1 1 2
M  V30 2 1 2 3
M  V30 3 1 3 4
M  V30 4 2 4 5
M  V30 5 1 5 6
M  V30 6 2 6 7
M  V30 7 1 7 8
M  V30 8 2 8 9
M  V30 9 1 9 10
M  V30 10 1 10 11
M  V30 11 2 11 12
M  V30 12 1 11 13
M  V30 13 2 13 14
M  V30 14 1 14 15
M  V30 15 2 15 16
M  V30 16 1 16 17
M  V30 17 1 17 18
M  V30 18 1 18 19
M  V30 19 1 19 20
M  V30 20 2 20 21
M  V30 21 1 21 22
M  V30 22 2 22 23
M  V30 23 1 23 24
M  V30 24 1 24 25
M  V30 25 1 25 26
M  V30 26 2 24 27
M  V30 27 2 19 28
M  V30 28 1 28 29
M  V30 29 1 9 4
M  V30 30 1 29 13
M  V30 31 2 29 17
M  V30 32 1 27 20
M  V30 33 1 1 30
M  V30 34 1 1 31
M  V30 35 1 1 32
M  V30 36 1 2 33
M  V30 37 1 2 34
M  V30 38 1 5 35
M  V30 39 1 6 36
M  V30 40 1 8 37
M  V30 41 1 10 38
M  V30 42 1 14 39
M  V30 43 1 15 40
M  V30 44 1 18 41
M  V30 45 1 21 42
M  V30 46 1 22 43
M  V30 47 1 23 44
M  V30 48 1 26 45
M  V30 49 1 26 46
M  V30 50 1 26 47
M  V30 51 1 27 48
M  V30 END BOND
M  V30 END CTAB
M  END
>  <Dataset>  (419) 
ChEMBL_Kinases

>  <Ligand_Instance>  (419) 
nan

>  <PDB_ID>  (419) 
nan

>  <Standardized_SMILES>  (419) 
CCOc1ccncc1NC(=O)c1ccnc2[nH]c(-c3cccc(OC)c3)nc12

>  <Name>  (419) 
nan

>  <Pocket>  (419) 
nan

>  <ATP_Site>  (419) 
nan

>  <Peripheral>  (419) 
nan

>  <Num_H_Atoms_ProtBoundConf>  (419) 
nan

>  <Num_Resolved_Atoms>  (419) 
nan

>  <Num_Not_Resolved_Atoms>  (419) 
nan

$$$$
CHEMBL2058047
     RDKit          3D

  0  0  0  0  0  0  0  0  0  0999 V3000
M  V30 BEGIN CTAB
M  V30 COUNTS 75 79 0 0 0
M  V30 BEGIN ATOM
M  V30 1 C 5.169424 2.106519 4.157339 0
M  V30 2 C 4.272009 2.159821 2.959339 0
M  V30 3 C 4.263469 1.209617 1.967378 0
M  V30 4 C 3.403331 1.314263 0.874817 0
M  V30 5 C 2.533909 2.398938 0.780183 0
M  V30 6 N 1.742774 2.330196 -0.394651 0
M  V30 7 N 2.176764 2.750583 -1.555044 0
M  V30 8 C 1.215114 2.565087 -2.505936 0
M  V30 9 C 1.413230 2.947703 -3.930097 0
M  V30 10 C 2.010753 1.772481 -4.676646 0
M  V30 11 C 2.280639 4.172851 -4.013724 0
M  V30 12 C 0.046436 3.179804 -4.545806 0
M  V30 13 C 0.165302 1.997698 -1.821573 0
M  V30 14 C 0.491391 1.847353 -0.491990 0
M  V30 15 N -0.288368 1.310043 0.568602 0
M  V30 16 C -1.589185 0.810527 0.438643 0
M  V30 17 O -2.138397 0.822574 -0.699176 0
M  V30 18 N -2.395169 0.266832 1.496941 0
M  V30 19 C -3.680431 -0.148643 0.988403 0
M  V30 20 C -4.591517 -0.749666 1.956137 0
M  V30 21 C -5.574550 0.025706 2.535800 0
M  V30 22 C -6.463750 -0.509860 3.448260 0
M  V30 23 F -7.411573 0.277594 3.995074 0
M  V30 24 C -6.338678 -1.843044 3.761713 0
M  V30 25 C -5.337197 -2.616302 3.166220 0
M  V30 26 C -4.430032 -2.084423 2.240326 0
M  V30 27 O -3.573851 -3.034762 1.814517 0
M  V30 28 C -2.264068 -3.276167 1.896724 0
M  V30 29 C -1.178360 -2.712779 2.494515 0
M  V30 30 C 0.109150 -3.162014 2.430649 0
M  V30 31 N 0.315126 -4.271703 1.703759 0
M  V30 32 C -0.700036 -4.878880 1.090206 0
M  V30 33 N -0.340394 -6.041762 0.357374 0
M  V30 34 C 1.010055 -6.514699 0.307181 0
M  V30 35 C 1.523973 -6.616674 -1.112047 0
M  V30 36 O 0.751072 -7.511242 -1.844013 0
M  V30 37 C -0.549055 -7.056935 -1.859073 0
M  V30 38 C -1.104282 -6.959196 -0.436638 0
M  V30 39 N -1.965460 -4.403938 1.175551 0
M  V30 40 C 2.542864 3.361523 1.785538 0
M  V30 41 C 3.404960 3.219205 2.841933 0
M  V30 42 H 6.045740 1.441162 3.942134 0
M  V30 43 H 5.579724 3.124930 4.390772 0
M  V30 44 H 4.618227 1.727477 5.043669 0
M  V30 45 H 4.973475 0.395831 2.118932 0
M  V30 46 H 3.511103 0.506260 0.191711 0
M  V30 47 H 1.241611 1.039660 -4.986659 0
M  V30 48 H 2.573735 2.099555 -5.581858 0
M  V30 49 H 2.730476 1.243586 -4.033941 0
M  V30 50 H 1.994642 4.893894 -3.232833 0
M  V30 51 H 3.341115 3.876320 -3.912962 0
M  V30 52 H 2.169617 4.607492 -5.044370 0
M  V30 53 H 0.093130 3.172312 -5.656728 0
M  V30 54 H -0.371597 4.116581 -4.140462 0
M  V30 55 H -0.596606 2.335732 -4.249946 0
M  V30 56 H -0.738673 1.736527 -2.306327 0
M  V30 57 H 0.133726 1.282225 1.530519 0
M  V30 58 H -1.844495 0.316788 2.404831 0
M  V30 59 H -3.450986 -0.858979 0.130037 0
M  V30 60 H -4.124328 0.731579 0.465919 0
M  V30 61 H -5.630469 1.069105 2.255432 0
M  V30 62 H -7.046406 -2.213850 4.470376 0
M  V30 63 H -5.378435 -3.648536 3.524502 0
M  V30 64 H -1.459444 -1.844022 3.065126 0
M  V30 65 H 0.872028 -2.611853 2.956629 0
M  V30 66 H 1.079963 -7.503045 0.818926 0
M  V30 67 H 1.677276 -5.810743 0.865430 0
M  V30 68 H 2.570449 -6.956689 -1.092811 0
M  V30 69 H 1.480362 -5.608030 -1.569904 0
M  V30 70 H -0.562980 -6.054450 -2.351636 0
M  V30 71 H -1.176126 -7.735700 -2.464733 0
M  V30 72 H -2.158509 -6.571217 -0.537765 0
M  V30 73 H -1.092073 -7.986782 -0.025019 0
M  V30 74 H 1.830585 4.136266 1.590787 0
M  V30 75 H 3.342868 4.015273 3.576358 0
M  V30 END ATOM
M  V30 BEGIN BOND
M  V30 1 1 1 2
M  V30 2 2 2 3
M  V30 3 1 3 4
M  V30 4 2 4 5
M  V30 5 1 5 6
M  V30 6 1 6 7
M  V30 7 2 7 8
M  V30 8 1 8 9
M  V30 9 1 9 10
M  V30 10 1 9 11
M  V30 11 1 9 12
M  V30 12 1 8 13
M  V30 13 2 13 14
M  V30 14 1 14 15
M  V30 15 1 15 16
M  V30 16 2 16 17
M  V30 17 1 16 18
M  V30 18 1 18 19
M  V30 19 1 19 20
M  V30 20 2 20 21
M  V30 21 1 21 22
M  V30 22 1 22 23
M  V30 23 2 22 24
M  V30 24 1 24 25
M  V30 25 2 25 26
M  V30 26 1 26 27
M  V30 27 1 27 28
M  V30 28 2 28 29
M  V30 29 1 29 30
M  V30 30 2 30 31
M  V30 31 1 31 32
M  V30 32 1 32 33
M  V30 33 1 33 34
M  V30 34 1 34 35
M  V30 35 1 35 36
M  V30 36 1 36 37
M  V30 37 1 37 38
M  V30 38 2 32 39
M  V30 39 1 5 40
M  V30 40 2 40 41
M  V30 41 1 41 2
M  V30 42 1 14 6
M  V30 43 1 26 20
M  V30 44 1 39 28
M  V30 45 1 38 33
M  V30 46 1 1 42
M  V30 47 1 1 43
M  V30 48 1 1 44
M  V30 49 1 3 45
M  V30 50 1 4 46
M  V30 51 1 10 47
M  V30 52 1 10 48
M  V30 53 1 10 49
M  V30 54 1 11 50
M  V30 55 1 11 51
M  V30 56 1 11 52
M  V30 57 1 12 53
M  V30 58 1 12 54
M  V30 59 1 12 55
M  V30 60 1 13 56
M  V30 61 1 15 57
M  V30 62 1 18 58
M  V30 63 1 19 59
M  V30 64 1 19 60
M  V30 65 1 21 61
M  V30 66 1 24 62
M  V30 67 1 25 63
M  V30 68 1 29 64
M  V30 69 1 30 65
M  V30 70 1 34 66
M  V30 71 1 34 67
M  V30 72 1 35 68
M  V30 73 1 35 69
M  V30 74 1 37 70
M  V30 75 1 37 71
M  V30 76 1 38 72
M  V30 77 1 38 73
M  V30 78 1 40 74
M  V30 79 1 41 75
M  V30 END BOND
M  V30 END CTAB
M  END
>  <Dataset>  (420) 
ChEMBL_Kinases

>  <Ligand_Instance>  (420) 
nan

>  <PDB_ID>  (420) 
nan

>  <Standardized_SMILES>  (420) 
Cc1ccc(-n2nc(C(C)(C)C)cc2NC(=O)NCc2cc(F)ccc2Oc2ccnc(N3CCOCC3)n2)cc1

>  <Name>  (420) 
nan

>  <Pocket>  (420) 
nan

>  <ATP_Site>  (420) 
nan

>  <Peripheral>  (420) 
nan

>  <Num_H_Atoms_ProtBoundConf>  (420) 
nan

>  <Num_Resolved_Atoms>  (420) 
nan

>  <Num_Not_Resolved_Atoms>  (420) 
nan

$$$$
CHEMBL2048666
     RDKit          3D

  0  0  0  0  0  0  0  0  0  0999 V3000
M  V30 BEGIN CTAB
M  V30 COUNTS 45 48 0 0 0
M  V30 BEGIN ATOM
M  V30 1 O -1.379548 1.511049 3.232175 0
M  V30 2 C -0.164693 1.244269 2.932178 0
M  V30 3 N 0.495529 1.997402 1.881469 0
M  V30 4 C -0.123625 3.036538 1.124915 0
M  V30 5 C 0.838075 3.607201 0.114253 0
M  V30 6 C 1.306939 2.563960 -0.811493 0
M  V30 7 C 2.535045 1.932778 -0.598403 0
M  V30 8 C 3.061946 0.919268 -1.385657 0
M  V30 9 C 2.304160 0.499074 -2.477215 0
M  V30 10 C 1.099374 1.101286 -2.708253 0
M  V30 11 O 0.324923 0.689139 -3.805230 0
M  V30 12 C 0.571601 2.122011 -1.912866 0
M  V30 13 C 0.755629 0.221901 3.506193 0
M  V30 14 C 1.821221 0.381822 4.363485 0
M  V30 15 C 2.509453 -0.768492 4.689607 0
M  V30 16 N 2.209586 -1.998093 4.232636 0
M  V30 17 C 1.159808 -2.197492 3.379177 0
M  V30 18 N 0.628625 -3.266080 2.768542 0
M  V30 19 C -0.417337 -2.864581 2.031425 0
M  V30 20 C -1.360089 -3.544052 1.153926 0
M  V30 21 C -2.423773 -2.900860 0.534312 0
M  V30 22 C -3.316132 -3.501561 -0.292760 0
M  V30 23 C -3.177643 -4.850068 -0.554850 0
M  V30 24 F -4.082131 -5.406661 -1.387333 0
M  V30 25 C -2.128556 -5.568020 0.033830 0
M  V30 26 C -1.246141 -4.887435 0.876265 0
M  V30 27 N -0.505700 -1.542229 2.207530 0
M  V30 28 C 0.435274 -1.056023 3.025309 0
M  V30 29 H 1.484977 1.774439 1.656385 0
M  V30 30 H -0.994430 2.646870 0.513345 0
M  V30 31 H -0.580131 3.832055 1.751626 0
M  V30 32 H 0.345149 4.406200 -0.503059 0
M  V30 33 H 1.684933 4.129472 0.614501 0
M  V30 34 H 3.248848 2.167992 0.208274 0
M  V30 35 H 3.991379 0.419914 -1.253135 0
M  V30 36 H 2.670640 -0.291015 -3.125135 0
M  V30 37 H 0.531321 -0.237423 -4.186088 0
M  V30 38 H -0.396530 2.583276 -2.124619 0
M  V30 39 H 1.959652 1.394413 4.662595 0
M  V30 40 H 3.348701 -0.592458 5.375088 0
M  V30 41 H 0.937518 -4.256342 2.818053 0
M  V30 42 H -2.544947 -1.844116 0.736060 0
M  V30 43 H -4.122100 -2.898394 -0.728313 0
M  V30 44 H -2.029520 -6.618359 -0.180710 0
M  V30 45 H -0.438448 -5.465580 1.332114 0
M  V30 END ATOM
M  V30 BEGIN BOND
M  V30 1 2 1 2
M  V30 2 1 2 3
M  V30 3 1 3 4
M  V30 4 1 4 5
M  V30 5 1 5 6
M  V30 6 2 6 7
M  V30 7 1 7 8
M  V30 8 2 8 9
M  V30 9 1 9 10
M  V30 10 1 10 11
M  V30 11 2 10 12
M  V30 12 1 2 13
M  V30 13 2 13 14
M  V30 14 1 14 15
M  V30 15 2 15 16
M  V30 16 1 16 17
M  V30 17 1 17 18
M  V30 18 1 18 19
M  V30 19 1 19 20
M  V30 20 2 20 21
M  V30 21 1 21 22
M  V30 22 2 22 23
M  V30 23 1 23 24
M  V30 24 1 23 25
M  V30 25 2 25 26
M  V30 26 2 19 27
M  V30 27 1 27 28
M  V30 28 1 12 6
M  V30 29 1 28 13
M  V30 30 2 28 17
M  V30 31 1 26 20
M  V30 32 1 3 29
M  V30 33 1 4 30
M  V30 34 1 4 31
M  V30 35 1 5 32
M  V30 36 1 5 33
M  V30 37 1 7 34
M  V30 38 1 8 35
M  V30 39 1 9 36
M  V30 40 1 11 37
M  V30 41 1 12 38
M  V30 42 1 14 39
M  V30 43 1 15 40
M  V30 44 1 18 41
M  V30 45 1 21 42
M  V30 46 1 22 43
M  V30 47 1 25 44
M  V30 48 1 26 45
M  V30 END BOND
M  V30 END CTAB
M  END
>  <Dataset>  (421) 
ChEMBL_Kinases

>  <Ligand_Instance>  (421) 
nan

>  <PDB_ID>  (421) 
nan

>  <Standardized_SMILES>  (421) 
O=C(NCCc1cccc(O)c1)c1ccnc2[nH]c(-c3ccc(F)cc3)nc12

>  <Name>  (421) 
nan

>  <Pocket>  (421) 
nan

>  <ATP_Site>  (421) 
nan

>  <Peripheral>  (421) 
nan

>  <Num_H_Atoms_ProtBoundConf>  (421) 
nan

>  <Num_Resolved_Atoms>  (421) 
nan

>  <Num_Not_Resolved_Atoms>  (421) 
nan

$$$$
CHEMBL2048667
     RDKit          3D

  0  0  0  0  0  0  0  0  0  0999 V3000
M  V30 BEGIN CTAB
M  V30 COUNTS 52 55 0 0 0
M  V30 BEGIN ATOM
M  V30 1 C 0.578128 -4.750375 1.707717 0
M  V30 2 S 1.873440 -4.547188 2.861913 0
M  V30 3 O 1.644344 -5.544210 3.987434 0
M  V30 4 O 3.219833 -4.893285 2.252401 0
M  V30 5 N 2.004806 -2.992410 3.546142 0
M  V30 6 C 2.258942 -1.804104 2.830675 0
M  V30 7 C 3.209296 -0.880393 3.211700 0
M  V30 8 C 3.494127 0.292322 2.525272 0
M  V30 9 C 2.788306 0.577736 1.374710 0
M  V30 10 C 3.143321 1.833262 0.674828 0
M  V30 11 C 2.423467 3.046249 1.152979 0
M  V30 12 N 1.001432 2.926407 1.014052 0
M  V30 13 C 0.250414 2.729998 -0.153839 0
M  V30 14 O 0.879228 2.639423 -1.261900 0
M  V30 15 C -1.201530 2.622830 -0.188663 0
M  V30 16 C -1.925807 3.783222 0.051826 0
M  V30 17 C -3.303012 3.777958 0.037348 0
M  V30 18 N -3.949746 2.609165 -0.217791 0
M  V30 19 C -3.306386 1.465222 -0.455016 0
M  V30 20 N -3.614348 0.179897 -0.729683 0
M  V30 21 C -2.533309 -0.592053 -0.882400 0
M  V30 22 C -2.446456 -2.004942 -1.177459 0
M  V30 23 C -3.587272 -2.758174 -1.344289 0
M  V30 24 C -3.473672 -4.116304 -1.625169 0
M  V30 25 C -2.238891 -4.731679 -1.741473 0
M  V30 26 F -2.120734 -6.060986 -2.014033 0
M  V30 27 C -1.109340 -3.968566 -1.572791 0
M  V30 28 C -1.226050 -2.625375 -1.295322 0
M  V30 29 N -1.476929 0.241639 -0.696317 0
M  V30 30 C -1.923208 1.478403 -0.439066 0
M  V30 31 C 1.814765 -0.322105 0.943953 0
M  V30 32 C 1.568551 -1.475613 1.661438 0
M  V30 33 H 0.818164 -4.434846 0.672130 0
M  V30 34 H -0.388323 -4.325924 2.037933 0
M  V30 35 H 0.391706 -5.860957 1.608221 0
M  V30 36 H 1.899514 -2.823677 4.578719 0
M  V30 37 H 3.776252 -1.085119 4.115014 0
M  V30 38 H 4.265330 0.964095 2.904533 0
M  V30 39 H 4.230041 2.036252 0.748168 0
M  V30 40 H 2.954385 1.756141 -0.432721 0
M  V30 41 H 2.794378 3.890386 0.495679 0
M  V30 42 H 2.688326 3.281905 2.193260 0
M  V30 43 H 0.390736 2.985675 1.874431 0
M  V30 44 H -1.399936 4.725220 0.258034 0
M  V30 45 H -3.909079 4.667430 0.220389 0
M  V30 46 H -4.615097 -0.123669 -0.802257 0
M  V30 47 H -4.550164 -2.299962 -1.259445 0
M  V30 48 H -4.330703 -4.760701 -1.766007 0
M  V30 49 H -0.112205 -4.393985 -1.651228 0
M  V30 50 H -0.337288 -2.032928 -1.164818 0
M  V30 51 H 1.274956 -0.075101 0.039480 0
M  V30 52 H 0.807639 -2.122747 1.274995 0
M  V30 END ATOM
M  V30 BEGIN BOND
M  V30 1 1 1 2
M  V30 2 2 2 3
M  V30 3 2 2 4
M  V30 4 1 2 5
M  V30 5 1 5 6
M  V30 6 2 6 7
M  V30 7 1 7 8
M  V30 8 2 8 9
M  V30 9 1 9 10
M  V30 10 1 10 11
M  V30 11 1 11 12
M  V30 12 1 12 13
M  V30 13 2 13 14
M  V30 14 1 13 15
M  V30 15 2 15 16
M  V30 16 1 16 17
M  V30 17 2 17 18
M  V30 18 1 18 19
M  V30 19 1 19 20
M  V30 20 1 20 21
M  V30 21 1 21 22
M  V30 22 2 22 23
M  V30 23 1 23 24
M  V30 24 2 24 25
M  V30 25 1 25 26
M  V30 26 1 25 27
M  V30 27 2 27 28
M  V30 28 2 21 29
M  V30 29 1 29 30
M  V30 30 1 9 31
M  V30 31 2 31 32
M  V30 32 1 32 6
M  V30 33 1 30 15
M  V30 34 2 30 19
M  V30 35 1 28 22
M  V30 36 1 1 33
M  V30 37 1 1 34
M  V30 38 1 1 35
M  V30 39 1 5 36
M  V30 40 1 7 37
M  V30 41 1 8 38
M  V30 42 1 10 39
M  V30 43 1 10 40
M  V30 44 1 11 41
M  V30 45 1 11 42
M  V30 46 1 12 43
M  V30 47 1 16 44
M  V30 48 1 17 45
M  V30 49 1 20 46
M  V30 50 1 23 47
M  V30 51 1 24 48
M  V30 52 1 27 49
M  V30 53 1 28 50
M  V30 54 1 31 51
M  V30 55 1 32 52
M  V30 END BOND
M  V30 END CTAB
M  END
>  <Dataset>  (422) 
ChEMBL_Kinases

>  <Ligand_Instance>  (422) 
nan

>  <PDB_ID>  (422) 
nan

>  <Standardized_SMILES>  (422) 
CS(=O)(=O)Nc1ccc(CCNC(=O)c2ccnc3[nH]c(-c4ccc(F)cc4)nc23)cc1

>  <Name>  (422) 
nan

>  <Pocket>  (422) 
nan

>  <ATP_Site>  (422) 
nan

>  <Peripheral>  (422) 
nan

>  <Num_H_Atoms_ProtBoundConf>  (422) 
nan

>  <Num_Resolved_Atoms>  (422) 
nan

>  <Num_Not_Resolved_Atoms>  (422) 
nan

$$$$
CHEMBL2048668
     RDKit          3D

  0  0  0  0  0  0  0  0  0  0999 V3000
M  V30 BEGIN CTAB
M  V30 COUNTS 57 60 0 0 0
M  V30 BEGIN ATOM
M  V30 1 C 3.466116 -2.324654 2.743736 0
M  V30 2 N 3.533617 -0.901831 2.465419 0
M  V30 3 C 3.525290 -0.098839 3.646852 0
M  V30 4 S 4.794514 -0.531012 1.352459 0
M  V30 5 O 5.400742 0.813420 1.638275 0
M  V30 6 O 5.867865 -1.572227 1.510395 0
M  V30 7 N 4.230060 -0.610260 -0.276512 0
M  V30 8 C 3.203839 0.240803 -0.773093 0
M  V30 9 C 3.137228 1.610070 -0.758854 0
M  V30 10 C 2.093237 2.335050 -1.276182 0
M  V30 11 C 1.027947 1.696548 -1.849872 0
M  V30 12 C -0.200635 2.269048 -2.476617 0
M  V30 13 C -1.098424 2.657012 -1.300257 0
M  V30 14 N -1.302034 1.488662 -0.479209 0
M  V30 15 C -2.114209 1.780753 0.662646 0
M  V30 16 O -2.605497 2.935707 0.893868 0
M  V30 17 C -2.416706 0.732784 1.640391 0
M  V30 18 C -2.364134 1.116293 2.974033 0
M  V30 19 C -2.607203 0.192748 3.963975 0
M  V30 20 N -2.902171 -1.104203 3.684845 0
M  V30 21 C -2.959710 -1.508768 2.379468 0
M  V30 22 N -3.202988 -2.670069 1.750161 0
M  V30 23 C -3.121851 -2.508103 0.416921 0
M  V30 24 C -3.297390 -3.552175 -0.582219 0
M  V30 25 C -3.485254 -4.830976 -0.113709 0
M  V30 26 C -3.661010 -5.865164 -1.015857 0
M  V30 27 C -3.640679 -5.554108 -2.375532 0
M  V30 28 F -3.807734 -6.523455 -3.336274 0
M  V30 29 C -3.449734 -4.248927 -2.820598 0
M  V30 30 C -3.273248 -3.219984 -1.918852 0
M  V30 31 N -2.817668 -1.191421 0.223907 0
M  V30 32 C -2.717278 -0.582092 1.412552 0
M  V30 33 C 1.073460 0.294593 -1.874833 0
M  V30 34 C 2.136971 -0.427787 -1.350941 0
M  V30 35 H 4.305708 -2.559991 3.443576 0
M  V30 36 H 3.654022 -2.913952 1.837802 0
M  V30 37 H 2.532162 -2.619047 3.237285 0
M  V30 38 H 4.493508 0.424553 3.743614 0
M  V30 39 H 3.467261 -0.818485 4.513689 0
M  V30 40 H 2.639857 0.570280 3.720147 0
M  V30 41 H 4.609246 -1.279635 -0.978625 0
M  V30 42 H 3.977042 2.103998 -0.310816 0
M  V30 43 H 2.025209 3.400963 -1.276036 0
M  V30 44 H 0.065351 3.163850 -3.090464 0
M  V30 45 H -0.737661 1.532370 -3.082659 0
M  V30 46 H -2.099522 3.000502 -1.700961 0
M  V30 47 H -0.685614 3.527302 -0.751635 0
M  V30 48 H -1.002049 0.495560 -0.522998 0
M  V30 49 H -2.144178 2.115454 3.337768 0
M  V30 50 H -2.581077 0.444948 5.011894 0
M  V30 51 H -3.412834 -3.508721 2.326515 0
M  V30 52 H -3.504882 -5.102059 0.930126 0
M  V30 53 H -3.807978 -6.885503 -0.704141 0
M  V30 54 H -3.429649 -3.954825 -3.861812 0
M  V30 55 H -3.116825 -2.176441 -2.181521 0
M  V30 56 H 0.264769 -0.308861 -2.325273 0
M  V30 57 H 2.104821 -1.503446 -1.404879 0
M  V30 END ATOM
M  V30 BEGIN BOND
M  V30 1 1 1 2
M  V30 2 1 2 3
M  V30 3 1 2 4
M  V30 4 2 4 5
M  V30 5 2 4 6
M  V30 6 1 4 7
M  V30 7 1 7 8
M  V30 8 2 8 9
M  V30 9 1 9 10
M  V30 10 2 10 11
M  V30 11 1 11 12
M  V30 12 1 12 13
M  V30 13 1 13 14
M  V30 14 1 14 15
M  V30 15 2 15 16
M  V30 16 1 15 17
M  V30 17 2 17 18
M  V30 18 1 18 19
M  V30 19 2 19 20
M  V30 20 1 20 21
M  V30 21 1 21 22
M  V30 22 1 22 23
M  V30 23 1 23 24
M  V30 24 2 24 25
M  V30 25 1 25 26
M  V30 26 2 26 27
M  V30 27 1 27 28
M  V30 28 1 27 29
M  V30 29 2 29 30
M  V30 30 2 23 31
M  V30 31 1 31 32
M  V30 32 1 11 33
M  V30 33 2 33 34
M  V30 34 1 34 8
M  V30 35 1 32 17
M  V30 36 2 32 21
M  V30 37 1 30 24
M  V30 38 1 1 35
M  V30 39 1 1 36
M  V30 40 1 1 37
M  V30 41 1 3 38
M  V30 42 1 3 39
M  V30 43 1 3 40
M  V30 44 1 7 41
M  V30 45 1 9 42
M  V30 46 1 10 43
M  V30 47 1 12 44
M  V30 48 1 12 45
M  V30 49 1 13 46
M  V30 50 1 13 47
M  V30 51 1 14 48
M  V30 52 1 18 49
M  V30 53 1 19 50
M  V30 54 1 22 51
M  V30 55 1 25 52
M  V30 56 1 26 53
M  V30 57 1 29 54
M  V30 58 1 30 55
M  V30 59 1 33 56
M  V30 60 1 34 57
M  V30 END BOND
M  V30 END CTAB
M  END
>  <Dataset>  (423) 
ChEMBL_Kinases

>  <Ligand_Instance>  (423) 
nan

>  <PDB_ID>  (423) 
nan

>  <Standardized_SMILES>  (423) 
CN(C)S(=O)(=O)Nc1ccc(CCNC(=O)c2ccnc3[nH]c(-c4ccc(F)cc4)nc23)cc1

>  <Name>  (423) 
nan

>  <Pocket>  (423) 
nan

>  <ATP_Site>  (423) 
nan

>  <Peripheral>  (423) 
nan

>  <Num_H_Atoms_ProtBoundConf>  (423) 
nan

>  <Num_Resolved_Atoms>  (423) 
nan

>  <Num_Not_Resolved_Atoms>  (423) 
nan

$$$$
CHEMBL2048669
     RDKit          3D

  0  0  0  0  0  0  0  0  0  0999 V3000
M  V30 BEGIN CTAB
M  V30 COUNTS 52 55 0 0 0
M  V30 BEGIN ATOM
M  V30 1 C 3.421739 -5.076670 2.400801 0
M  V30 2 S 3.133298 -4.314035 3.990067 0
M  V30 3 O 2.654987 -5.397569 4.915910 0
M  V30 4 O 4.380180 -3.688913 4.509139 0
M  V30 5 N 1.865932 -3.141727 3.777922 0
M  V30 6 C 2.053026 -2.046000 2.897162 0
M  V30 7 C 3.223592 -1.312411 2.892633 0
M  V30 8 C 3.374517 -0.256030 2.023373 0
M  V30 9 C 2.383786 0.135219 1.112254 0
M  V30 10 C 2.775721 1.287442 0.283079 0
M  V30 11 C 2.431174 2.604710 0.884217 0
M  V30 12 N 1.018687 2.722971 1.072400 0
M  V30 13 C 0.120492 2.663026 0.000879 0
M  V30 14 O 0.437832 2.500692 -1.204157 0
M  V30 15 C -1.316256 2.748894 -0.147933 0
M  V30 16 C -1.907089 4.000898 0.078827 0
M  V30 17 C -3.292585 4.159254 -0.051430 0
M  V30 18 N -4.078743 3.101251 -0.399977 0
M  V30 19 C -3.567128 1.873470 -0.630743 0
M  V30 20 N -4.036472 0.659847 -0.976206 0
M  V30 21 C -3.028712 -0.226239 -1.064401 0
M  V30 22 C -3.073672 -1.642967 -1.404658 0
M  V30 23 C -4.244527 -2.281969 -1.706603 0
M  V30 24 C -4.213957 -3.627174 -2.015133 0
M  V30 25 C -3.020536 -4.365612 -2.030305 0
M  V30 26 Cl -2.913045 -6.063748 -2.409290 0
M  V30 27 C -1.847045 -3.706765 -1.723398 0
M  V30 28 C -1.915352 -2.384438 -1.425505 0
M  V30 29 N -1.919011 0.469091 -0.764480 0
M  V30 30 C -2.202576 1.755216 -0.492699 0
M  V30 31 C 1.221852 -0.605719 1.128302 0
M  V30 32 C 1.083181 -1.659748 2.002728 0
M  V30 33 H 4.048353 -4.390226 1.793178 0
M  V30 34 H 2.432237 -5.199731 1.911068 0
M  V30 35 H 3.961583 -6.036845 2.535853 0
M  V30 36 H 0.955862 -3.237366 4.305010 0
M  V30 37 H 4.003911 -1.592875 3.586112 0
M  V30 38 H 4.344996 0.257617 2.106588 0
M  V30 39 H 3.872957 1.222709 0.025090 0
M  V30 40 H 2.282731 1.186736 -0.724915 0
M  V30 41 H 2.750394 3.458536 0.226745 0
M  V30 42 H 2.940925 2.739160 1.872047 0
M  V30 43 H 0.465097 2.861998 1.961158 0
M  V30 44 H -1.383608 4.916304 0.362978 0
M  V30 45 H -3.762972 5.128020 0.122446 0
M  V30 46 H -5.054937 0.447814 -1.145965 0
M  V30 47 H -5.178038 -1.752928 -1.703776 0
M  V30 48 H -5.107611 -4.202819 -2.265525 0
M  V30 49 H -0.887870 -4.245746 -1.722810 0
M  V30 50 H -0.989854 -1.866888 -1.182516 0
M  V30 51 H 0.495907 -0.260753 0.408912 0
M  V30 52 H 0.170992 -2.213502 1.989235 0
M  V30 END ATOM
M  V30 BEGIN BOND
M  V30 1 1 1 2
M  V30 2 2 2 3
M  V30 3 2 2 4
M  V30 4 1 2 5
M  V30 5 1 5 6
M  V30 6 2 6 7
M  V30 7 1 7 8
M  V30 8 2 8 9
M  V30 9 1 9 10
M  V30 10 1 10 11
M  V30 11 1 11 12
M  V30 12 1 12 13
M  V30 13 2 13 14
M  V30 14 1 13 15
M  V30 15 2 15 16
M  V30 16 1 16 17
M  V30 17 2 17 18
M  V30 18 1 18 19
M  V30 19 1 19 20
M  V30 20 1 20 21
M  V30 21 1 21 22
M  V30 22 2 22 23
M  V30 23 1 23 24
M  V30 24 2 24 25
M  V30 25 1 25 26
M  V30 26 1 25 27
M  V30 27 2 27 28
M  V30 28 2 21 29
M  V30 29 1 29 30
M  V30 30 1 9 31
M  V30 31 2 31 32
M  V30 32 1 32 6
M  V30 33 1 30 15
M  V30 34 2 30 19
M  V30 35 1 28 22
M  V30 36 1 1 33
M  V30 37 1 1 34
M  V30 38 1 1 35
M  V30 39 1 5 36
M  V30 40 1 7 37
M  V30 41 1 8 38
M  V30 42 1 10 39
M  V30 43 1 10 40
M  V30 44 1 11 41
M  V30 45 1 11 42
M  V30 46 1 12 43
M  V30 47 1 16 44
M  V30 48 1 17 45
M  V30 49 1 20 46
M  V30 50 1 23 47
M  V30 51 1 24 48
M  V30 52 1 27 49
M  V30 53 1 28 50
M  V30 54 1 31 51
M  V30 55 1 32 52
M  V30 END BOND
M  V30 END CTAB
M  END
>  <Dataset>  (424) 
ChEMBL_Kinases

>  <Ligand_Instance>  (424) 
nan

>  <PDB_ID>  (424) 
nan

>  <Standardized_SMILES>  (424) 
CS(=O)(=O)Nc1ccc(CCNC(=O)c2ccnc3[nH]c(-c4ccc(Cl)cc4)nc23)cc1

>  <Name>  (424) 
nan

>  <Pocket>  (424) 
nan

>  <ATP_Site>  (424) 
nan

>  <Peripheral>  (424) 
nan

>  <Num_H_Atoms_ProtBoundConf>  (424) 
nan

>  <Num_Resolved_Atoms>  (424) 
nan

>  <Num_Not_Resolved_Atoms>  (424) 
nan

$$$$
CHEMBL2048670
     RDKit          3D

  0  0  0  0  0  0  0  0  0  0999 V3000
M  V30 BEGIN CTAB
M  V30 COUNTS 49 52 0 0 0
M  V30 BEGIN ATOM
M  V30 1 C 0.340406 -1.833182 4.285855 0
M  V30 2 S 0.395375 -3.343377 3.342948 0
M  V30 3 O 0.348851 -4.459157 4.366945 0
M  V30 4 O -0.780092 -3.510002 2.447750 0
M  V30 5 N 1.909761 -3.419208 2.546633 0
M  V30 6 C 2.292807 -2.428879 1.592964 0
M  V30 7 C 3.532105 -1.829398 1.543297 0
M  V30 8 C 3.845929 -0.855943 0.585737 0
M  V30 9 C 2.916654 -0.457563 -0.351772 0
M  V30 10 C 3.162053 0.551491 -1.406394 0
M  V30 11 C 2.946400 1.924943 -0.805225 0
M  V30 12 N 1.593212 2.017745 -0.312550 0
M  V30 13 C 0.336929 1.907503 -1.013481 0
M  V30 14 O 0.486466 1.698631 -2.255729 0
M  V30 15 C -0.825413 2.062505 -0.123501 0
M  V30 16 C -1.034915 3.248231 0.547453 0
M  V30 17 C -2.113118 3.396439 1.395036 0
M  V30 18 N -2.969945 2.363472 1.564880 0
M  V30 19 C -2.796073 1.210593 0.933630 0
M  V30 20 N -3.522757 0.079970 0.964776 0
M  V30 21 C -2.930812 -0.805067 0.145839 0
M  V30 22 C -3.273150 -2.192706 -0.220922 0
M  V30 23 C -2.660168 -3.095185 -1.066895 0
M  V30 24 C -3.434473 -4.244746 -1.018574 0
M  V30 25 O -4.452862 -4.079549 -0.206515 0
M  V30 26 C -4.396254 -2.845664 0.302288 0
M  V30 27 N -1.826192 -0.212117 -0.396269 0
M  V30 28 C -1.723772 1.040662 0.080581 0
M  V30 29 C 1.672983 -1.076442 -0.282008 0
M  V30 30 C 1.354389 -2.034918 0.655692 0
M  V30 31 H -0.456494 -1.875218 5.082758 0
M  V30 32 H 0.162397 -0.936246 3.667782 0
M  V30 33 H 1.300093 -1.749950 4.817600 0
M  V30 34 H 2.635067 -4.182052 2.703546 0
M  V30 35 H 4.279855 -2.132554 2.277459 0
M  V30 36 H 4.829821 -0.396342 0.564408 0
M  V30 37 H 2.438097 0.423838 -2.220263 0
M  V30 38 H 4.203903 0.466241 -1.826649 0
M  V30 39 H 3.690663 2.068981 -0.009525 0
M  V30 40 H 3.147328 2.694535 -1.590724 0
M  V30 41 H 1.568107 2.193320 0.725670 0
M  V30 42 H -0.304451 4.019359 0.353983 0
M  V30 43 H -2.163073 4.384282 1.865109 0
M  V30 44 H -4.391503 -0.142664 1.498072 0
M  V30 45 H -1.765094 -2.833672 -1.598047 0
M  V30 46 H -3.069945 -5.063455 -1.647731 0
M  V30 47 H -5.128622 -2.446258 1.010420 0
M  V30 48 H 0.841154 -0.872267 -0.965633 0
M  V30 49 H 0.381275 -2.506410 0.694895 0
M  V30 END ATOM
M  V30 BEGIN BOND
M  V30 1 1 1 2
M  V30 2 2 2 3
M  V30 3 2 2 4
M  V30 4 1 2 5
M  V30 5 1 5 6
M  V30 6 2 6 7
M  V30 7 1 7 8
M  V30 8 2 8 9
M  V30 9 1 9 10
M  V30 10 1 10 11
M  V30 11 1 11 12
M  V30 12 1 12 13
M  V30 13 2 13 14
M  V30 14 1 13 15
M  V30 15 2 15 16
M  V30 16 1 16 17
M  V30 17 2 17 18
M  V30 18 1 18 19
M  V30 19 1 19 20
M  V30 20 1 20 21
M  V30 21 1 21 22
M  V30 22 1 22 23
M  V30 23 2 23 24
M  V30 24 1 24 25
M  V30 25 1 25 26
M  V30 26 2 21 27
M  V30 27 1 27 28
M  V30 28 1 9 29
M  V30 29 2 29 30
M  V30 30 1 30 6
M  V30 31 1 28 15
M  V30 32 2 28 19
M  V30 33 2 26 22
M  V30 34 1 1 31
M  V30 35 1 1 32
M  V30 36 1 1 33
M  V30 37 1 5 34
M  V30 38 1 7 35
M  V30 39 1 8 36
M  V30 40 1 10 37
M  V30 41 1 10 38
M  V30 42 1 11 39
M  V30 43 1 11 40
M  V30 44 1 12 41
M  V30 45 1 16 42
M  V30 46 1 17 43
M  V30 47 1 20 44
M  V30 48 1 23 45
M  V30 49 1 24 46
M  V30 50 1 26 47
M  V30 51 1 29 48
M  V30 52 1 30 49
M  V30 END BOND
M  V30 END CTAB
M  END
>  <Dataset>  (425) 
ChEMBL_Kinases

>  <Ligand_Instance>  (425) 
nan

>  <PDB_ID>  (425) 
nan

>  <Standardized_SMILES>  (425) 
CS(=O)(=O)Nc1ccc(CCNC(=O)c2ccnc3[nH]c(-c4ccoc4)nc23)cc1

>  <Name>  (425) 
nan

>  <Pocket>  (425) 
nan

>  <ATP_Site>  (425) 
nan

>  <Peripheral>  (425) 
nan

>  <Num_H_Atoms_ProtBoundConf>  (425) 
nan

>  <Num_Resolved_Atoms>  (425) 
nan

>  <Num_Not_Resolved_Atoms>  (425) 
nan

$$$$
CHEMBL2048671
     RDKit          3D

  0  0  0  0  0  0  0  0  0  0999 V3000
M  V30 BEGIN CTAB
M  V30 COUNTS 49 52 0 0 0
M  V30 BEGIN ATOM
M  V30 1 C 0.499981 -1.976414 4.353108 0
M  V30 2 S 0.545119 -3.446422 3.359865 0
M  V30 3 O 0.523510 -4.610938 4.340782 0
M  V30 4 O -0.653287 -3.607382 2.503577 0
M  V30 5 N 2.035218 -3.504650 2.507687 0
M  V30 6 C 2.372731 -2.498544 1.589522 0
M  V30 7 C 3.616771 -1.897820 1.463156 0
M  V30 8 C 3.922296 -0.908617 0.540042 0
M  V30 9 C 2.936870 -0.479186 -0.319652 0
M  V30 10 C 3.188383 0.563240 -1.345276 0
M  V30 11 C 3.013483 1.919859 -0.740129 0
M  V30 12 N 1.672601 2.070280 -0.227372 0
M  V30 13 C 0.419334 2.008485 -0.892004 0
M  V30 14 O 0.524614 1.781609 -2.137805 0
M  V30 15 C -0.783705 2.205790 -0.092051 0
M  V30 16 C -0.939053 3.444402 0.514117 0
M  V30 17 C -2.074401 3.617858 1.275516 0
M  V30 18 N -3.032590 2.692255 1.474627 0
M  V30 19 C -2.863211 1.495797 0.876952 0
M  V30 20 N -3.611231 0.380745 0.872904 0
M  V30 21 C -3.009848 -0.556573 0.121278 0
M  V30 22 C -3.531472 -1.938851 -0.119936 0
M  V30 23 C -2.962508 -2.898989 -0.894949 0
M  V30 24 C -3.576656 -4.095515 -0.986749 0
M  V30 25 C -4.840603 -4.221769 -0.205811 0
M  V30 26 S -4.958410 -2.508621 0.583001 0
M  V30 27 N -1.871741 -0.015467 -0.348059 0
M  V30 28 C -1.750845 1.245687 0.097995 0
M  V30 29 C 1.685458 -1.046070 -0.231904 0
M  V30 30 C 1.401758 -2.040217 0.705723 0
M  V30 31 H -0.362978 -1.982039 5.065129 0
M  V30 32 H 0.465550 -1.064598 3.717022 0
M  V30 33 H 1.423283 -1.939296 4.959127 0
M  V30 34 H 2.775873 -4.248989 2.593071 0
M  V30 35 H 4.352128 -2.290499 2.180626 0
M  V30 36 H 4.922095 -0.491681 0.507862 0
M  V30 37 H 4.232190 0.415045 -1.742990 0
M  V30 38 H 2.494567 0.450437 -2.211470 0
M  V30 39 H 3.770067 2.023464 0.077725 0
M  V30 40 H 3.242762 2.723466 -1.501166 0
M  V30 41 H 1.624667 2.257160 0.820622 0
M  V30 42 H -0.201417 4.224527 0.388851 0
M  V30 43 H -2.181580 4.606496 1.748854 0
M  V30 44 H -4.499244 0.274126 1.369414 0
M  V30 45 H -2.041582 -2.698330 -1.418470 0
M  V30 46 H -3.221089 -4.935475 -1.570233 0
M  V30 47 H -5.374383 -5.317510 -0.308025 0
M  V30 48 H 0.854361 -0.800842 -0.843244 0
M  V30 49 H 0.419065 -2.486873 0.774739 0
M  V30 END ATOM
M  V30 BEGIN BOND
M  V30 1 1 1 2
M  V30 2 2 2 3
M  V30 3 2 2 4
M  V30 4 1 2 5
M  V30 5 1 5 6
M  V30 6 2 6 7
M  V30 7 1 7 8
M  V30 8 2 8 9
M  V30 9 1 9 10
M  V30 10 1 10 11
M  V30 11 1 11 12
M  V30 12 1 12 13
M  V30 13 2 13 14
M  V30 14 1 13 15
M  V30 15 2 15 16
M  V30 16 1 16 17
M  V30 17 2 17 18
M  V30 18 1 18 19
M  V30 19 1 19 20
M  V30 20 1 20 21
M  V30 21 1 21 22
M  V30 22 2 22 23
M  V30 23 1 23 24
M  V30 24 2 24 25
M  V30 25 1 25 26
M  V30 26 2 21 27
M  V30 27 1 27 28
M  V30 28 1 9 29
M  V30 29 2 29 30
M  V30 30 1 30 6
M  V30 31 1 28 15
M  V30 32 2 28 19
M  V30 33 1 26 22
M  V30 34 1 1 31
M  V30 35 1 1 32
M  V30 36 1 1 33
M  V30 37 1 5 34
M  V30 38 1 7 35
M  V30 39 1 8 36
M  V30 40 1 10 37
M  V30 41 1 10 38
M  V30 42 1 11 39
M  V30 43 1 11 40
M  V30 44 1 12 41
M  V30 45 1 16 42
M  V30 46 1 17 43
M  V30 47 1 20 44
M  V30 48 1 23 45
M  V30 49 1 24 46
M  V30 50 1 25 47
M  V30 51 1 29 48
M  V30 52 1 30 49
M  V30 END BOND
M  V30 END CTAB
M  END
>  <Dataset>  (426) 
ChEMBL_Kinases

>  <Ligand_Instance>  (426) 
nan

>  <PDB_ID>  (426) 
nan

>  <Standardized_SMILES>  (426) 
CS(=O)(=O)Nc1ccc(CCNC(=O)c2ccnc3[nH]c(-c4cccs4)nc23)cc1

>  <Name>  (426) 
nan

>  <Pocket>  (426) 
nan

>  <ATP_Site>  (426) 
nan

>  <Peripheral>  (426) 
nan

>  <Num_H_Atoms_ProtBoundConf>  (426) 
nan

>  <Num_Resolved_Atoms>  (426) 
nan

>  <Num_Not_Resolved_Atoms>  (426) 
nan

$$$$
CHEMBL2048672
     RDKit          3D

  0  0  0  0  0  0  0  0  0  0999 V3000
M  V30 BEGIN CTAB
M  V30 COUNTS 54 57 0 0 0
M  V30 BEGIN ATOM
M  V30 1 C 1.344272 -1.545125 2.283684 0
M  V30 2 N 2.554781 -2.285411 1.938893 0
M  V30 3 C 2.648947 -3.429382 2.809013 0
M  V30 4 S 3.932547 -1.236647 2.121076 0
M  V30 5 O 3.532643 -0.191846 3.140382 0
M  V30 6 O 5.122359 -1.977466 2.607770 0
M  V30 7 N 4.271603 -0.395359 0.650136 0
M  V30 8 C 3.344475 0.497798 0.049199 0
M  V30 9 C 2.615582 1.460788 0.733984 0
M  V30 10 C 1.746299 2.258238 0.015807 0
M  V30 11 C 1.575823 2.129559 -1.372784 0
M  V30 12 C 0.619196 3.051462 -1.936712 0
M  V30 13 C -0.766754 2.664350 -2.183223 0
M  V30 14 N -1.594880 2.197054 -1.131432 0
M  V30 15 C -1.483439 1.050512 -0.334898 0
M  V30 16 O -0.571874 0.227090 -0.472422 0
M  V30 17 C -2.341076 0.601256 0.746440 0
M  V30 18 C -2.839205 1.440864 1.723411 0
M  V30 19 C -3.658669 0.906875 2.725229 0
M  V30 20 N -3.992067 -0.387209 2.792292 0
M  V30 21 C -3.536682 -1.250805 1.868848 0
M  V30 22 N -3.630638 -2.563021 1.589018 0
M  V30 23 C -2.936264 -2.902929 0.489663 0
M  V30 24 C -2.787503 -4.213178 -0.132976 0
M  V30 25 C -3.404529 -5.301640 0.422909 0
M  V30 26 C -3.251215 -6.522279 -0.180480 0
M  V30 27 S -2.176892 -6.177787 -1.631685 0
M  V30 28 C -2.026239 -4.417178 -1.301271 0
M  V30 29 N -2.389453 -1.752457 0.071913 0
M  V30 30 C -2.719318 -0.721573 0.868369 0
M  V30 31 C 2.278999 1.194191 -2.061672 0
M  V30 32 C 3.139203 0.413488 -1.313543 0
M  V30 33 H 0.698123 -2.148488 2.961172 0
M  V30 34 H 0.743898 -1.292793 1.397511 0
M  V30 35 H 1.619546 -0.599294 2.813283 0
M  V30 36 H 2.831334 -4.332848 2.165508 0
M  V30 37 H 3.515923 -3.253676 3.488003 0
M  V30 38 H 1.709828 -3.572997 3.344131 0
M  V30 39 H 5.199462 -0.537611 0.162430 0
M  V30 40 H 2.759402 1.545809 1.798849 0
M  V30 41 H 1.210656 2.990497 0.622065 0
M  V30 42 H 1.092065 3.396305 -2.915558 0
M  V30 43 H 0.592418 4.047346 -1.379880 0
M  V30 44 H -0.888621 1.985959 -3.097149 0
M  V30 45 H -1.297789 3.590402 -2.569539 0
M  V30 46 H -2.473221 2.712094 -0.800388 0
M  V30 47 H -2.586398 2.493337 1.695234 0
M  V30 48 H -4.004442 1.644736 3.452418 0
M  V30 49 H -4.191272 -3.228452 2.179650 0
M  V30 50 H -4.021889 -5.351520 1.303909 0
M  V30 51 H -3.592763 -7.521190 0.003679 0
M  V30 52 H -1.504535 -3.664267 -1.824188 0
M  V30 53 H 2.151214 1.093976 -3.114863 0
M  V30 54 H 3.707988 -0.343011 -1.872512 0
M  V30 END ATOM
M  V30 BEGIN BOND
M  V30 1 1 1 2
M  V30 2 1 2 3
M  V30 3 1 2 4
M  V30 4 2 4 5
M  V30 5 2 4 6
M  V30 6 1 4 7
M  V30 7 1 7 8
M  V30 8 2 8 9
M  V30 9 1 9 10
M  V30 10 2 10 11
M  V30 11 1 11 12
M  V30 12 1 12 13
M  V30 13 1 13 14
M  V30 14 1 14 15
M  V30 15 2 15 16
M  V30 16 1 15 17
M  V30 17 2 17 18
M  V30 18 1 18 19
M  V30 19 2 19 20
M  V30 20 1 20 21
M  V30 21 1 21 22
M  V30 22 1 22 23
M  V30 23 1 23 24
M  V30 24 1 24 25
M  V30 25 2 25 26
M  V30 26 1 26 27
M  V30 27 1 27 28
M  V30 28 2 23 29
M  V30 29 1 29 30
M  V30 30 1 11 31
M  V30 31 2 31 32
M  V30 32 1 32 8
M  V30 33 1 30 17
M  V30 34 2 30 21
M  V30 35 2 28 24
M  V30 36 1 1 33
M  V30 37 1 1 34
M  V30 38 1 1 35
M  V30 39 1 3 36
M  V30 40 1 3 37
M  V30 41 1 3 38
M  V30 42 1 7 39
M  V30 43 1 9 40
M  V30 44 1 10 41
M  V30 45 1 12 42
M  V30 46 1 12 43
M  V30 47 1 13 44
M  V30 48 1 13 45
M  V30 49 1 14 46
M  V30 50 1 18 47
M  V30 51 1 19 48
M  V30 52 1 22 49
M  V30 53 1 25 50
M  V30 54 1 26 51
M  V30 55 1 28 52
M  V30 56 1 31 53
M  V30 57 1 32 54
M  V30 END BOND
M  V30 END CTAB
M  END
>  <Dataset>  (427) 
ChEMBL_Kinases

>  <Ligand_Instance>  (427) 
nan

>  <PDB_ID>  (427) 
nan

>  <Standardized_SMILES>  (427) 
CN(C)S(=O)(=O)Nc1ccc(CCNC(=O)c2ccnc3[nH]c(-c4ccsc4)nc23)cc1

>  <Name>  (427) 
nan

>  <Pocket>  (427) 
nan

>  <ATP_Site>  (427) 
nan

>  <Peripheral>  (427) 
nan

>  <Num_H_Atoms_ProtBoundConf>  (427) 
nan

>  <Num_Resolved_Atoms>  (427) 
nan

>  <Num_Not_Resolved_Atoms>  (427) 
nan

$$$$
CHEMBL2048682
     RDKit          3D

  0  0  0  0  0  0  0  0  0  0999 V3000
M  V30 BEGIN CTAB
M  V30 COUNTS 43 46 0 0 0
M  V30 BEGIN ATOM
M  V30 1 C 2.025789 -1.753056 4.523342 0
M  V30 2 C 1.747041 -1.752869 3.013241 0
M  V30 3 O 2.341685 -0.837345 2.276425 0
M  V30 4 C 3.281478 -0.153813 1.720537 0
M  V30 5 C 4.629220 -0.426861 1.891154 0
M  V30 6 C 5.555700 0.355564 1.246405 0
M  V30 7 N 5.207130 1.377217 0.456298 0
M  V30 8 C 3.885415 1.696821 0.251834 0
M  V30 9 C 2.988086 0.900777 0.904999 0
M  V30 10 N 1.616331 1.230528 0.687070 0
M  V30 11 C 0.919060 2.146732 -0.147505 0
M  V30 12 O 1.666357 2.836442 -0.886032 0
M  V30 13 C -0.561444 2.184002 -0.048273 0
M  V30 14 C -1.204412 3.389676 0.124363 0
M  V30 15 C -2.596783 3.388082 0.223296 0
M  V30 16 N -3.258653 2.229406 0.147992 0
M  V30 17 C -2.624866 1.032373 -0.023773 0
M  V30 18 N -3.114894 -0.242904 -0.119024 0
M  V30 19 C -2.047469 -1.048855 -0.277782 0
M  V30 20 C -2.008539 -2.509855 -0.437162 0
M  V30 21 C -0.874896 -3.284894 -0.566177 0
M  V30 22 C -1.060058 -4.642684 -0.721038 0
M  V30 23 C -2.308551 -5.243909 -0.750781 0
M  V30 24 N -3.388646 -4.447319 -0.620722 0
M  V30 25 C -3.271817 -3.105817 -0.466047 0
M  V30 26 N -0.911929 -0.300738 -0.282674 0
M  V30 27 C -1.257211 0.999571 -0.124559 0
M  V30 28 H 2.949972 -2.291385 4.769654 0
M  V30 29 H 2.134371 -0.683366 4.859286 0
M  V30 30 H 1.153264 -2.212701 5.050980 0
M  V30 31 H 0.609987 -1.666802 2.918662 0
M  V30 32 H 1.886021 -2.838263 2.660709 0
M  V30 33 H 4.986821 -1.221292 2.504139 0
M  V30 34 H 6.616949 0.137093 1.381099 0
M  V30 35 H 3.801620 2.535870 -0.396733 0
M  V30 36 H 0.920171 0.686976 1.283568 0
M  V30 37 H -0.564211 4.268814 0.170512 0
M  V30 38 H -3.070183 4.352107 0.365363 0
M  V30 39 H -4.124910 -0.563782 -0.074803 0
M  V30 40 H 0.071304 -2.777372 -0.529854 0
M  V30 41 H -0.134022 -5.186459 -0.814410 0
M  V30 42 H -2.399896 -6.308124 -0.876197 0
M  V30 43 H -4.235416 -2.626966 -0.378590 0
M  V30 END ATOM
M  V30 BEGIN BOND
M  V30 1 1 1 2
M  V30 2 1 2 3
M  V30 3 1 3 4
M  V30 4 2 4 5
M  V30 5 1 5 6
M  V30 6 2 6 7
M  V30 7 1 7 8
M  V30 8 2 8 9
M  V30 9 1 9 10
M  V30 10 1 10 11
M  V30 11 2 11 12
M  V30 12 1 11 13
M  V30 13 2 13 14
M  V30 14 1 14 15
M  V30 15 2 15 16
M  V30 16 1 16 17
M  V30 17 1 17 18
M  V30 18 1 18 19
M  V30 19 1 19 20
M  V30 20 2 20 21
M  V30 21 1 21 22
M  V30 22 2 22 23
M  V30 23 1 23 24
M  V30 24 2 24 25
M  V30 25 2 19 26
M  V30 26 1 26 27
M  V30 27 1 9 4
M  V30 28 1 27 13
M  V30 29 2 27 17
M  V30 30 1 25 20
M  V30 31 1 1 28
M  V30 32 1 1 29
M  V30 33 1 1 30
M  V30 34 1 2 31
M  V30 35 1 2 32
M  V30 36 1 5 33
M  V30 37 1 6 34
M  V30 38 1 8 35
M  V30 39 1 10 36
M  V30 40 1 14 37
M  V30 41 1 15 38
M  V30 42 1 18 39
M  V30 43 1 21 40
M  V30 44 1 22 41
M  V30 45 1 23 42
M  V30 46 1 25 43
M  V30 END BOND
M  V30 END CTAB
M  END
>  <Dataset>  (428) 
ChEMBL_Kinases

>  <Ligand_Instance>  (428) 
nan

>  <PDB_ID>  (428) 
nan

>  <Standardized_SMILES>  (428) 
CCOc1ccncc1NC(=O)c1ccnc2[nH]c(-c3cccnc3)nc12

>  <Name>  (428) 
nan

>  <Pocket>  (428) 
nan

>  <ATP_Site>  (428) 
nan

>  <Peripheral>  (428) 
nan

>  <Num_H_Atoms_ProtBoundConf>  (428) 
nan

>  <Num_Resolved_Atoms>  (428) 
nan

>  <Num_Not_Resolved_Atoms>  (428) 
nan

$$$$
CHEMBL2048674
     RDKit          3D

  0  0  0  0  0  0  0  0  0  0999 V3000
M  V30 BEGIN CTAB
M  V30 COUNTS 34 37 0 0 0
M  V30 BEGIN ATOM
M  V30 1 O 1.342278 -1.232360 -1.166726 0
M  V30 2 C 1.668695 -0.768565 -0.056756 0
M  V30 3 N 2.111544 -1.740661 0.894408 0
M  V30 4 C 2.077332 -3.094867 0.364898 0
M  V30 5 C 0.812096 -3.579205 0.670852 0
M  V30 6 C 0.502264 -4.882460 0.254452 0
M  V30 7 C 1.497690 -5.575927 -0.432348 0
M  V30 8 N 2.710327 -5.060849 -0.705315 0
M  V30 9 C 3.045079 -3.799682 -0.316026 0
M  V30 10 C 1.726660 0.558832 0.579528 0
M  V30 11 C 2.822715 1.254432 1.027857 0
M  V30 12 C 2.583092 2.466677 1.598087 0
M  V30 13 N 1.368837 3.046983 1.762899 0
M  V30 14 C 0.268538 2.372267 1.322973 0
M  V30 15 N -1.065099 2.634787 1.318044 0
M  V30 16 C -1.719603 1.628671 0.758700 0
M  V30 17 C -3.153595 1.511913 0.586715 0
M  V30 18 C -3.674484 0.463071 -0.073544 0
M  V30 19 C -5.041364 0.282415 -0.226254 0
M  V30 20 S -5.742971 1.796468 0.677216 0
M  V30 21 C -4.092670 2.488077 1.152615 0
M  V30 22 N -0.772652 0.752109 0.423850 0
M  V30 23 C 0.462064 1.149906 0.743401 0
M  V30 24 H 2.470382 -1.761189 1.901282 0
M  V30 25 H -0.011740 -3.136567 1.184934 0
M  V30 26 H -0.441954 -5.380718 0.423140 0
M  V30 27 H 1.279596 -6.596757 -0.771741 0
M  V30 28 H 3.949020 -3.231565 -0.439427 0
M  V30 29 H 3.755581 0.753033 0.872345 0
M  V30 30 H 3.430812 3.020152 1.953147 0
M  V30 31 H -1.502881 3.508262 1.702893 0
M  V30 32 H -3.176006 -0.354166 -0.557186 0
M  V30 33 H -5.738489 -0.408053 -0.669645 0
M  V30 34 H -3.752701 3.372052 1.698978 0
M  V30 END ATOM
M  V30 BEGIN BOND
M  V30 1 2 1 2
M  V30 2 1 2 3
M  V30 3 1 3 4
M  V30 4 2 4 5
M  V30 5 1 5 6
M  V30 6 2 6 7
M  V30 7 1 7 8
M  V30 8 2 8 9
M  V30 9 1 2 10
M  V30 10 2 10 11
M  V30 11 1 11 12
M  V30 12 2 12 13
M  V30 13 1 13 14
M  V30 14 1 14 15
M  V30 15 1 15 16
M  V30 16 1 16 17
M  V30 17 1 17 18
M  V30 18 2 18 19
M  V30 19 1 19 20
M  V30 20 1 20 21
M  V30 21 2 16 22
M  V30 22 1 22 23
M  V30 23 1 9 4
M  V30 24 1 23 10
M  V30 25 2 23 14
M  V30 26 2 21 17
M  V30 27 1 3 24
M  V30 28 1 5 25
M  V30 29 1 6 26
M  V30 30 1 7 27
M  V30 31 1 9 28
M  V30 32 1 11 29
M  V30 33 1 12 30
M  V30 34 1 15 31
M  V30 35 1 18 32
M  V30 36 1 19 33
M  V30 37 1 21 34
M  V30 END BOND
M  V30 END CTAB
M  END
>  <Dataset>  (429) 
ChEMBL_Kinases

>  <Ligand_Instance>  (429) 
nan

>  <PDB_ID>  (429) 
nan

>  <Standardized_SMILES>  (429) 
O=C(Nc1cccnc1)c1ccnc2[nH]c(-c3ccsc3)nc12

>  <Name>  (429) 
nan

>  <Pocket>  (429) 
nan

>  <ATP_Site>  (429) 
nan

>  <Peripheral>  (429) 
nan

>  <Num_H_Atoms_ProtBoundConf>  (429) 
nan

>  <Num_Resolved_Atoms>  (429) 
nan

>  <Num_Not_Resolved_Atoms>  (429) 
nan

$$$$
CHEMBL2048675
     RDKit          3D

  0  0  0  0  0  0  0  0  0  0999 V3000
M  V30 BEGIN CTAB
M  V30 COUNTS 52 56 0 0 0
M  V30 BEGIN ATOM
M  V30 1 C 2.678917 -1.008062 -0.671987 0
M  V30 2 C 4.044631 -0.891299 -0.117096 0
M  V30 3 C 4.987316 -1.847162 -0.398421 0
M  V30 4 C 6.230037 -1.658537 0.158543 0
M  V30 5 N 6.554583 -0.594700 0.954245 0
M  V30 6 C 5.600387 0.346174 1.223259 0
M  V30 7 C 4.317672 0.199700 0.678906 0
M  V30 8 N 3.371578 1.229871 1.011734 0
M  V30 9 C 2.919809 2.506842 0.536242 0
M  V30 10 O 3.427290 3.014403 -0.496084 0
M  V30 11 C 1.855357 3.028616 1.423244 0
M  V30 12 C 1.875811 4.161317 2.221330 0
M  V30 13 C 0.767645 4.465123 2.981050 0
M  V30 14 N -0.345771 3.680614 2.967335 0
M  V30 15 C -0.421605 2.576194 2.216431 0
M  V30 16 N -1.385873 1.654701 2.032738 0
M  V30 17 C -0.900515 0.759566 1.156098 0
M  V30 18 N -1.507016 -0.417322 0.624738 0
M  V30 19 C -0.980536 -1.353395 -0.349603 0
M  V30 20 C -2.161110 -1.716991 -1.217208 0
M  V30 21 C -3.310763 -1.649784 -0.263578 0
M  V30 22 C -3.931063 -2.961942 0.033302 0
M  V30 23 C -5.309479 -3.192760 0.025035 0
M  V30 24 C -5.838790 -4.453268 0.299828 0
M  V30 25 C -4.996898 -5.504446 0.586885 0
M  V30 26 C -3.637307 -5.309511 0.602559 0
M  V30 27 C -3.113360 -4.049049 0.327689 0
M  V30 28 C -2.811469 -0.935050 0.978929 0
M  V30 29 N 0.343793 1.131281 0.809888 0
M  V30 30 C 0.702113 2.263195 1.442333 0
M  V30 31 H 2.264693 -0.027174 -0.938802 0
M  V30 32 H 2.634662 -1.636519 -1.600290 0
M  V30 33 H 1.980713 -1.496183 0.042473 0
M  V30 34 H 4.776148 -2.703151 -1.020777 0
M  V30 35 H 7.044846 -2.357974 -0.005019 0
M  V30 36 H 5.847804 1.179020 1.843436 0
M  V30 37 H 3.011585 0.725376 1.855965 0
M  V30 38 H 2.805131 4.708403 2.156362 0
M  V30 39 H 0.892249 5.366866 3.559965 0
M  V30 40 H -2.329560 1.612595 2.464347 0
M  V30 41 H -0.501330 -2.182301 0.160488 0
M  V30 42 H -0.196268 -0.858339 -0.993769 0
M  V30 43 H -2.234282 -0.913844 -2.013197 0
M  V30 44 H -2.046646 -2.668363 -1.750347 0
M  V30 45 H -4.079198 -0.951132 -0.717286 0
M  V30 46 H -5.923146 -2.328542 -0.207073 0
M  V30 47 H -6.922895 -4.527083 0.268180 0
M  V30 48 H -5.421917 -6.485699 0.799747 0
M  V30 49 H -2.977896 -6.162829 0.831242 0
M  V30 50 H -2.034878 -4.006183 0.366544 0
M  V30 51 H -3.480415 -0.059086 1.228874 0
M  V30 52 H -2.770444 -1.598718 1.874263 0
M  V30 END ATOM
M  V30 BEGIN BOND
M  V30 1 1 1 2
M  V30 2 2 2 3
M  V30 3 1 3 4
M  V30 4 2 4 5
M  V30 5 1 5 6
M  V30 6 2 6 7
M  V30 7 1 7 8
M  V30 8 1 8 9
M  V30 9 2 9 10
M  V30 10 1 9 11
M  V30 11 2 11 12
M  V30 12 1 12 13
M  V30 13 2 13 14
M  V30 14 1 14 15
M  V30 15 1 15 16
M  V30 16 1 16 17
M  V30 17 1 17 18
M  V30 18 1 18 19
M  V30 19 1 19 20
M  V30 20 1 20 21
M  V30 21 1 21 22
M  V30 22 2 22 23
M  V30 23 1 23 24
M  V30 24 2 24 25
M  V30 25 1 25 26
M  V30 26 2 26 27
M  V30 27 1 21 28
M  V30 28 2 17 29
M  V30 29 1 29 30
M  V30 30 1 7 2
M  V30 31 1 30 11
M  V30 32 2 30 15
M  V30 33 1 28 18
M  V30 34 1 27 22
M  V30 35 1 1 31
M  V30 36 1 1 32
M  V30 37 1 1 33
M  V30 38 1 3 34
M  V30 39 1 4 35
M  V30 40 1 6 36
M  V30 41 1 8 37
M  V30 42 1 12 38
M  V30 43 1 13 39
M  V30 44 1 16 40
M  V30 45 1 19 41
M  V30 46 1 19 42
M  V30 47 1 20 43
M  V30 48 1 20 44
M  V30 49 1 21 45
M  V30 50 1 23 46
M  V30 51 1 24 47
M  V30 52 1 25 48
M  V30 53 1 26 49
M  V30 54 1 27 50
M  V30 55 1 28 51
M  V30 56 1 28 52
M  V30 END BOND
M  V30 END CTAB
M  END
>  <Dataset>  (430) 
ChEMBL_Kinases

>  <Ligand_Instance>  (430) 
nan

>  <PDB_ID>  (430) 
nan

>  <Standardized_SMILES>  (430) 
Cc1ccncc1NC(=O)c1ccnc2[nH]c(N3CCC(c4ccccc4)C3)nc12

>  <Name>  (430) 
nan

>  <Pocket>  (430) 
nan

>  <ATP_Site>  (430) 
nan

>  <Peripheral>  (430) 
nan

>  <Num_H_Atoms_ProtBoundConf>  (430) 
nan

>  <Num_Resolved_Atoms>  (430) 
nan

>  <Num_Not_Resolved_Atoms>  (430) 
nan

$$$$
CHEMBL2048676
     RDKit          3D

  0  0  0  0  0  0  0  0  0  0999 V3000
M  V30 BEGIN CTAB
M  V30 COUNTS 54 57 0 0 0
M  V30 BEGIN ATOM
M  V30 1 C 3.212678 -2.061480 6.338169 0
M  V30 2 C 3.795872 -1.760765 4.992069 0
M  V30 3 N 2.964566 -0.880042 4.172772 0
M  V30 4 C 2.914118 0.464057 4.656776 0
M  V30 5 C 2.178704 0.699986 5.928836 0
M  V30 6 C 2.275256 -1.304560 3.004488 0
M  V30 7 C 1.477214 -0.481542 2.250782 0
M  V30 8 C 0.805916 -0.845221 1.106826 0
M  V30 9 C 0.930387 -2.162080 0.649950 0
M  V30 10 C 0.251363 -2.620147 -0.555160 0
M  V30 11 N -0.569623 -1.838719 -1.281121 0
M  V30 12 C -1.058575 -2.489808 -2.323131 0
M  V30 13 C -1.929751 -2.082763 -3.330924 0
M  V30 14 C -2.438275 -0.713193 -3.275074 0
M  V30 15 O -3.694788 -0.931181 -3.163152 0
M  V30 16 N -1.878418 0.577782 -3.315412 0
M  V30 17 C -2.833398 1.652330 -3.219516 0
M  V30 18 C -3.443888 2.244956 -4.306559 0
M  V30 19 N -4.320427 3.236215 -4.119496 0
M  V30 20 C -4.634422 3.686546 -2.867862 0
M  V30 21 C -4.036508 3.110679 -1.745778 0
M  V30 22 C -3.114232 2.070082 -1.912761 0
M  V30 23 C -2.441867 1.413885 -0.735912 0
M  V30 24 C -2.237445 -3.028011 -4.289140 0
M  V30 25 C -1.685180 -4.304563 -4.211983 0
M  V30 26 N -0.848344 -4.635766 -3.209505 0
M  V30 27 C -0.509953 -3.760584 -2.247338 0
M  V30 28 N 0.282370 -3.825875 -1.169560 0
M  V30 29 C 1.721574 -3.025735 1.375048 0
M  V30 30 C 2.381155 -2.596550 2.533873 0
M  V30 31 H 3.263742 -3.183423 6.477982 0
M  V30 32 H 2.143715 -1.824695 6.372084 0
M  V30 33 H 3.820042 -1.640993 7.167858 0
M  V30 34 H 4.812532 -1.294731 5.126555 0
M  V30 35 H 4.007969 -2.708600 4.470637 0
M  V30 36 H 2.623315 1.178038 3.846826 0
M  V30 37 H 3.995380 0.784247 4.871747 0
M  V30 38 H 2.009613 1.825173 6.000490 0
M  V30 39 H 2.755891 0.447191 6.838259 0
M  V30 40 H 1.168134 0.262056 5.993597 0
M  V30 41 H 1.313851 0.531476 2.511093 0
M  V30 42 H 0.187623 -0.198277 0.526951 0
M  V30 43 H -0.844850 0.462531 -3.411227 0
M  V30 44 H -3.180384 1.871730 -5.304163 0
M  V30 45 H -5.356186 4.502954 -2.715307 0
M  V30 46 H -4.257595 3.438043 -0.725598 0
M  V30 47 H -1.353169 1.421906 -0.998114 0
M  V30 48 H -2.580390 2.106119 0.120427 0
M  V30 49 H -2.823675 0.394925 -0.549850 0
M  V30 50 H -2.920757 -2.672061 -5.060329 0
M  V30 51 H -1.994529 -4.974582 -5.021244 0
M  V30 52 H 0.840362 -4.647113 -0.833309 0
M  V30 53 H 1.796822 -4.036575 0.994169 0
M  V30 54 H 2.947425 -3.376722 2.978959 0
M  V30 END ATOM
M  V30 BEGIN BOND
M  V30 1 1 1 2
M  V30 2 1 2 3
M  V30 3 1 3 4
M  V30 4 1 4 5
M  V30 5 1 3 6
M  V30 6 2 6 7
M  V30 7 1 7 8
M  V30 8 2 8 9
M  V30 9 1 9 10
M  V30 10 2 10 11
M  V30 11 1 11 12
M  V30 12 2 12 13
M  V30 13 1 13 14
M  V30 14 2 14 15
M  V30 15 1 14 16
M  V30 16 1 16 17
M  V30 17 2 17 18
M  V30 18 1 18 19
M  V30 19 2 19 20
M  V30 20 1 20 21
M  V30 21 2 21 22
M  V30 22 1 22 23
M  V30 23 1 13 24
M  V30 24 2 24 25
M  V30 25 1 25 26
M  V30 26 2 26 27
M  V30 27 1 27 28
M  V30 28 1 9 29
M  V30 29 2 29 30
M  V30 30 1 30 6
M  V30 31 1 28 10
M  V30 32 1 27 12
M  V30 33 1 22 17
M  V30 34 1 1 31
M  V30 35 1 1 32
M  V30 36 1 1 33
M  V30 37 1 2 34
M  V30 38 1 2 35
M  V30 39 1 4 36
M  V30 40 1 4 37
M  V30 41 1 5 38
M  V30 42 1 5 39
M  V30 43 1 5 40
M  V30 44 1 7 41
M  V30 45 1 8 42
M  V30 46 1 16 43
M  V30 47 1 18 44
M  V30 48 1 20 45
M  V30 49 1 21 46
M  V30 50 1 23 47
M  V30 51 1 23 48
M  V30 52 1 23 49
M  V30 53 1 24 50
M  V30 54 1 25 51
M  V30 55 1 28 52
M  V30 56 1 29 53
M  V30 57 1 30 54
M  V30 END BOND
M  V30 END CTAB
M  END
>  <Dataset>  (431) 
ChEMBL_Kinases

>  <Ligand_Instance>  (431) 
nan

>  <PDB_ID>  (431) 
nan

>  <Standardized_SMILES>  (431) 
CCN(CC)c1ccc(-c2nc3c(C(=O)Nc4cnccc4C)ccnc3[nH]2)cc1

>  <Name>  (431) 
nan

>  <Pocket>  (431) 
nan

>  <ATP_Site>  (431) 
nan

>  <Peripheral>  (431) 
nan

>  <Num_H_Atoms_ProtBoundConf>  (431) 
nan

>  <Num_Resolved_Atoms>  (431) 
nan

>  <Num_Not_Resolved_Atoms>  (431) 
nan

$$$$
CHEMBL2048677
     RDKit          3D

  0  0  0  0  0  0  0  0  0  0999 V3000
M  V30 BEGIN CTAB
M  V30 COUNTS 41 44 0 0 0
M  V30 BEGIN ATOM
M  V30 1 C 2.711587 -3.433822 2.516141 0
M  V30 2 O 2.909952 -2.517730 1.472966 0
M  V30 3 C 3.140147 -2.853771 0.145911 0
M  V30 4 C 3.184049 -4.182747 -0.210637 0
M  V30 5 C 3.409711 -4.554748 -1.513583 0
M  V30 6 N 3.585881 -3.597581 -2.429806 0
M  V30 7 C 3.553625 -2.287425 -2.140824 0
M  V30 8 C 3.330632 -1.886863 -0.849767 0
M  V30 9 N 3.263590 -0.532078 -0.357596 0
M  V30 10 C 1.986221 0.072503 -0.367347 0
M  V30 11 O 1.023277 -0.642004 -0.810061 0
M  V30 12 C 1.603851 1.425837 0.065646 0
M  V30 13 C 2.397039 2.565487 -0.033158 0
M  V30 14 C 1.882395 3.762345 0.423270 0
M  V30 15 N 0.644576 3.868504 0.959130 0
M  V30 16 C -0.156274 2.776820 1.070864 0
M  V30 17 N -1.406084 2.541720 1.542330 0
M  V30 18 C -1.726182 1.242705 1.411900 0
M  V30 19 C -2.962282 0.567072 1.787152 0
M  V30 20 C -3.998445 1.273628 2.359914 0
M  V30 21 C -5.170346 0.605293 2.709246 0
M  V30 22 C -5.228801 -0.742536 2.459442 0
M  V30 23 F -6.370989 -1.420240 2.793764 0
M  V30 24 C -4.230934 -1.482122 1.895940 0
M  V30 25 C -3.085429 -0.785952 1.563184 0
M  V30 26 N -0.642797 0.679327 0.847791 0
M  V30 27 C 0.329423 1.551028 0.620681 0
M  V30 28 H 3.685887 -3.699498 2.959503 0
M  V30 29 H 2.088197 -3.009608 3.336257 0
M  V30 30 H 2.206147 -4.370906 2.214545 0
M  V30 31 H 3.049894 -5.015855 0.479364 0
M  V30 32 H 3.462236 -5.580690 -1.889402 0
M  V30 33 H 3.689861 -1.477423 -2.843689 0
M  V30 34 H 4.020861 0.103050 0.018453 0
M  V30 35 H 3.358804 2.406039 -0.465350 0
M  V30 36 H 2.522020 4.641306 0.335901 0
M  V30 37 H -2.007182 3.296494 1.945163 0
M  V30 38 H -3.945180 2.325120 2.551584 0
M  V30 39 H -6.015329 1.117450 3.162954 0
M  V30 40 H -4.309523 -2.546856 1.711832 0
M  V30 41 H -2.231252 -1.297325 1.105473 0
M  V30 END ATOM
M  V30 BEGIN BOND
M  V30 1 1 1 2
M  V30 2 1 2 3
M  V30 3 2 3 4
M  V30 4 1 4 5
M  V30 5 2 5 6
M  V30 6 1 6 7
M  V30 7 2 7 8
M  V30 8 1 8 9
M  V30 9 1 9 10
M  V30 10 2 10 11
M  V30 11 1 10 12
M  V30 12 2 12 13
M  V30 13 1 13 14
M  V30 14 2 14 15
M  V30 15 1 15 16
M  V30 16 1 16 17
M  V30 17 1 17 18
M  V30 18 1 18 19
M  V30 19 2 19 20
M  V30 20 1 20 21
M  V30 21 2 21 22
M  V30 22 1 22 23
M  V30 23 1 22 24
M  V30 24 2 24 25
M  V30 25 2 18 26
M  V30 26 1 26 27
M  V30 27 1 8 3
M  V30 28 1 27 12
M  V30 29 2 27 16
M  V30 30 1 25 19
M  V30 31 1 1 28
M  V30 32 1 1 29
M  V30 33 1 1 30
M  V30 34 1 4 31
M  V30 35 1 5 32
M  V30 36 1 7 33
M  V30 37 1 9 34
M  V30 38 1 13 35
M  V30 39 1 14 36
M  V30 40 1 17 37
M  V30 41 1 20 38
M  V30 42 1 21 39
M  V30 43 1 24 40
M  V30 44 1 25 41
M  V30 END BOND
M  V30 END CTAB
M  END
>  <Dataset>  (432) 
ChEMBL_Kinases

>  <Ligand_Instance>  (432) 
nan

>  <PDB_ID>  (432) 
nan

>  <Standardized_SMILES>  (432) 
COc1ccncc1NC(=O)c1ccnc2[nH]c(-c3ccc(F)cc3)nc12

>  <Name>  (432) 
nan

>  <Pocket>  (432) 
nan

>  <ATP_Site>  (432) 
nan

>  <Peripheral>  (432) 
nan

>  <Num_H_Atoms_ProtBoundConf>  (432) 
nan

>  <Num_Resolved_Atoms>  (432) 
nan

>  <Num_Not_Resolved_Atoms>  (432) 
nan

$$$$
CHEMBL2048678
     RDKit          3D

  0  0  0  0  0  0  0  0  0  0999 V3000
M  V30 BEGIN CTAB
M  V30 COUNTS 44 47 0 0 0
M  V30 BEGIN ATOM
M  V30 1 C 0.335786 -1.532713 4.507888 0
M  V30 2 C 1.580449 -1.608287 3.664696 0
M  V30 3 O 1.905075 -0.430079 2.985202 0
M  V30 4 C 3.064103 -0.445676 2.200713 0
M  V30 5 C 3.897052 -1.536157 2.063087 0
M  V30 6 C 5.001487 -1.406400 1.261033 0
M  V30 7 N 5.352442 -0.298843 0.586123 0
M  V30 8 C 4.559544 0.794481 0.695400 0
M  V30 9 C 3.456273 0.678862 1.490958 0
M  V30 10 N 2.620224 1.855979 1.573724 0
M  V30 11 C 1.760339 1.610312 0.473863 0
M  V30 12 O 2.044119 0.507860 -0.127978 0
M  V30 13 C 0.613799 2.309224 -0.155360 0
M  V30 14 C 0.483072 3.659714 -0.447193 0
M  V30 15 C -0.676798 4.103596 -1.042439 0
M  V30 16 N -1.655674 3.241231 -1.330771 0
M  V30 17 C -1.620472 1.924364 -1.087605 0
M  V30 18 N -2.434986 0.858571 -1.267682 0
M  V30 19 C -1.815198 -0.250656 -0.797773 0
M  V30 20 C -2.272019 -1.635704 -0.767068 0
M  V30 21 C -1.447248 -2.605222 -0.214000 0
M  V30 22 C -1.763795 -3.948527 -0.130100 0
M  V30 23 C -3.004954 -4.333306 -0.643755 0
M  V30 24 F -3.342484 -5.638415 -0.573486 0
M  V30 25 C -3.801863 -3.355742 -1.185531 0
M  V30 26 C -3.497132 -2.014574 -1.274720 0
M  V30 27 N -0.638683 0.170787 -0.344316 0
M  V30 28 C -0.455906 1.493791 -0.492445 0
M  V30 29 H 0.486049 -1.020325 5.459218 0
M  V30 30 H -0.031707 -2.584014 4.682042 0
M  V30 31 H -0.450512 -1.027816 3.909645 0
M  V30 32 H 1.471818 -2.394273 2.859570 0
M  V30 33 H 2.445567 -1.933737 4.268308 0
M  V30 34 H 3.642556 -2.443580 2.591753 0
M  V30 35 H 5.648488 -2.284501 1.165792 0
M  V30 36 H 4.789315 1.706604 0.177490 0
M  V30 37 H 2.327529 2.767997 2.009152 0
M  V30 38 H 1.365986 4.241981 -0.152544 0
M  V30 39 H -0.717339 5.164650 -1.243335 0
M  V30 40 H -3.381737 0.885764 -1.695617 0
M  V30 41 H -0.468279 -2.299662 0.188401 0
M  V30 42 H -1.049494 -4.621040 0.323252 0
M  V30 43 H -4.769158 -3.718301 -1.574920 0
M  V30 44 H -4.157749 -1.279034 -1.711085 0
M  V30 END ATOM
M  V30 BEGIN BOND
M  V30 1 1 1 2
M  V30 2 1 2 3
M  V30 3 1 3 4
M  V30 4 2 4 5
M  V30 5 1 5 6
M  V30 6 2 6 7
M  V30 7 1 7 8
M  V30 8 2 8 9
M  V30 9 1 9 10
M  V30 10 1 10 11
M  V30 11 2 11 12
M  V30 12 1 11 13
M  V30 13 2 13 14
M  V30 14 1 14 15
M  V30 15 2 15 16
M  V30 16 1 16 17
M  V30 17 1 17 18
M  V30 18 1 18 19
M  V30 19 1 19 20
M  V30 20 2 20 21
M  V30 21 1 21 22
M  V30 22 2 22 23
M  V30 23 1 23 24
M  V30 24 1 23 25
M  V30 25 2 25 26
M  V30 26 2 19 27
M  V30 27 1 27 28
M  V30 28 1 9 4
M  V30 29 1 28 13
M  V30 30 2 28 17
M  V30 31 1 26 20
M  V30 32 1 1 29
M  V30 33 1 1 30
M  V30 34 1 1 31
M  V30 35 1 2 32
M  V30 36 1 2 33
M  V30 37 1 5 34
M  V30 38 1 6 35
M  V30 39 1 8 36
M  V30 40 1 10 37
M  V30 41 1 14 38
M  V30 42 1 15 39
M  V30 43 1 18 40
M  V30 44 1 21 41
M  V30 45 1 22 42
M  V30 46 1 25 43
M  V30 47 1 26 44
M  V30 END BOND
M  V30 END CTAB
M  END
>  <Dataset>  (433) 
ChEMBL_Kinases

>  <Ligand_Instance>  (433) 
nan

>  <PDB_ID>  (433) 
nan

>  <Standardized_SMILES>  (433) 
CCOc1ccncc1NC(=O)c1ccnc2[nH]c(-c3ccc(F)cc3)nc12

>  <Name>  (433) 
nan

>  <Pocket>  (433) 
nan

>  <ATP_Site>  (433) 
nan

>  <Peripheral>  (433) 
nan

>  <Num_H_Atoms_ProtBoundConf>  (433) 
nan

>  <Num_Resolved_Atoms>  (433) 
nan

>  <Num_Not_Resolved_Atoms>  (433) 
nan

$$$$
CHEMBL2048679
     RDKit          3D

  0  0  0  0  0  0  0  0  0  0999 V3000
M  V30 BEGIN CTAB
M  V30 COUNTS 40 43 0 0 0
M  V30 BEGIN ATOM
M  V30 1 C 0.465793 -6.963546 0.789048 0
M  V30 2 C 0.508520 -5.587187 0.251170 0
M  V30 3 C 1.135478 -5.427876 -0.966460 0
M  V30 4 C 1.234195 -4.180555 -1.565244 0
M  V30 5 C 0.689338 -3.111390 -0.909252 0
M  V30 6 N 0.636877 -1.728213 -1.271938 0
M  V30 7 C 1.648212 -0.794449 -0.907143 0
M  V30 8 O 2.566232 -1.364889 -0.235276 0
M  V30 9 C 1.539702 0.625850 -1.311534 0
M  V30 10 C 1.984500 1.173238 -2.509461 0
M  V30 11 C 1.788005 2.526298 -2.695251 0
M  V30 12 N 1.193382 3.288897 -1.763758 0
M  V30 13 C 0.751431 2.765494 -0.582752 0
M  V30 14 N 0.137478 3.356385 0.467317 0
M  V30 15 C -0.079879 2.380151 1.370571 0
M  V30 16 C -0.710119 2.445979 2.691258 0
M  V30 17 C -0.875570 1.364337 3.530652 0
M  V30 18 C -1.477499 1.483234 4.767414 0
M  V30 19 C -1.941729 2.701462 5.216247 0
M  V30 20 F -2.532166 2.795138 6.440179 0
M  V30 21 C -1.798870 3.812620 4.412008 0
M  V30 22 C -1.193189 3.655755 3.184325 0
M  V30 23 N 0.395799 1.224916 0.869753 0
M  V30 24 C 0.925809 1.418366 -0.352254 0
M  V30 25 C 0.058911 -3.301869 0.325192 0
M  V30 26 N -0.034402 -4.532610 0.908419 0
M  V30 27 H 1.389002 -7.139559 1.380773 0
M  V30 28 H 0.357334 -7.744594 0.006396 0
M  V30 29 H -0.373788 -7.008183 1.524978 0
M  V30 30 H 1.588364 -6.234574 -1.539077 0
M  V30 31 H 1.684724 -3.904259 -2.494287 0
M  V30 32 H -0.201557 -1.402257 -1.838522 0
M  V30 33 H 2.448750 0.471526 -3.189010 0
M  V30 34 H 2.147696 2.932014 -3.647076 0
M  V30 35 H -0.136754 4.356532 0.606178 0
M  V30 36 H -0.494670 0.418436 3.137964 0
M  V30 37 H -1.563452 0.573186 5.359607 0
M  V30 38 H -2.151612 4.797198 4.726790 0
M  V30 39 H -1.091304 4.544557 2.567484 0
M  V30 40 H -0.415494 -2.534004 0.950398 0
M  V30 END ATOM
M  V30 BEGIN BOND
M  V30 1 1 1 2
M  V30 2 2 2 3
M  V30 3 1 3 4
M  V30 4 2 4 5
M  V30 5 1 5 6
M  V30 6 1 6 7
M  V30 7 2 7 8
M  V30 8 1 7 9
M  V30 9 2 9 10
M  V30 10 1 10 11
M  V30 11 2 11 12
M  V30 12 1 12 13
M  V30 13 1 13 14
M  V30 14 1 14 15
M  V30 15 1 15 16
M  V30 16 2 16 17
M  V30 17 1 17 18
M  V30 18 2 18 19
M  V30 19 1 19 20
M  V30 20 1 19 21
M  V30 21 2 21 22
M  V30 22 2 15 23
M  V30 23 1 23 24
M  V30 24 1 5 25
M  V30 25 2 25 26
M  V30 26 1 26 2
M  V30 27 1 24 9
M  V30 28 2 24 13
M  V30 29 1 22 16
M  V30 30 1 1 27
M  V30 31 1 1 28
M  V30 32 1 1 29
M  V30 33 1 3 30
M  V30 34 1 4 31
M  V30 35 1 6 32
M  V30 36 1 10 33
M  V30 37 1 11 34
M  V30 38 1 14 35
M  V30 39 1 17 36
M  V30 40 1 18 37
M  V30 41 1 21 38
M  V30 42 1 22 39
M  V30 43 1 25 40
M  V30 END BOND
M  V30 END CTAB
M  END
>  <Dataset>  (434) 
ChEMBL_Kinases

>  <Ligand_Instance>  (434) 
nan

>  <PDB_ID>  (434) 
nan

>  <Standardized_SMILES>  (434) 
Cc1ccc(NC(=O)c2ccnc3[nH]c(-c4ccc(F)cc4)nc23)cn1

>  <Name>  (434) 
nan

>  <Pocket>  (434) 
nan

>  <ATP_Site>  (434) 
nan

>  <Peripheral>  (434) 
nan

>  <Num_H_Atoms_ProtBoundConf>  (434) 
nan

>  <Num_Resolved_Atoms>  (434) 
nan

>  <Num_Not_Resolved_Atoms>  (434) 
nan

$$$$
CHEMBL2048680
     RDKit          3D

  0  0  0  0  0  0  0  0  0  0999 V3000
M  V30 BEGIN CTAB
M  V30 COUNTS 44 47 0 0 0
M  V30 BEGIN ATOM
M  V30 1 C 0.225447 -7.780448 1.138436 0
M  V30 2 O -0.406033 -6.535555 1.398556 0
M  V30 3 C 0.205357 -5.334611 1.066159 0
M  V30 4 C 1.442590 -5.207940 0.471111 0
M  V30 5 C 2.002148 -3.984525 0.162761 0
M  V30 6 C 1.295981 -2.842955 0.461260 0
M  V30 7 C 1.837197 -1.522683 0.160030 0
M  V30 8 N 1.234965 -0.351284 0.406012 0
M  V30 9 C 2.065234 0.598979 -0.019070 0
M  V30 10 C 1.946805 1.972670 -0.008468 0
M  V30 11 C 0.749408 2.591351 0.538543 0
M  V30 12 O 0.716252 2.928375 1.768852 0
M  V30 13 N -0.477926 2.897345 -0.147585 0
M  V30 14 C -1.352082 3.495828 0.809601 0
M  V30 15 C -1.356733 4.848297 0.995609 0
M  V30 16 N -2.229768 5.299754 1.934171 0
M  V30 17 C -3.021836 4.453097 2.616846 0
M  V30 18 C -3.028424 3.073377 2.438467 0
M  V30 19 C -2.139290 2.581567 1.478432 0
M  V30 20 C -2.123283 1.119242 1.265262 0
M  V30 21 C 2.943464 2.797226 -0.507751 0
M  V30 22 C 4.067824 2.172616 -1.019766 0
M  V30 23 N 4.218412 0.835934 -1.046890 0
M  V30 24 C 3.233315 0.064545 -0.554668 0
M  V30 25 N 3.028296 -1.276753 -0.412506 0
M  V30 26 C 0.057872 -2.977095 1.056758 0
M  V30 27 C -0.514808 -4.195152 1.371495 0
M  V30 28 H 0.741988 -7.791475 0.154487 0
M  V30 29 H 1.035961 -7.986856 1.887586 0
M  V30 30 H -0.518928 -8.602532 1.202265 0
M  V30 31 H 1.946268 -6.134782 0.262190 0
M  V30 32 H 2.971757 -3.901211 -0.302537 0
M  V30 33 H -0.467511 2.622354 -1.175347 0
M  V30 34 H -0.687977 5.457879 0.404525 0
M  V30 35 H -3.707738 4.842312 3.358921 0
M  V30 36 H -3.660892 2.402320 2.986214 0
M  V30 37 H -1.910743 0.648644 2.253318 0
M  V30 38 H -3.147657 0.741100 0.989650 0
M  V30 39 H -1.345865 0.780602 0.581851 0
M  V30 40 H 2.844248 3.882382 -0.497298 0
M  V30 41 H 4.860489 2.797631 -1.414975 0
M  V30 42 H 3.765928 -1.970205 -0.738990 0
M  V30 43 H -0.462774 -2.040001 1.273489 0
M  V30 44 H -1.479053 -4.140184 1.830582 0
M  V30 END ATOM
M  V30 BEGIN BOND
M  V30 1 1 1 2
M  V30 2 1 2 3
M  V30 3 2 3 4
M  V30 4 1 4 5
M  V30 5 2 5 6
M  V30 6 1 6 7
M  V30 7 2 7 8
M  V30 8 1 8 9
M  V30 9 2 9 10
M  V30 10 1 10 11
M  V30 11 2 11 12
M  V30 12 1 11 13
M  V30 13 1 13 14
M  V30 14 2 14 15
M  V30 15 1 15 16
M  V30 16 2 16 17
M  V30 17 1 17 18
M  V30 18 2 18 19
M  V30 19 1 19 20
M  V30 20 1 10 21
M  V30 21 2 21 22
M  V30 22 1 22 23
M  V30 23 2 23 24
M  V30 24 1 24 25
M  V30 25 1 6 26
M  V30 26 2 26 27
M  V30 27 1 27 3
M  V30 28 1 25 7
M  V30 29 1 24 9
M  V30 30 1 19 14
M  V30 31 1 1 28
M  V30 32 1 1 29
M  V30 33 1 1 30
M  V30 34 1 4 31
M  V30 35 1 5 32
M  V30 36 1 13 33
M  V30 37 1 15 34
M  V30 38 1 17 35
M  V30 39 1 18 36
M  V30 40 1 20 37
M  V30 41 1 20 38
M  V30 42 1 20 39
M  V30 43 1 21 40
M  V30 44 1 22 41
M  V30 45 1 25 42
M  V30 46 1 26 43
M  V30 47 1 27 44
M  V30 END BOND
M  V30 END CTAB
M  END
>  <Dataset>  (435) 
ChEMBL_Kinases

>  <Ligand_Instance>  (435) 
nan

>  <PDB_ID>  (435) 
nan

>  <Standardized_SMILES>  (435) 
COc1ccc(-c2nc3c(C(=O)Nc4cnccc4C)ccnc3[nH]2)cc1

>  <Name>  (435) 
nan

>  <Pocket>  (435) 
nan

>  <ATP_Site>  (435) 
nan

>  <Peripheral>  (435) 
nan

>  <Num_H_Atoms_ProtBoundConf>  (435) 
nan

>  <Num_Resolved_Atoms>  (435) 
nan

>  <Num_Not_Resolved_Atoms>  (435) 
nan

$$$$
CHEMBL2048681
     RDKit          3D

  0  0  0  0  0  0  0  0  0  0999 V3000
M  V30 BEGIN CTAB
M  V30 COUNTS 44 47 0 0 0
M  V30 BEGIN ATOM
M  V30 1 C -1.433706 -5.031384 1.077074 0
M  V30 2 O -1.475140 -5.448331 -0.274130 0
M  V30 3 C -1.005724 -4.611088 -1.273516 0
M  V30 4 C -1.054136 -5.029573 -2.580772 0
M  V30 5 C -0.591694 -4.220074 -3.613264 0
M  V30 6 C -0.062602 -2.956835 -3.363911 0
M  V30 7 C -0.023749 -2.556515 -2.045293 0
M  V30 8 C 0.524359 -1.238986 -1.737947 0
M  V30 9 N 0.643357 -0.693945 -0.488445 0
M  V30 10 C 1.187951 0.503291 -0.642454 0
M  V30 11 C 1.582838 1.567535 0.128668 0
M  V30 12 C 1.351093 1.372020 1.584180 0
M  V30 13 O 0.579353 0.444653 1.999575 0
M  V30 14 N 1.915803 2.134194 2.653923 0
M  V30 15 C 1.377469 1.542650 3.838796 0
M  V30 16 C 1.863207 0.509569 4.611843 0
M  V30 17 N 1.174419 0.115955 5.695261 0
M  V30 18 C 0.019145 0.703732 6.049556 0
M  V30 19 C -0.528649 1.757280 5.307736 0
M  V30 20 C 0.176135 2.169999 4.187397 0
M  V30 21 C -0.468112 3.291216 3.455367 0
M  V30 22 C 2.144757 2.763106 -0.213378 0
M  V30 23 C 2.323338 2.859293 -1.599643 0
M  V30 24 N 1.975961 1.878314 -2.486004 0
M  V30 25 C 1.420624 0.736060 -1.973995 0
M  V30 26 N 1.002919 -0.361733 -2.665401 0
M  V30 27 C -0.482529 -3.360775 -1.025945 0
M  V30 28 H -0.395291 -5.118479 1.450648 0
M  V30 29 H -1.739875 -3.958847 1.207516 0
M  V30 30 H -2.162910 -5.614535 1.702894 0
M  V30 31 H -1.445662 -5.993323 -2.902923 0
M  V30 32 H -0.626378 -4.541267 -4.658011 0
M  V30 33 H 0.302734 -2.314641 -4.152222 0
M  V30 34 H 2.561572 2.910232 2.352290 0
M  V30 35 H 2.795094 0.123261 4.221754 0
M  V30 36 H -0.435781 0.290867 6.945468 0
M  V30 37 H -1.455740 2.188713 5.639915 0
M  V30 38 H -1.410531 2.876297 3.035558 0
M  V30 39 H -0.697005 4.117986 4.127541 0
M  V30 40 H 0.149934 3.670743 2.622655 0
M  V30 41 H 2.428828 3.552607 0.440683 0
M  V30 42 H 2.764682 3.763469 -2.046228 0
M  V30 43 H 1.049029 -0.480583 -3.700408 0
M  V30 44 H -0.421499 -2.982951 -0.014823 0
M  V30 END ATOM
M  V30 BEGIN BOND
M  V30 1 1 1 2
M  V30 2 1 2 3
M  V30 3 2 3 4
M  V30 4 1 4 5
M  V30 5 2 5 6
M  V30 6 1 6 7
M  V30 7 1 7 8
M  V30 8 2 8 9
M  V30 9 1 9 10
M  V30 10 2 10 11
M  V30 11 1 11 12
M  V30 12 2 12 13
M  V30 13 1 12 14
M  V30 14 1 14 15
M  V30 15 2 15 16
M  V30 16 1 16 17
M  V30 17 2 17 18
M  V30 18 1 18 19
M  V30 19 2 19 20
M  V30 20 1 20 21
M  V30 21 1 11 22
M  V30 22 2 22 23
M  V30 23 1 23 24
M  V30 24 2 24 25
M  V30 25 1 25 26
M  V30 26 2 7 27
M  V30 27 1 27 3
M  V30 28 1 26 8
M  V30 29 1 25 10
M  V30 30 1 20 15
M  V30 31 1 1 28
M  V30 32 1 1 29
M  V30 33 1 1 30
M  V30 34 1 4 31
M  V30 35 1 5 32
M  V30 36 1 6 33
M  V30 37 1 14 34
M  V30 38 1 16 35
M  V30 39 1 18 36
M  V30 40 1 19 37
M  V30 41 1 21 38
M  V30 42 1 21 39
M  V30 43 1 21 40
M  V30 44 1 22 41
M  V30 45 1 23 42
M  V30 46 1 26 43
M  V30 47 1 27 44
M  V30 END BOND
M  V30 END CTAB
M  END
>  <Dataset>  (436) 
ChEMBL_Kinases

>  <Ligand_Instance>  (436) 
nan

>  <PDB_ID>  (436) 
nan

>  <Standardized_SMILES>  (436) 
COc1cccc(-c2nc3c(C(=O)Nc4cnccc4C)ccnc3[nH]2)c1

>  <Name>  (436) 
nan

>  <Pocket>  (436) 
nan

>  <ATP_Site>  (436) 
nan

>  <Peripheral>  (436) 
nan

>  <Num_H_Atoms_ProtBoundConf>  (436) 
nan

>  <Num_Resolved_Atoms>  (436) 
nan

>  <Num_Not_Resolved_Atoms>  (436) 
nan

$$$$
CHEMBL2048673
     RDKit          3D

  0  0  0  0  0  0  0  0  0  0999 V3000
M  V30 BEGIN CTAB
M  V30 COUNTS 40 43 0 0 0
M  V30 BEGIN ATOM
M  V30 1 O 2.483347 -2.062243 2.394928 0
M  V30 2 C 1.754489 -1.120926 1.972637 0
M  V30 3 N 1.785637 -1.015100 0.532141 0
M  V30 4 C 2.508363 -1.813500 -0.430147 0
M  V30 5 C 2.263119 -1.368382 -1.868999 0
M  V30 6 C 2.686562 0.036950 -2.072680 0
M  V30 7 C 1.882732 1.155873 -2.161475 0
M  V30 8 C 2.391889 2.417186 -2.345814 0
M  V30 9 C 3.757291 2.548551 -2.444263 0
M  V30 10 N 4.524428 1.466255 -2.358216 0
M  V30 11 C 4.073911 0.214925 -2.178246 0
M  V30 12 Cl 5.290525 -1.041164 -2.098603 0
M  V30 13 C 0.899548 -0.138269 2.687706 0
M  V30 14 C 1.393025 0.986905 3.311688 0
M  V30 15 C 0.471319 1.832936 3.941611 0
M  V30 16 N -0.843413 1.560259 3.939153 0
M  V30 17 C -1.383087 0.480625 3.349033 0
M  V30 18 N -2.586654 -0.079748 3.157985 0
M  V30 19 C -2.484014 -1.219241 2.452188 0
M  V30 20 C -3.555646 -2.117694 2.040124 0
M  V30 21 C -4.908644 -2.003927 2.274890 0
M  V30 22 C -5.554307 -3.075121 1.709626 0
M  V30 23 O -4.627536 -3.807534 1.154696 0
M  V30 24 C -3.436805 -3.285400 1.322440 0
M  V30 25 N -1.178419 -1.392732 2.183638 0
M  V30 26 C -0.477753 -0.354452 2.727691 0
M  V30 27 H 1.197195 -0.241907 0.098617 0
M  V30 28 H 3.580832 -1.828842 -0.235333 0
M  V30 29 H 2.100473 -2.837088 -0.367541 0
M  V30 30 H 1.211697 -1.564542 -2.167255 0
M  V30 31 H 2.911301 -2.007499 -2.503783 0
M  V30 32 H 0.821122 0.963301 -2.078597 0
M  V30 33 H 1.690808 3.237333 -2.402899 0
M  V30 34 H 4.153749 3.534483 -2.587523 0
M  V30 35 H 2.439706 1.171524 3.293928 0
M  V30 36 H 0.874628 2.718585 4.431814 0
M  V30 37 H -3.449924 0.360543 3.532408 0
M  V30 38 H -5.378481 -1.195320 2.819056 0
M  V30 39 H -6.616764 -3.328057 1.687936 0
M  V30 40 H -2.462769 -3.635990 0.991269 0
M  V30 END ATOM
M  V30 BEGIN BOND
M  V30 1 2 1 2
M  V30 2 1 2 3
M  V30 3 1 3 4
M  V30 4 1 4 5
M  V30 5 1 5 6
M  V30 6 2 6 7
M  V30 7 1 7 8
M  V30 8 2 8 9
M  V30 9 1 9 10
M  V30 10 2 10 11
M  V30 11 1 11 12
M  V30 12 1 2 13
M  V30 13 2 13 14
M  V30 14 1 14 15
M  V30 15 2 15 16
M  V30 16 1 16 17
M  V30 17 1 17 18
M  V30 18 1 18 19
M  V30 19 1 19 20
M  V30 20 1 20 21
M  V30 21 2 21 22
M  V30 22 1 22 23
M  V30 23 1 23 24
M  V30 24 2 19 25
M  V30 25 1 25 26
M  V30 26 1 11 6
M  V30 27 1 26 13
M  V30 28 2 26 17
M  V30 29 2 24 20
M  V30 30 1 3 27
M  V30 31 1 4 28
M  V30 32 1 4 29
M  V30 33 1 5 30
M  V30 34 1 5 31
M  V30 35 1 7 32
M  V30 36 1 8 33
M  V30 37 1 9 34
M  V30 38 1 14 35
M  V30 39 1 15 36
M  V30 40 1 18 37
M  V30 41 1 21 38
M  V30 42 1 22 39
M  V30 43 1 24 40
M  V30 END BOND
M  V30 END CTAB
M  END
>  <Dataset>  (437) 
ChEMBL_Kinases

>  <Ligand_Instance>  (437) 
nan

>  <PDB_ID>  (437) 
nan

>  <Standardized_SMILES>  (437) 
O=C(NCCc1cccnc1Cl)c1ccnc2[nH]c(-c3ccoc3)nc12

>  <Name>  (437) 
nan

>  <Pocket>  (437) 
nan

>  <ATP_Site>  (437) 
nan

>  <Peripheral>  (437) 
nan

>  <Num_H_Atoms_ProtBoundConf>  (437) 
nan

>  <Num_Resolved_Atoms>  (437) 
nan

>  <Num_Not_Resolved_Atoms>  (437) 
nan

$$$$
CHEMBL2058046
     RDKit          3D

  0  0  0  0  0  0  0  0  0  0999 V3000
M  V30 BEGIN CTAB
M  V30 COUNTS 62 65 0 0 0
M  V30 BEGIN ATOM
M  V30 1 C 2.189933 -0.338161 6.165682 0
M  V30 2 C 2.042065 -0.040046 4.716940 0
M  V30 3 C 2.121091 -1.085449 3.807702 0
M  V30 4 C 1.989771 -0.882954 2.453823 0
M  V30 5 C 1.773069 0.392411 1.979607 0
M  V30 6 N 1.592071 0.910639 0.643011 0
M  V30 7 N 2.674796 1.019987 -0.135194 0
M  V30 8 C 2.331204 1.519712 -1.320327 0
M  V30 9 C 2.920156 1.908706 -2.642386 0
M  V30 10 C 4.402421 1.603585 -2.634310 0
M  V30 11 C 2.740494 3.377219 -2.883348 0
M  V30 12 C 2.298465 1.066320 -3.749484 0
M  V30 13 C 0.956458 1.738924 -1.292305 0
M  V30 14 C 0.494278 1.350806 -0.046646 0
M  V30 15 N -0.698486 1.258206 0.735243 0
M  V30 16 C -1.426263 0.059318 0.598911 0
M  V30 17 O -1.015070 -0.829284 -0.195605 0
M  V30 18 N -2.593728 -0.317745 1.243305 0
M  V30 19 C -3.572577 -1.379883 1.350705 0
M  V30 20 C -2.906142 -2.645694 1.724411 0
M  V30 21 C -2.800996 -2.860713 3.084901 0
M  V30 22 C -2.103981 -4.000441 3.499382 0
M  V30 23 C -1.514290 -4.924692 2.650986 0
M  V30 24 C -1.657139 -4.650940 1.300457 0
M  V30 25 C -2.345854 -3.526066 0.836896 0
M  V30 26 O -2.358952 -3.474898 -0.518175 0
M  V30 27 C -3.504819 -3.575078 -1.281276 0
M  V30 28 C -4.861709 -3.762966 -1.033565 0
M  V30 29 C -5.789787 -3.826371 -2.038529 0
M  V30 30 N -5.387024 -3.704426 -3.308027 0
M  V30 31 C -4.065840 -3.520993 -3.555080 0
M  V30 32 Cl -3.708650 -3.383210 -5.279909 0
M  V30 33 N -3.107507 -3.451714 -2.581756 0
M  V30 34 C 1.690217 1.457746 2.876657 0
M  V30 35 C 1.825021 1.232312 4.233747 0
M  V30 36 H 3.222793 -0.330208 6.521683 0
M  V30 37 H 1.744422 -1.340298 6.422831 0
M  V30 38 H 1.577577 0.386205 6.741263 0
M  V30 39 H 2.288643 -2.115526 4.080765 0
M  V30 40 H 2.024661 -1.582475 1.632737 0
M  V30 41 H 4.875123 2.385471 -2.012175 0
M  V30 42 H 4.566053 0.576316 -2.242764 0
M  V30 43 H 4.756454 1.653325 -3.682302 0
M  V30 44 H 1.933862 3.813922 -2.245692 0
M  V30 45 H 3.698069 3.901402 -2.688212 0
M  V30 46 H 2.469479 3.575263 -3.955535 0
M  V30 47 H 1.522019 1.621898 -4.294479 0
M  V30 48 H 3.072062 0.747876 -4.475982 0
M  V30 49 H 1.832792 0.145913 -3.350015 0
M  V30 50 H 0.168199 2.111785 -1.933772 0
M  V30 51 H -1.067714 1.959541 1.387875 0
M  V30 52 H -2.862727 0.486801 1.910837 0
M  V30 53 H -4.394909 -1.125620 2.029793 0
M  V30 54 H -4.005760 -1.500862 0.327101 0
M  V30 55 H -3.212246 -2.219204 3.829274 0
M  V30 56 H -2.009292 -4.187220 4.567165 0
M  V30 57 H -0.986400 -5.787352 3.026233 0
M  V30 58 H -1.182674 -5.397159 0.656477 0
M  V30 59 H -4.969679 -3.835641 0.051030 0
M  V30 60 H -6.784033 -3.972491 -1.670868 0
M  V30 61 H 1.524404 2.501624 2.661940 0
M  V30 62 H 1.774950 1.990309 4.982053 0
M  V30 END ATOM
M  V30 BEGIN BOND
M  V30 1 1 1 2
M  V30 2 2 2 3
M  V30 3 1 3 4
M  V30 4 2 4 5
M  V30 5 1 5 6
M  V30 6 1 6 7
M  V30 7 2 7 8
M  V30 8 1 8 9
M  V30 9 1 9 10
M  V30 10 1 9 11
M  V30 11 1 9 12
M  V30 12 1 8 13
M  V30 13 2 13 14
M  V30 14 1 14 15
M  V30 15 1 15 16
M  V30 16 2 16 17
M  V30 17 1 16 18
M  V30 18 1 18 19
M  V30 19 1 19 20
M  V30 20 2 20 21
M  V30 21 1 21 22
M  V30 22 2 22 23
M  V30 23 1 23 24
M  V30 24 2 24 25
M  V30 25 1 25 26
M  V30 26 1 26 27
M  V30 27 2 27 28
M  V30 28 1 28 29
M  V30 29 2 29 30
M  V30 30 1 30 31
M  V30 31 1 31 32
M  V30 32 2 31 33
M  V30 33 1 5 34
M  V30 34 2 34 35
M  V30 35 1 35 2
M  V30 36 1 14 6
M  V30 37 1 25 20
M  V30 38 1 33 27
M  V30 39 1 1 36
M  V30 40 1 1 37
M  V30 41 1 1 38
M  V30 42 1 3 39
M  V30 43 1 4 40
M  V30 44 1 10 41
M  V30 45 1 10 42
M  V30 46 1 10 43
M  V30 47 1 11 44
M  V30 48 1 11 45
M  V30 49 1 11 46
M  V30 50 1 12 47
M  V30 51 1 12 48
M  V30 52 1 12 49
M  V30 53 1 13 50
M  V30 54 1 15 51
M  V30 55 1 18 52
M  V30 56 1 19 53
M  V30 57 1 19 54
M  V30 58 1 21 55
M  V30 59 1 22 56
M  V30 60 1 23 57
M  V30 61 1 24 58
M  V30 62 1 28 59
M  V30 63 1 29 60
M  V30 64 1 34 61
M  V30 65 1 35 62
M  V30 END BOND
M  V30 END CTAB
M  END
>  <Dataset>  (438) 
ChEMBL_Kinases

>  <Ligand_Instance>  (438) 
nan

>  <PDB_ID>  (438) 
nan

>  <Standardized_SMILES>  (438) 
Cc1ccc(-n2nc(C(C)(C)C)cc2NC(=O)NCc2ccccc2Oc2ccnc(Cl)n2)cc1

>  <Name>  (438) 
nan

>  <Pocket>  (438) 
nan

>  <ATP_Site>  (438) 
nan

>  <Peripheral>  (438) 
nan

>  <Num_H_Atoms_ProtBoundConf>  (438) 
nan

>  <Num_Resolved_Atoms>  (438) 
nan

>  <Num_Not_Resolved_Atoms>  (438) 
nan

$$$$
CHEMBL2058045
     RDKit          3D

  0  0  0  0  0  0  0  0  0  0999 V3000
M  V30 BEGIN CTAB
M  V30 COUNTS 77 81 0 0 0
M  V30 BEGIN ATOM
M  V30 1 C 4.592103 2.004748 3.458299 0
M  V30 2 C 3.489735 2.042313 2.450804 0
M  V30 3 C 2.344494 2.739245 2.798710 0
M  V30 4 C 1.304049 2.795763 1.893216 0
M  V30 5 C 1.326125 2.195857 0.643743 0
M  V30 6 N 0.232170 2.281428 -0.253799 0
M  V30 7 N 0.515854 2.484924 -1.541728 0
M  V30 8 C -0.598461 2.546806 -2.282253 0
M  V30 9 C -0.764695 2.756568 -3.744362 0
M  V30 10 C -0.760038 1.422314 -4.471485 0
M  V30 11 C 0.345582 3.627684 -4.276881 0
M  V30 12 C -2.114010 3.372269 -3.976553 0
M  V30 13 C -1.630651 2.369587 -1.388673 0
M  V30 14 C -1.103999 2.204524 -0.124031 0
M  V30 15 N -1.623025 1.987994 1.184674 0
M  V30 16 C -1.816569 0.654487 1.606806 0
M  V30 17 O -1.522739 -0.261321 0.804224 0
M  V30 18 N -2.311686 0.241759 2.852080 0
M  V30 19 C -2.618501 -0.985714 3.550526 0
M  V30 20 C -3.666404 -1.812500 2.938148 0
M  V30 21 C -4.969590 -1.632657 3.428208 0
M  V30 22 C -6.110931 -2.257492 2.979663 0
M  V30 23 C -5.980934 -3.152100 1.947249 0
M  V30 24 C -4.725215 -3.365416 1.431524 0
M  V30 25 C -3.609938 -2.714870 1.915953 0
M  V30 26 O -2.460345 -3.043610 1.299262 0
M  V30 27 C -1.320555 -3.639753 1.725499 0
M  V30 28 C -0.889075 -4.160415 2.928607 0
M  V30 29 C 0.345115 -4.731995 3.120148 0
M  V30 30 N 1.156233 -4.769754 2.048929 0
M  V30 31 C 0.789375 -4.278470 0.853833 0
M  V30 32 N 1.726961 -4.363753 -0.239458 0
M  V30 33 C 1.387395 -3.858740 -1.540027 0
M  V30 34 C 2.511474 -2.962561 -1.996616 0
M  V30 35 C 3.837775 -3.654011 -1.999177 0
M  V30 36 C 3.735936 -5.046335 -1.378079 0
M  V30 37 C 3.022765 -4.957949 -0.046242 0
M  V30 38 N -0.423367 -3.725586 0.697016 0
M  V30 39 C 2.492237 1.518066 0.356566 0
M  V30 40 C 3.561760 1.426429 1.216728 0
M  V30 41 H 5.156181 2.972249 3.442459 0
M  V30 42 H 4.181751 1.887600 4.498649 0
M  V30 43 H 5.254587 1.141225 3.288523 0
M  V30 44 H 2.266658 3.236699 3.775119 0
M  V30 45 H 0.430747 3.357173 2.222093 0
M  V30 46 H -1.780019 1.072920 -4.730263 0
M  V30 47 H -0.132918 1.453066 -5.379375 0
M  V30 48 H -0.323077 0.617483 -3.815744 0
M  V30 49 H 0.492531 3.368815 -5.345420 0
M  V30 50 H 0.038939 4.664604 -4.144818 0
M  V30 51 H 1.285023 3.363104 -3.756458 0
M  V30 52 H -2.239519 3.475914 -5.069011 0
M  V30 53 H -2.868133 2.593953 -3.666307 0
M  V30 54 H -2.182296 4.296356 -3.398912 0
M  V30 55 H -2.690851 2.343116 -1.519738 0
M  V30 56 H -1.864816 2.755744 1.844835 0
M  V30 57 H -2.512495 1.113124 3.432524 0
M  V30 58 H -2.950883 -0.742388 4.577163 0
M  V30 59 H -1.663287 -1.561632 3.700476 0
M  V30 60 H -5.137748 -0.926646 4.257760 0
M  V30 61 H -7.072732 -2.056571 3.417759 0
M  V30 62 H -6.873511 -3.641862 1.594292 0
M  V30 63 H -4.682314 -4.080715 0.619222 0
M  V30 64 H -1.664003 -4.047116 3.678227 0
M  V30 65 H 0.556182 -5.100794 4.113203 0
M  V30 66 H 1.264715 -4.656642 -2.294677 0
M  V30 67 H 0.473541 -3.200165 -1.482713 0
M  V30 68 H 2.328042 -2.582534 -3.041440 0
M  V30 69 H 2.565070 -2.039594 -1.353610 0
M  V30 70 H 4.285571 -3.724299 -2.992219 0
M  V30 71 H 4.566340 -3.083704 -1.366945 0
M  V30 72 H 3.275052 -5.770139 -2.063279 0
M  V30 73 H 4.758362 -5.427164 -1.150011 0
M  V30 74 H 3.629573 -4.244251 0.576361 0
M  V30 75 H 2.957059 -5.953623 0.402939 0
M  V30 76 H 2.578956 1.025171 -0.602298 0
M  V30 77 H 4.459055 0.890768 0.966255 0
M  V30 END ATOM
M  V30 BEGIN BOND
M  V30 1 1 1 2
M  V30 2 2 2 3
M  V30 3 1 3 4
M  V30 4 2 4 5
M  V30 5 1 5 6
M  V30 6 1 6 7
M  V30 7 2 7 8
M  V30 8 1 8 9
M  V30 9 1 9 10
M  V30 10 1 9 11
M  V30 11 1 9 12
M  V30 12 1 8 13
M  V30 13 2 13 14
M  V30 14 1 14 15
M  V30 15 1 15 16
M  V30 16 2 16 17
M  V30 17 1 16 18
M  V30 18 1 18 19
M  V30 19 1 19 20
M  V30 20 2 20 21
M  V30 21 1 21 22
M  V30 22 2 22 23
M  V30 23 1 23 24
M  V30 24 2 24 25
M  V30 25 1 25 26
M  V30 26 1 26 27
M  V30 27 2 27 28
M  V30 28 1 28 29
M  V30 29 2 29 30
M  V30 30 1 30 31
M  V30 31 1 31 32
M  V30 32 1 32 33
M  V30 33 1 33 34
M  V30 34 1 34 35
M  V30 35 1 35 36
M  V30 36 1 36 37
M  V30 37 2 31 38
M  V30 38 1 5 39
M  V30 39 2 39 40
M  V30 40 1 40 2
M  V30 41 1 14 6
M  V30 42 1 25 20
M  V30 43 1 38 27
M  V30 44 1 37 32
M  V30 45 1 1 41
M  V30 46 1 1 42
M  V30 47 1 1 43
M  V30 48 1 3 44
M  V30 49 1 4 45
M  V30 50 1 10 46
M  V30 51 1 10 47
M  V30 52 1 10 48
M  V30 53 1 11 49
M  V30 54 1 11 50
M  V30 55 1 11 51
M  V30 56 1 12 52
M  V30 57 1 12 53
M  V30 58 1 12 54
M  V30 59 1 13 55
M  V30 60 1 15 56
M  V30 61 1 18 57
M  V30 62 1 19 58
M  V30 63 1 19 59
M  V30 64 1 21 60
M  V30 65 1 22 61
M  V30 66 1 23 62
M  V30 67 1 24 63
M  V30 68 1 28 64
M  V30 69 1 29 65
M  V30 70 1 33 66
M  V30 71 1 33 67
M  V30 72 1 34 68
M  V30 73 1 34 69
M  V30 74 1 35 70
M  V30 75 1 35 71
M  V30 76 1 36 72
M  V30 77 1 36 73
M  V30 78 1 37 74
M  V30 79 1 37 75
M  V30 80 1 39 76
M  V30 81 1 40 77
M  V30 END BOND
M  V30 END CTAB
M  END
>  <Dataset>  (439) 
ChEMBL_Kinases

>  <Ligand_Instance>  (439) 
nan

>  <PDB_ID>  (439) 
nan

>  <Standardized_SMILES>  (439) 
Cc1ccc(-n2nc(C(C)(C)C)cc2NC(=O)NCc2ccccc2Oc2ccnc(N3CCCCC3)n2)cc1

>  <Name>  (439) 
nan

>  <Pocket>  (439) 
nan

>  <ATP_Site>  (439) 
nan

>  <Peripheral>  (439) 
nan

>  <Num_H_Atoms_ProtBoundConf>  (439) 
nan

>  <Num_Resolved_Atoms>  (439) 
nan

>  <Num_Not_Resolved_Atoms>  (439) 
nan

$$$$
CHEMBL2058044
     RDKit          3D

  0  0  0  0  0  0  0  0  0  0999 V3000
M  V30 BEGIN CTAB
M  V30 COUNTS 75 79 0 0 0
M  V30 BEGIN ATOM
M  V30 1 C 4.971154 -0.614821 4.912105 0
M  V30 2 C 4.251043 -0.252462 3.653359 0
M  V30 3 C 3.834799 1.042817 3.407198 0
M  V30 4 C 3.171579 1.369277 2.241781 0
M  V30 5 C 2.891540 0.403019 1.259534 0
M  V30 6 N 2.249369 0.649740 0.044970 0
M  V30 7 N 3.133127 0.941278 -0.890622 0
M  V30 8 C 2.488759 1.178393 -2.063138 0
M  V30 9 C 3.030232 1.537879 -3.416695 0
M  V30 10 C 3.261729 0.243869 -4.167353 0
M  V30 11 C 4.353038 2.242709 -3.210206 0
M  V30 12 C 2.097569 2.411768 -4.184155 0
M  V30 13 C 1.145808 1.023390 -1.829998 0
M  V30 14 C 1.033033 0.690819 -0.494255 0
M  V30 15 N -0.169600 0.434695 0.178648 0
M  V30 16 C -0.627632 0.075220 1.455028 0
M  V30 17 O 0.350352 -0.044248 2.217027 0
M  V30 18 N -1.909716 -0.155468 1.974829 0
M  V30 19 C -1.803325 -0.504239 3.383784 0
M  V30 20 C -3.154457 -0.791867 3.917183 0
M  V30 21 C -3.903813 0.098888 4.658500 0
M  V30 22 C -5.148334 -0.230264 5.133919 0
M  V30 23 C -5.654861 -1.479621 4.861033 0
M  V30 24 C -4.889807 -2.377044 4.109086 0
M  V30 25 C -3.622395 -2.055413 3.619457 0
M  V30 26 O -3.125898 -3.114564 2.937602 0
M  V30 27 C -2.785272 -3.322550 1.648340 0
M  V30 28 C -2.264142 -4.629877 1.633085 0
M  V30 29 C -1.787778 -5.223540 0.450539 0
M  V30 30 N -1.845786 -4.494885 -0.683210 0
M  V30 31 C -2.344289 -3.249351 -0.661435 0
M  V30 32 N -2.416572 -2.445024 -1.807557 0
M  V30 33 C -3.225946 -1.272073 -2.002141 0
M  V30 34 C -2.956248 -0.545032 -3.267950 0
M  V30 35 O -2.605682 -1.277705 -4.358674 0
M  V30 36 C -2.375982 -2.613462 -4.183473 0
M  V30 37 C -1.571603 -2.827533 -2.919841 0
M  V30 38 N -2.787203 -2.708476 0.461710 0
M  V30 39 C 3.322272 -0.904917 1.528401 0
M  V30 40 C 3.990285 -1.218456 2.708276 0
M  V30 41 H 4.315481 -1.151801 5.615349 0
M  V30 42 H 5.312165 0.291904 5.451901 0
M  V30 43 H 5.895233 -1.156510 4.630571 0
M  V30 44 H 4.037146 1.826264 4.155788 0
M  V30 45 H 2.837280 2.382629 2.030791 0
M  V30 46 H 2.343295 -0.377180 -4.013203 0
M  V30 47 H 4.179081 -0.269197 -3.824375 0
M  V30 48 H 3.268327 0.462618 -5.265304 0
M  V30 49 H 5.004963 1.955479 -4.066037 0
M  V30 50 H 4.840960 1.970082 -2.247640 0
M  V30 51 H 4.215710 3.348874 -3.297549 0
M  V30 52 H 1.815250 1.914937 -5.136827 0
M  V30 53 H 1.143833 2.628052 -3.659538 0
M  V30 54 H 2.608222 3.362690 -4.498872 0
M  V30 55 H 0.326598 1.137763 -2.545179 0
M  V30 56 H -1.039218 0.513837 -0.384217 0
M  V30 57 H -2.668385 -0.030812 1.257033 0
M  V30 58 H -1.330829 0.317778 3.969779 0
M  V30 59 H -1.120261 -1.372399 3.530133 0
M  V30 60 H -3.381546 1.043484 4.794645 0
M  V30 61 H -5.586015 0.589990 5.690769 0
M  V30 62 H -6.636210 -1.666414 5.263120 0
M  V30 63 H -5.450421 -3.319679 3.991565 0
M  V30 64 H -2.123080 -5.386823 2.411292 0
M  V30 65 H -1.367208 -6.199561 0.289937 0
M  V30 66 H -4.321554 -1.543058 -1.888059 0
M  V30 67 H -3.039978 -0.591753 -1.145685 0
M  V30 68 H -3.886985 0.048786 -3.507641 0
M  V30 69 H -2.193402 0.262285 -3.078102 0
M  V30 70 H -1.731213 -2.950734 -5.030777 0
M  V30 71 H -3.270119 -3.261391 -4.184686 0
M  V30 72 H -1.165461 -3.840250 -2.854131 0
M  V30 73 H -0.728578 -2.098206 -2.925130 0
M  V30 74 H 3.125208 -1.692140 0.785013 0
M  V30 75 H 4.328478 -2.221531 2.931424 0
M  V30 END ATOM
M  V30 BEGIN BOND
M  V30 1 1 1 2
M  V30 2 2 2 3
M  V30 3 1 3 4
M  V30 4 2 4 5
M  V30 5 1 5 6
M  V30 6 1 6 7
M  V30 7 2 7 8
M  V30 8 1 8 9
M  V30 9 1 9 10
M  V30 10 1 9 11
M  V30 11 1 9 12
M  V30 12 1 8 13
M  V30 13 2 13 14
M  V30 14 1 14 15
M  V30 15 1 15 16
M  V30 16 2 16 17
M  V30 17 1 16 18
M  V30 18 1 18 19
M  V30 19 1 19 20
M  V30 20 2 20 21
M  V30 21 1 21 22
M  V30 22 2 22 23
M  V30 23 1 23 24
M  V30 24 2 24 25
M  V30 25 1 25 26
M  V30 26 1 26 27
M  V30 27 2 27 28
M  V30 28 1 28 29
M  V30 29 2 29 30
M  V30 30 1 30 31
M  V30 31 1 31 32
M  V30 32 1 32 33
M  V30 33 1 33 34
M  V30 34 1 34 35
M  V30 35 1 35 36
M  V30 36 1 36 37
M  V30 37 2 31 38
M  V30 38 1 5 39
M  V30 39 2 39 40
M  V30 40 1 40 2
M  V30 41 1 14 6
M  V30 42 1 25 20
M  V30 43 1 38 27
M  V30 44 1 37 32
M  V30 45 1 1 41
M  V30 46 1 1 42
M  V30 47 1 1 43
M  V30 48 1 3 44
M  V30 49 1 4 45
M  V30 50 1 10 46
M  V30 51 1 10 47
M  V30 52 1 10 48
M  V30 53 1 11 49
M  V30 54 1 11 50
M  V30 55 1 11 51
M  V30 56 1 12 52
M  V30 57 1 12 53
M  V30 58 1 12 54
M  V30 59 1 13 55
M  V30 60 1 15 56
M  V30 61 1 18 57
M  V30 62 1 19 58
M  V30 63 1 19 59
M  V30 64 1 21 60
M  V30 65 1 22 61
M  V30 66 1 23 62
M  V30 67 1 24 63
M  V30 68 1 28 64
M  V30 69 1 29 65
M  V30 70 1 33 66
M  V30 71 1 33 67
M  V30 72 1 34 68
M  V30 73 1 34 69
M  V30 74 1 36 70
M  V30 75 1 36 71
M  V30 76 1 37 72
M  V30 77 1 37 73
M  V30 78 1 39 74
M  V30 79 1 40 75
M  V30 END BOND
M  V30 END CTAB
M  END
>  <Dataset>  (440) 
ChEMBL_Kinases

>  <Ligand_Instance>  (440) 
nan

>  <PDB_ID>  (440) 
nan

>  <Standardized_SMILES>  (440) 
Cc1ccc(-n2nc(C(C)(C)C)cc2NC(=O)NCc2ccccc2Oc2ccnc(N3CCOCC3)n2)cc1

>  <Name>  (440) 
nan

>  <Pocket>  (440) 
nan

>  <ATP_Site>  (440) 
nan

>  <Peripheral>  (440) 
nan

>  <Num_H_Atoms_ProtBoundConf>  (440) 
nan

>  <Num_Resolved_Atoms>  (440) 
nan

>  <Num_Not_Resolved_Atoms>  (440) 
nan

$$$$
CHEMBL2058043
     RDKit          3D

  0  0  0  0  0  0  0  0  0  0999 V3000
M  V30 BEGIN CTAB
M  V30 COUNTS 54 56 0 0 0
M  V30 BEGIN ATOM
M  V30 1 C -0.101350 -5.674501 1.877569 0
M  V30 2 C 0.206173 -4.230711 1.769921 0
M  V30 3 C 0.654215 -3.717804 0.563134 0
M  V30 4 C 0.927875 -2.362305 0.509009 0
M  V30 5 C 0.783079 -1.477079 1.588722 0
M  V30 6 N 1.150426 -0.171774 1.253720 0
M  V30 7 N 2.448981 0.014288 1.518066 0
M  V30 8 C 2.782092 1.287559 1.174219 0
M  V30 9 C 4.096609 1.972572 1.275980 0
M  V30 10 C 4.933814 1.809933 0.038340 0
M  V30 11 C 3.895127 3.392307 1.693626 0
M  V30 12 C 4.849155 1.246777 2.390531 0
M  V30 13 C 1.655537 1.897661 0.685857 0
M  V30 14 C 0.647452 0.955341 0.749218 0
M  V30 15 N -0.659976 1.164512 0.342024 0
M  V30 16 C -1.858975 0.457131 0.335166 0
M  V30 17 O -1.722967 -0.658309 0.842754 0
M  V30 18 N -3.100713 0.814588 -0.133792 0
M  V30 19 C -4.397997 0.244180 -0.226347 0
M  V30 20 C -4.391937 -0.971378 -1.059060 0
M  V30 21 C -4.655249 -0.753730 -2.423075 0
M  V30 22 C -4.662542 -1.711359 -3.410900 0
M  V30 23 C -4.390072 -3.015093 -3.061639 0
M  V30 24 C -4.125586 -3.289707 -1.740862 0
M  V30 25 C -4.135184 -2.292443 -0.810354 0
M  V30 26 O -3.871312 -2.613638 0.510815 0
M  V30 27 C 0.326060 -2.051563 2.786774 0
M  V30 28 C 0.048441 -3.398381 2.859635 0
M  V30 29 H 0.617669 -6.311678 1.329825 0
M  V30 30 H -0.105961 -6.031634 2.929154 0
M  V30 31 H -1.117131 -5.904272 1.476643 0
M  V30 32 H 0.766162 -4.387198 -0.258834 0
M  V30 33 H 1.276805 -2.062018 -0.493121 0
M  V30 34 H 5.448991 0.811466 0.033835 0
M  V30 35 H 5.762890 2.548896 0.096798 0
M  V30 36 H 4.363761 1.951393 -0.903743 0
M  V30 37 H 3.562411 3.408886 2.756332 0
M  V30 38 H 3.164499 3.960388 1.110229 0
M  V30 39 H 4.844775 3.971705 1.685901 0
M  V30 40 H 5.886248 1.618719 2.436519 0
M  V30 41 H 4.292019 1.329583 3.350591 0
M  V30 42 H 4.832441 0.158984 2.092643 0
M  V30 43 H 1.599207 2.933872 0.322931 0
M  V30 44 H -0.850765 2.087106 -0.095089 0
M  V30 45 H -3.081267 1.802733 -0.545471 0
M  V30 46 H -5.132009 0.957175 -0.665616 0
M  V30 47 H -4.798570 -0.027784 0.803596 0
M  V30 48 H -4.882994 0.257752 -2.794943 0
M  V30 49 H -4.874016 -1.473613 -4.442575 0
M  V30 50 H -4.371966 -3.825672 -3.758064 0
M  V30 51 H -3.906880 -4.291378 -1.414768 0
M  V30 52 H -4.684760 -2.831207 1.077556 0
M  V30 53 H 0.246455 -1.296590 3.556619 0
M  V30 54 H -0.298230 -3.746146 3.822699 0
M  V30 END ATOM
M  V30 BEGIN BOND
M  V30 1 1 1 2
M  V30 2 2 2 3
M  V30 3 1 3 4
M  V30 4 2 4 5
M  V30 5 1 5 6
M  V30 6 1 6 7
M  V30 7 2 7 8
M  V30 8 1 8 9
M  V30 9 1 9 10
M  V30 10 1 9 11
M  V30 11 1 9 12
M  V30 12 1 8 13
M  V30 13 2 13 14
M  V30 14 1 14 15
M  V30 15 1 15 16
M  V30 16 2 16 17
M  V30 17 1 16 18
M  V30 18 1 18 19
M  V30 19 1 19 20
M  V30 20 2 20 21
M  V30 21 1 21 22
M  V30 22 2 22 23
M  V30 23 1 23 24
M  V30 24 2 24 25
M  V30 25 1 25 26
M  V30 26 1 5 27
M  V30 27 2 27 28
M  V30 28 1 28 2
M  V30 29 1 14 6
M  V30 30 1 25 20
M  V30 31 1 1 29
M  V30 32 1 1 30
M  V30 33 1 1 31
M  V30 34 1 3 32
M  V30 35 1 4 33
M  V30 36 1 10 34
M  V30 37 1 10 35
M  V30 38 1 10 36
M  V30 39 1 11 37
M  V30 40 1 11 38
M  V30 41 1 11 39
M  V30 42 1 12 40
M  V30 43 1 12 41
M  V30 44 1 12 42
M  V30 45 1 13 43
M  V30 46 1 15 44
M  V30 47 1 18 45
M  V30 48 1 19 46
M  V30 49 1 19 47
M  V30 50 1 21 48
M  V30 51 1 22 49
M  V30 52 1 23 50
M  V30 53 1 24 51
M  V30 54 1 26 52
M  V30 55 1 27 53
M  V30 56 1 28 54
M  V30 END BOND
M  V30 END CTAB
M  END
>  <Dataset>  (441) 
ChEMBL_Kinases

>  <Ligand_Instance>  (441) 
nan

>  <PDB_ID>  (441) 
nan

>  <Standardized_SMILES>  (441) 
Cc1ccc(-n2nc(C(C)(C)C)cc2NC(=O)NCc2ccccc2O)cc1

>  <Name>  (441) 
nan

>  <Pocket>  (441) 
nan

>  <ATP_Site>  (441) 
nan

>  <Peripheral>  (441) 
nan

>  <Num_H_Atoms_ProtBoundConf>  (441) 
nan

>  <Num_Resolved_Atoms>  (441) 
nan

>  <Num_Not_Resolved_Atoms>  (441) 
nan

$$$$
CHEMBL2057918
     RDKit          3D

  0  0  0  0  0  0  0  0  0  0999 V3000
M  V30 BEGIN CTAB
M  V30 COUNTS 80 86 0 0 0
M  V30 BEGIN ATOM
M  V30 1 C 0.765851 -7.862877 -3.420446 0
M  V30 2 N 1.692648 -6.775142 -3.615680 0
M  V30 3 C 2.843817 -6.935641 -2.723189 0
M  V30 4 C 3.900136 -5.895060 -3.061550 0
M  V30 5 N 3.407637 -4.974559 -4.077655 0
M  V30 6 C 3.157552 -3.582349 -3.978449 0
M  V30 7 C 2.685374 -2.804138 -4.991437 0
M  V30 8 C 2.470570 -1.463075 -4.816533 0
M  V30 9 C 2.721278 -0.824524 -3.601426 0
M  V30 10 N 2.501124 0.576180 -3.404692 0
M  V30 11 C 2.776429 1.187746 -2.151359 0
M  V30 12 C 1.712211 1.788493 -1.527008 0
M  V30 13 C 1.791144 2.414786 -0.336109 0
M  V30 14 C 0.882890 3.097371 0.559309 0
M  V30 15 C 1.232351 4.399541 0.949985 0
M  V30 16 C 0.522258 5.234773 1.789431 0
M  V30 17 C -0.649138 4.692198 2.273423 0
M  V30 18 C -1.078907 3.423551 1.949010 0
M  V30 19 N -2.302439 2.876495 2.464375 0
M  V30 20 C -3.406608 3.051394 1.682961 0
M  V30 21 C -4.631076 2.557897 2.092449 0
M  V30 22 C -4.736066 1.887087 3.294458 0
M  V30 23 C -5.917918 1.363029 3.776717 0
M  V30 24 C -5.970506 0.699264 4.985208 0
M  V30 25 C -7.277843 0.159943 5.439956 0
M  V30 26 C -7.494613 0.263413 6.929861 0
M  V30 27 C -7.320171 -1.062184 6.310112 0
M  V30 28 C -4.853288 0.523417 5.773860 0
M  V30 29 C -3.666532 1.051465 5.286548 0
M  V30 30 F -2.546650 0.884856 6.059426 0
M  V30 31 C -3.607414 1.721181 4.069360 0
M  V30 32 C -2.374573 2.217500 3.658037 0
M  V30 33 O -1.306247 2.102158 4.314422 0
M  V30 34 C -0.302860 2.672067 1.106918 0
M  V30 35 C -0.785200 1.322347 0.768892 0
M  V30 36 O -1.395009 1.377209 -0.481652 0
M  V30 37 C 3.082907 2.402377 0.225867 0
M  V30 38 N 4.141562 1.816240 -0.374458 0
M  V30 39 C 5.483072 1.784198 0.172564 0
M  V30 40 C 4.033569 1.197380 -1.563551 0
M  V30 41 O 4.956507 0.626061 -2.197844 0
M  V30 42 N 3.189899 -1.623395 -2.612797 0
M  V30 43 C 3.396769 -2.939580 -2.797114 0
M  V30 44 C 3.208869 -5.777013 -5.266579 0
M  V30 45 C 2.143985 -6.795944 -4.990076 0
M  V30 46 H 1.154535 -8.747349 -3.940708 0
M  V30 47 H 0.563090 -8.037247 -2.331983 0
M  V30 48 H -0.214562 -7.586409 -3.899816 0
M  V30 49 H 2.465016 -6.833748 -1.685028 0
M  V30 50 H 3.258655 -7.960049 -2.809062 0
M  V30 51 H 4.224263 -5.308839 -2.185670 0
M  V30 52 H 4.810622 -6.451502 -3.407186 0
M  V30 53 H 2.471078 -3.218233 -5.944166 0
M  V30 54 H 2.095855 -0.868774 -5.635745 0
M  V30 55 H 2.137193 1.108025 -4.211896 0
M  V30 56 H 0.748861 1.807889 -1.956184 0
M  V30 57 H 2.170656 4.829264 0.560136 0
M  V30 58 H 0.868890 6.208033 2.027645 0
M  V30 59 H -1.270418 5.276817 2.938946 0
M  V30 60 H -3.328415 3.576948 0.739323 0
M  V30 61 H -5.530239 2.657245 1.536678 0
M  V30 62 H -6.831792 1.481579 3.179078 0
M  V30 63 H -8.160735 0.294988 4.787187 0
M  V30 64 H -8.513743 0.490563 7.308090 0
M  V30 65 H -6.682988 0.677014 7.564679 0
M  V30 66 H -8.189531 -1.748298 6.243742 0
M  V30 67 H -6.357462 -1.574784 6.490562 0
M  V30 68 H -4.921555 0.007136 6.702890 0
M  V30 69 H 0.025390 0.559559 0.797093 0
M  V30 70 H -1.581456 0.967287 1.453020 0
M  V30 71 H -1.300676 0.551724 -1.010613 0
M  V30 72 H 3.386562 2.843051 1.175627 0
M  V30 73 H 5.909388 0.757166 0.109696 0
M  V30 74 H 6.192743 2.427566 -0.426633 0
M  V30 75 H 5.469363 2.101148 1.241515 0
M  V30 76 H 3.767382 -3.379114 -1.889213 0
M  V30 77 H 4.166909 -6.319421 -5.528701 0
M  V30 78 H 2.903997 -5.166169 -6.160801 0
M  V30 79 H 2.536161 -7.834016 -5.174912 0
M  V30 80 H 1.251026 -6.673731 -5.637322 0
M  V30 END ATOM
M  V30 BEGIN BOND
M  V30 1 1 1 2
M  V30 2 1 2 3
M  V30 3 1 3 4
M  V30 4 1 4 5
M  V30 5 1 5 6
M  V30 6 2 6 7
M  V30 7 1 7 8
M  V30 8 2 8 9
M  V30 9 1 9 10
M  V30 10 1 10 11
M  V30 11 2 11 12
M  V30 12 1 12 13
M  V30 13 1 13 14
M  V30 14 2 14 15
M  V30 15 1 15 16
M  V30 16 2 16 17
M  V30 17 1 17 18
M  V30 18 1 18 19
M  V30 19 1 19 20
M  V30 20 2 20 21
M  V30 21 1 21 22
M  V30 22 2 22 23
M  V30 23 1 23 24
M  V30 24 1 24 25
M  V30 25 1 25 26
M  V30 26 1 26 27
M  V30 27 2 24 28
M  V30 28 1 28 29
M  V30 29 1 29 30
M  V30 30 2 29 31
M  V30 31 1 31 32
M  V30 32 2 32 33
M  V30 33 2 18 34
M  V30 34 1 34 35
M  V30 35 1 35 36
M  V30 36 2 13 37
M  V30 37 1 37 38
M  V30 38 1 38 39
M  V30 39 1 38 40
M  V30 40 2 40 41
M  V30 41 1 9 42
M  V30 42 2 42 43
M  V30 43 1 5 44
M  V30 44 1 44 45
M  V30 45 1 45 2
M  V30 46 1 43 6
M  V30 47 1 40 11
M  V30 48 1 34 14
M  V30 49 1 32 19
M  V30 50 1 31 22
M  V30 51 1 27 25
M  V30 52 1 1 46
M  V30 53 1 1 47
M  V30 54 1 1 48
M  V30 55 1 3 49
M  V30 56 1 3 50
M  V30 57 1 4 51
M  V30 58 1 4 52
M  V30 59 1 7 53
M  V30 60 1 8 54
M  V30 61 1 10 55
M  V30 62 1 12 56
M  V30 63 1 15 57
M  V30 64 1 16 58
M  V30 65 1 17 59
M  V30 66 1 20 60
M  V30 67 1 21 61
M  V30 68 1 23 62
M  V30 69 1 25 63
M  V30 70 1 26 64
M  V30 71 1 26 65
M  V30 72 1 27 66
M  V30 73 1 27 67
M  V30 74 1 28 68
M  V30 75 1 35 69
M  V30 76 1 35 70
M  V30 77 1 36 71
M  V30 78 1 37 72
M  V30 79 1 39 73
M  V30 80 1 39 74
M  V30 81 1 39 75
M  V30 82 1 43 76
M  V30 83 1 44 77
M  V30 84 1 44 78
M  V30 85 1 45 79
M  V30 86 1 45 80
M  V30 END BOND
M  V30 END CTAB
M  END
>  <Dataset>  (442) 
ChEMBL_Kinases

>  <Ligand_Instance>  (442) 
nan

>  <PDB_ID>  (442) 
nan

>  <Standardized_SMILES>  (442) 
CN1CCN(c2ccc(Nc3cc(-c4cccc(-n5ccc6cc(C7CC7)cc(F)c6c5=O)c4CO)cn(C)c3=O)nc2)CC1

>  <Name>  (442) 
nan

>  <Pocket>  (442) 
nan

>  <ATP_Site>  (442) 
nan

>  <Peripheral>  (442) 
nan

>  <Num_H_Atoms_ProtBoundConf>  (442) 
nan

>  <Num_Resolved_Atoms>  (442) 
nan

>  <Num_Not_Resolved_Atoms>  (442) 
nan

$$$$
CHEMBL2057831
     RDKit          3D

  0  0  0  0  0  0  0  0  0  0999 V3000
M  V30 BEGIN CTAB
M  V30 COUNTS 42 46 0 0 0
M  V30 BEGIN ATOM
M  V30 1 N 0.034154 0.443771 0.663405 0
M  V30 2 C -0.546844 -0.043118 1.688792 0
M  V30 3 C -0.978213 0.796507 2.798104 0
M  V30 4 C -0.655275 2.094489 2.791777 0
M  V30 5 C 0.112930 2.799757 1.780354 0
M  V30 6 C -0.344379 3.778111 0.900460 0
M  V30 7 O 0.470328 4.390268 0.075863 0
M  V30 8 C 1.758994 4.131183 0.018170 0
M  V30 9 C 2.506362 4.849887 -0.897673 0
M  V30 10 C 3.861684 4.565735 -0.946414 0
M  V30 11 C 4.487232 3.624351 -0.145624 0
M  V30 12 C 3.684236 2.932274 0.757228 0
M  V30 13 C 2.317669 3.180489 0.845350 0
M  V30 14 C 1.485634 2.501446 1.742991 0
M  V30 15 O 2.130232 1.657016 2.447262 0
M  V30 16 C -1.702254 0.322936 3.973417 0
M  V30 17 O -2.042558 1.104467 4.886079 0
M  V30 18 N -1.950689 -1.079432 3.930361 0
M  V30 19 C -1.573722 -1.832784 2.957809 0
M  V30 20 S -1.788309 -3.600263 2.719893 0
M  V30 21 C -0.928841 -3.585390 1.121689 0
M  V30 22 C -0.719745 -4.770605 0.297722 0
M  V30 23 C -0.055334 -4.676269 -0.906648 0
M  V30 24 C 0.114530 -5.827488 -1.651550 0
M  V30 25 C -0.361776 -7.050982 -1.217742 0
M  V30 26 O -0.225819 -8.248840 -1.915274 0
M  V30 27 C -1.034064 -7.169997 -0.008449 0
M  V30 28 C -1.189038 -5.997905 0.716623 0
M  V30 29 N -0.565294 -2.406478 0.870030 0
M  V30 30 N -0.862689 -1.430004 1.778260 0
M  V30 31 H 0.360563 -0.111946 -0.149055 0
M  V30 32 H -0.974409 2.754257 3.610245 0
M  V30 33 H -1.413023 3.969826 0.972012 0
M  V30 34 H 2.061376 5.589785 -1.537570 0
M  V30 35 H 4.426489 5.135941 -1.665667 0
M  V30 36 H 5.546693 3.418823 -0.200378 0
M  V30 37 H 4.128349 2.177355 1.411733 0
M  V30 38 H 0.329420 -3.733423 -1.270979 0
M  V30 39 H 0.621465 -5.853491 -2.605984 0
M  V30 40 H 0.458456 -8.438893 -2.621729 0
M  V30 41 H -1.411682 -8.093868 0.355769 0
M  V30 42 H -1.707947 -6.060044 1.661053 0
M  V30 END ATOM
M  V30 BEGIN BOND
M  V30 1 2 1 2
M  V30 2 1 2 3
M  V30 3 2 3 4
M  V30 4 1 4 5
M  V30 5 2 5 6
M  V30 6 1 6 7
M  V30 7 1 7 8
M  V30 8 2 8 9
M  V30 9 1 9 10
M  V30 10 2 10 11
M  V30 11 1 11 12
M  V30 12 2 12 13
M  V30 13 1 13 14
M  V30 14 2 14 15
M  V30 15 1 3 16
M  V30 16 2 16 17
M  V30 17 1 16 18
M  V30 18 2 18 19
M  V30 19 1 19 20
M  V30 20 1 20 21
M  V30 21 1 21 22
M  V30 22 2 22 23
M  V30 23 1 23 24
M  V30 24 2 24 25
M  V30 25 1 25 26
M  V30 26 1 25 27
M  V30 27 2 27 28
M  V30 28 2 21 29
M  V30 29 1 29 30
M  V30 30 1 30 2
M  V30 31 1 14 5
M  V30 32 1 30 19
M  V30 33 1 13 8
M  V30 34 1 28 22
M  V30 35 1 1 31
M  V30 36 1 4 32
M  V30 37 1 6 33
M  V30 38 1 9 34
M  V30 39 1 10 35
M  V30 40 1 11 36
M  V30 41 1 12 37
M  V30 42 1 23 38
M  V30 43 1 24 39
M  V30 44 1 26 40
M  V30 45 1 27 41
M  V30 46 1 28 42
M  V30 END BOND
M  V30 END CTAB
M  END
>  <Dataset>  (443) 
ChEMBL_Kinases

>  <Ligand_Instance>  (443) 
nan

>  <PDB_ID>  (443) 
nan

>  <Standardized_SMILES>  (443) 
N=C1/C(=C\c2coc3ccccc3c2=O)C(=O)N=C2SC(c3ccc(O)cc3)=NN12

>  <Name>  (443) 
nan

>  <Pocket>  (443) 
nan

>  <ATP_Site>  (443) 
nan

>  <Peripheral>  (443) 
nan

>  <Num_H_Atoms_ProtBoundConf>  (443) 
nan

>  <Num_Resolved_Atoms>  (443) 
nan

>  <Num_Not_Resolved_Atoms>  (443) 
nan

$$$$
CHEMBL205781
     RDKit          3D

  0  0  0  0  0  0  0  0  0  0999 V3000
M  V30 BEGIN CTAB
M  V30 COUNTS 57 61 0 0 0
M  V30 BEGIN ATOM
M  V30 1 N 4.081665 -6.106723 1.624424 0
M  V30 2 C 4.214244 -4.788429 1.109480 0
M  V30 3 O 5.148507 -5.260966 0.460083 0
M  V30 4 C 3.358084 -3.679739 1.498503 0
M  V30 5 C 2.372768 -3.942508 2.432188 0
M  V30 6 C 1.613484 -2.834894 2.738770 0
M  V30 7 C 1.812433 -1.593581 2.175359 0
M  V30 8 C 2.797009 -1.395535 1.261685 0
M  V30 9 C 2.930708 -0.123680 0.751419 0
M  V30 10 C 2.116390 1.043652 1.049836 0
M  V30 11 C 2.834321 2.160409 1.424857 0
M  V30 12 N 2.270921 3.364380 1.738702 0
M  V30 13 C 0.913691 3.516165 1.691379 0
M  V30 14 C 0.163666 2.402512 1.314799 0
M  V30 15 O -1.204736 2.533273 1.261578 0
M  V30 16 C -2.024317 1.414362 0.876009 0
M  V30 17 C -3.467190 1.805387 0.900861 0 CFG=1
M  V30 18 N -3.750565 2.909058 -0.002892 0
M  V30 19 C -4.444330 0.701243 0.714001 0
M  V30 20 C -4.367981 -0.043732 -0.539351 0
M  V30 21 C -5.224503 0.190561 -1.622981 0
M  V30 22 N -4.952893 -0.600235 -2.664780 0
M  V30 23 C -3.905520 -1.398456 -2.327962 0
M  V30 24 C -3.205572 -2.391947 -2.978959 0
M  V30 25 C -2.161386 -3.054233 -2.369101 0
M  V30 26 C -1.832130 -2.689232 -1.069652 0
M  V30 27 C -2.527904 -1.698852 -0.417630 0
M  V30 28 C -3.569485 -1.041287 -1.033437 0
M  V30 29 C 0.746460 1.193896 1.000506 0
M  V30 30 C 3.959620 0.060136 -0.185571 0
M  V30 31 C 4.770626 -1.020282 -0.544186 0
M  V30 32 C 4.594040 -2.293541 0.001776 0
M  V30 33 C 3.595304 -2.457770 0.907835 0
M  V30 34 H 3.464842 -6.956853 1.578515 0
M  V30 35 H 3.430767 -6.928341 1.541022 0
M  V30 36 H 2.258771 -4.934630 2.843247 0
M  V30 37 H 0.814619 -2.959717 3.468069 0
M  V30 38 H 1.175221 -0.804714 2.490976 0
M  V30 39 H 3.931552 2.169619 1.500723 0
M  V30 40 H 0.461921 4.477000 1.942072 0
M  V30 41 H -1.777226 0.634879 1.634605 0
M  V30 42 H -1.657284 1.037458 -0.094991 0
M  V30 43 H -3.657133 2.220937 1.918239 0
M  V30 44 H -2.929862 3.526716 -0.171964 0
M  V30 45 H -4.628474 3.404447 0.241196 0
M  V30 46 H -5.464756 1.123245 0.822004 0
M  V30 47 H -4.280258 -0.005022 1.587017 0
M  V30 48 H -6.027561 0.920687 -1.652690 0
M  V30 49 H -5.445011 -0.617871 -3.582333 0
M  V30 50 H -3.529139 -2.606628 -3.978728 0
M  V30 51 H -1.673779 -3.821718 -2.967873 0
M  V30 52 H -0.996491 -3.243987 -0.630935 0
M  V30 53 H -2.249422 -1.445560 0.592892 0
M  V30 54 H 0.194988 0.320158 0.696069 0
M  V30 55 H 4.178085 1.016580 -0.669709 0
M  V30 56 H 5.565272 -0.850550 -1.276700 0
M  V30 57 H 5.246944 -3.069300 -0.317178 0
M  V30 END ATOM
M  V30 BEGIN BOND
M  V30 1 1 1 2
M  V30 2 2 2 3
M  V30 3 1 2 4
M  V30 4 2 4 5
M  V30 5 1 5 6
M  V30 6 2 6 7
M  V30 7 1 7 8
M  V30 8 2 8 9
M  V30 9 1 9 10
M  V30 10 2 10 11
M  V30 11 1 11 12
M  V30 12 2 12 13
M  V30 13 1 13 14
M  V30 14 1 14 15
M  V30 15 1 15 16
M  V30 16 1 16 17
M  V30 17 1 17 18
M  V30 18 1 17 19
M  V30 19 1 19 20
M  V30 20 2 20 21
M  V30 21 1 21 22
M  V30 22 1 22 23
M  V30 23 2 23 24
M  V30 24 1 24 25
M  V30 25 2 25 26
M  V30 26 1 26 27
M  V30 27 2 27 28
M  V30 28 2 14 29
M  V30 29 1 9 30
M  V30 30 2 30 31
M  V30 31 1 31 32
M  V30 32 2 32 33
M  V30 33 1 33 4
M  V30 34 1 33 8
M  V30 35 1 29 10
M  V30 36 1 28 20
M  V30 37 1 28 23
M  V30 38 1 1 34
M  V30 39 1 1 35
M  V30 40 1 5 36
M  V30 41 1 6 37
M  V30 42 1 7 38
M  V30 43 1 11 39
M  V30 44 1 13 40
M  V30 45 1 16 41
M  V30 46 1 16 42
M  V30 47 1 17 43 CFG=1
M  V30 48 1 18 44
M  V30 49 1 18 45
M  V30 50 1 19 46
M  V30 51 1 19 47
M  V30 52 1 21 48
M  V30 53 1 22 49
M  V30 54 1 24 50
M  V30 55 1 25 51
M  V30 56 1 26 52
M  V30 57 1 27 53
M  V30 58 1 29 54
M  V30 59 1 30 55
M  V30 60 1 31 56
M  V30 61 1 32 57
M  V30 END BOND
M  V30 END CTAB
M  END
>  <Dataset>  (444) 
ChEMBL_Kinases

>  <Ligand_Instance>  (444) 
nan

>  <PDB_ID>  (444) 
nan

>  <Standardized_SMILES>  (444) 
NC(=O)c1cccc2c(-c3cncc(OC[C@@H](N)Cc4c[nH]c5ccccc45)c3)cccc12

>  <Name>  (444) 
nan

>  <Pocket>  (444) 
nan

>  <ATP_Site>  (444) 
nan

>  <Peripheral>  (444) 
nan

>  <Num_H_Atoms_ProtBoundConf>  (444) 
nan

>  <Num_Resolved_Atoms>  (444) 
nan

>  <Num_Not_Resolved_Atoms>  (444) 
nan

$$$$
CHEMBL205754
     RDKit          3D

  0  0  0  0  0  0  0  0  0  0999 V3000
M  V30 BEGIN CTAB
M  V30 COUNTS 42 44 0 0 0
M  V30 BEGIN ATOM
M  V30 1 C -2.938397 0.178493 -0.539896 0
M  V30 2 O -2.241971 -0.338055 0.573399 0
M  V30 3 C -1.145337 0.326550 1.051575 0
M  V30 4 C -0.543433 1.504267 0.612770 0
M  V30 5 C 0.571661 1.991155 1.262085 0
M  V30 6 N 1.073263 3.215036 0.687909 0
M  V30 7 C 2.033933 2.946494 -0.335002 0
M  V30 8 O 2.228724 1.727822 -0.508079 0
M  V30 9 C 2.662270 4.079446 -1.042511 0
M  V30 10 C 2.517178 5.446634 -0.930278 0
M  V30 11 C 3.384175 6.007709 -1.874871 0
M  V30 12 C 4.003461 4.927240 -2.503163 0
M  V30 13 O 3.541871 3.813389 -1.974681 0
M  V30 14 C 1.145352 1.364601 2.352762 0
M  V30 15 Cl 2.559719 2.106189 3.069910 0
M  V30 16 C 0.544084 0.195712 2.784484 0
M  V30 17 C -0.572044 -0.316346 2.155908 0
M  V30 18 N -1.082808 -1.543173 2.723408 0
M  V30 19 C -0.537350 -2.726259 2.167831 0
M  V30 20 O 0.311303 -2.557089 1.263306 0
M  V30 21 N -0.830530 -4.054822 2.505525 0
M  V30 22 C -0.333187 -5.271190 2.001650 0
M  V30 23 C 0.604576 -5.411120 1.009089 0
M  V30 24 N 1.041993 -6.616054 0.568026 0
M  V30 25 C 0.542654 -7.759394 1.119948 0
M  V30 26 C 1.003703 -9.034184 0.654121 0
M  V30 27 N 1.366525 -10.067955 0.262617 0
M  V30 28 C -0.396277 -7.596468 2.113352 0
M  V30 29 N -0.821515 -6.399022 2.541638 0
M  V30 30 H -2.928871 1.269218 -0.579773 0
M  V30 31 H -4.000392 -0.119441 -0.414316 0
M  V30 32 H -2.574658 -0.242855 -1.494876 0
M  V30 33 H -1.034673 1.930121 -0.226070 0
M  V30 34 H 0.801839 4.210154 0.950385 0
M  V30 35 H 1.830985 5.877401 -0.210179 0
M  V30 36 H 3.443982 7.073791 -1.972327 0
M  V30 37 H 4.726252 5.140899 -3.282701 0
M  V30 38 H 1.017946 -0.268215 3.639345 0
M  V30 39 H -1.802374 -1.687524 3.491560 0
M  V30 40 H -1.542489 -4.038106 3.261176 0
M  V30 41 H 1.034471 -4.569942 0.536723 0
M  V30 42 H -0.800722 -8.507654 2.559935 0
M  V30 END ATOM
M  V30 BEGIN BOND
M  V30 1 1 1 2
M  V30 2 1 2 3
M  V30 3 2 3 4
M  V30 4 1 4 5
M  V30 5 1 5 6
M  V30 6 1 6 7
M  V30 7 2 7 8
M  V30 8 1 7 9
M  V30 9 2 9 10
M  V30 10 1 10 11
M  V30 11 2 11 12
M  V30 12 1 12 13
M  V30 13 2 5 14
M  V30 14 1 14 15
M  V30 15 1 14 16
M  V30 16 2 16 17
M  V30 17 1 17 18
M  V30 18 1 18 19
M  V30 19 2 19 20
M  V30 20 1 19 21
M  V30 21 1 21 22
M  V30 22 2 22 23
M  V30 23 1 23 24
M  V30 24 2 24 25
M  V30 25 1 25 26
M  V30 26 3 26 27
M  V30 27 1 25 28
M  V30 28 2 28 29
M  V30 29 1 17 3
M  V30 30 1 29 22
M  V30 31 1 13 9
M  V30 32 1 1 30
M  V30 33 1 1 31
M  V30 34 1 1 32
M  V30 35 1 4 33
M  V30 36 1 6 34
M  V30 37 1 10 35
M  V30 38 1 11 36
M  V30 39 1 12 37
M  V30 40 1 16 38
M  V30 41 1 18 39
M  V30 42 1 21 40
M  V30 43 1 23 41
M  V30 44 1 28 42
M  V30 END BOND
M  V30 END CTAB
M  END
>  <Dataset>  (445) 
ChEMBL_Kinases

>  <Ligand_Instance>  (445) 
nan

>  <PDB_ID>  (445) 
nan

>  <Standardized_SMILES>  (445) 
COc1cc(NC(=O)c2ccco2)c(Cl)cc1NC(=O)Nc1cnc(C#N)cn1

>  <Name>  (445) 
nan

>  <Pocket>  (445) 
nan

>  <ATP_Site>  (445) 
nan

>  <Peripheral>  (445) 
nan

>  <Num_H_Atoms_ProtBoundConf>  (445) 
nan

>  <Num_Resolved_Atoms>  (445) 
nan

>  <Num_Not_Resolved_Atoms>  (445) 
nan

$$$$
CHEMBL205744
     RDKit          3D

  0  0  0  0  0  0  0  0  0  0999 V3000
M  V30 BEGIN CTAB
M  V30 COUNTS 52 55 0 0 0
M  V30 BEGIN ATOM
M  V30 1 N 5.984108 -7.001696 -1.709883 0
M  V30 2 C 5.275256 -6.098264 -1.894688 0
M  V30 3 C 4.395155 -4.989629 -2.100707 0
M  V30 4 C 4.957097 -3.740667 -2.279034 0
M  V30 5 N 4.187543 -2.665732 -2.475879 0
M  V30 6 C 2.826537 -2.745783 -2.510300 0
M  V30 7 N 2.017215 -1.591394 -2.721102 0
M  V30 8 C 1.530292 -0.766420 -1.639948 0
M  V30 9 O 1.837604 -1.087204 -0.471420 0
M  V30 10 N 0.713081 0.390630 -1.932244 0
M  V30 11 C 0.367084 1.024796 -0.720166 0
M  V30 12 C 1.214832 1.986548 -0.212177 0
M  V30 13 C 0.864379 2.606163 0.998216 0
M  V30 14 Cl 2.058039 3.813663 1.508611 0
M  V30 15 C -0.322448 2.246832 1.665428 0
M  V30 16 O -0.391748 3.001726 2.787410 0
M  V30 17 C -1.318232 3.078441 3.816540 0
M  V30 18 C -1.491487 1.821680 4.574398 0
M  V30 19 C -2.377242 0.773486 4.499198 0
M  V30 20 C -2.284658 -0.293755 5.344491 0
M  V30 21 C -1.330593 -0.411172 6.313139 0
M  V30 22 N -0.460075 0.606130 6.396883 0
M  V30 23 C -0.539460 1.663094 5.570829 0
M  V30 24 C -1.100026 1.279820 1.080030 0
M  V30 25 C -0.802443 0.643649 -0.101709 0
M  V30 26 N -1.747716 -0.318108 -0.549773 0
M  V30 27 C -2.943104 -0.814474 0.123690 0
M  V30 28 C -2.609916 -2.291081 0.236171 0
M  V30 29 C -1.894965 -2.517235 -1.107590 0
M  V30 30 C -1.913360 -1.117034 -1.743318 0
M  V30 31 C 2.294546 -4.009551 -2.328593 0
M  V30 32 N 3.055414 -5.105404 -2.128736 0
M  V30 33 H 6.016674 -3.523033 -2.276830 0
M  V30 34 H 1.770346 -1.339191 -3.710745 0
M  V30 35 H 0.462674 0.656681 -2.914998 0
M  V30 36 H 2.117633 2.218220 -0.777880 0
M  V30 37 H -2.345237 3.334790 3.437716 0
M  V30 38 H -1.060235 3.902719 4.529164 0
M  V30 39 H -3.117198 0.941520 3.707022 0
M  V30 40 H -3.025634 -1.065028 5.205885 0
M  V30 41 H -1.315742 -1.272560 6.939845 0
M  V30 42 H 0.255431 2.379095 5.798879 0
M  V30 43 H -1.956350 1.109455 1.673928 0
M  V30 44 H -3.809861 -0.722311 -0.566558 0
M  V30 45 H -3.169618 -0.350293 1.072708 0
M  V30 46 H -3.477398 -2.948530 0.250482 0
M  V30 47 H -1.870893 -2.497796 1.026512 0
M  V30 48 H -0.832107 -2.790032 -0.956991 0
M  V30 49 H -2.415133 -3.225213 -1.751477 0
M  V30 50 H -1.171911 -1.009951 -2.514428 0
M  V30 51 H -2.953834 -0.948731 -2.127497 0
M  V30 52 H 1.212024 -4.118406 -2.348818 0
M  V30 END ATOM
M  V30 BEGIN BOND
M  V30 1 3 1 2
M  V30 2 1 2 3
M  V30 3 2 3 4
M  V30 4 1 4 5
M  V30 5 2 5 6
M  V30 6 1 6 7
M  V30 7 1 7 8
M  V30 8 2 8 9
M  V30 9 1 8 10
M  V30 10 1 10 11
M  V30 11 2 11 12
M  V30 12 1 12 13
M  V30 13 1 13 14
M  V30 14 2 13 15
M  V30 15 1 15 16
M  V30 16 1 16 17
M  V30 17 1 17 18
M  V30 18 2 18 19
M  V30 19 1 19 20
M  V30 20 2 20 21
M  V30 21 1 21 22
M  V30 22 2 22 23
M  V30 23 1 15 24
M  V30 24 2 24 25
M  V30 25 1 25 26
M  V30 26 1 26 27
M  V30 27 1 27 28
M  V30 28 1 28 29
M  V30 29 1 29 30
M  V30 30 1 6 31
M  V30 31 2 31 32
M  V30 32 1 32 3
M  V30 33 1 25 11
M  V30 34 1 30 26
M  V30 35 1 23 18
M  V30 36 1 4 33
M  V30 37 1 7 34
M  V30 38 1 10 35
M  V30 39 1 12 36
M  V30 40 1 17 37
M  V30 41 1 17 38
M  V30 42 1 19 39
M  V30 43 1 20 40
M  V30 44 1 21 41
M  V30 45 1 23 42
M  V30 46 1 24 43
M  V30 47 1 27 44
M  V30 48 1 27 45
M  V30 49 1 28 46
M  V30 50 1 28 47
M  V30 51 1 29 48
M  V30 52 1 29 49
M  V30 53 1 30 50
M  V30 54 1 30 51
M  V30 55 1 31 52
M  V30 END BOND
M  V30 END CTAB
M  END
>  <Dataset>  (446) 
ChEMBL_Kinases

>  <Ligand_Instance>  (446) 
nan

>  <PDB_ID>  (446) 
nan

>  <Standardized_SMILES>  (446) 
N#Cc1cnc(NC(=O)Nc2cc(Cl)c(OCc3cccnc3)cc2N2CCCC2)cn1

>  <Name>  (446) 
nan

>  <Pocket>  (446) 
nan

>  <ATP_Site>  (446) 
nan

>  <Peripheral>  (446) 
nan

>  <Num_H_Atoms_ProtBoundConf>  (446) 
nan

>  <Num_Resolved_Atoms>  (446) 
nan

>  <Num_Not_Resolved_Atoms>  (446) 
nan

$$$$
CHEMBL205736
     RDKit          3D

  0  0  0  0  0  0  0  0  0  0999 V3000
M  V30 BEGIN CTAB
M  V30 COUNTS 37 40 0 0 0
M  V30 BEGIN ATOM
M  V30 1 C -0.158875 -5.735939 2.779640 0
M  V30 2 C -0.338044 -4.790923 3.753141 0
M  V30 3 C -0.032373 -3.469119 3.472088 0
M  V30 4 C 0.447363 -3.023089 2.265753 0
M  V30 5 C 0.743666 -1.625359 2.010220 0
M  V30 6 C 1.212089 -1.135626 0.818234 0
M  V30 7 C 1.482565 0.220504 0.586729 0
M  V30 8 C 1.978285 0.567010 -0.763879 0
M  V30 9 C 3.135289 0.471922 -1.529639 0
M  V30 10 N 2.848733 1.015204 -2.740227 0
M  V30 11 N 1.607275 1.429260 -2.758399 0
M  V30 12 C 1.007635 1.183485 -1.565767 0
M  V30 13 C -0.400985 1.564074 -1.319538 0
M  V30 14 C -0.611888 2.760024 -0.667336 0
M  V30 15 C -1.861409 3.245524 -0.354226 0
M  V30 16 C -2.938397 2.451625 -0.737214 0
M  V30 17 C -2.712491 1.253238 -1.391023 0
M  V30 18 N -1.472395 0.813739 -1.678871 0
M  V30 19 C 1.268956 1.120511 1.610390 0
M  V30 20 C 0.795477 0.609655 2.809747 0
M  V30 21 N 0.555795 -0.701257 2.967132 0
M  V30 22 C 0.634889 -3.968394 1.267622 0
M  V30 23 C 0.325676 -5.300518 1.553969 0
M  V30 24 H -0.372703 -6.767633 2.928906 0
M  V30 25 H -0.709704 -5.136889 4.690245 0
M  V30 26 H -0.182936 -2.737113 4.261602 0
M  V30 27 H 1.386391 -1.818285 0.004532 0
M  V30 28 H 3.951124 0.002662 -0.987428 0
M  V30 29 H 3.648760 1.001561 -3.408669 0
M  V30 30 H 0.217323 3.382737 -0.369074 0
M  V30 31 H -2.021929 4.169340 0.148185 0
M  V30 32 H -3.960031 2.743397 -0.539279 0
M  V30 33 H -3.473772 0.568861 -1.725662 0
M  V30 34 H 1.491230 2.167371 1.394948 0
M  V30 35 H 0.640738 1.344828 3.587525 0
M  V30 36 H 1.000671 -3.764181 0.286623 0
M  V30 37 H 0.465650 -6.068634 0.781970 0
M  V30 END ATOM
M  V30 BEGIN BOND
M  V30 1 2 1 2
M  V30 2 1 2 3
M  V30 3 2 3 4
M  V30 4 1 4 5
M  V30 5 2 5 6
M  V30 6 1 6 7
M  V30 7 1 7 8
M  V30 8 2 8 9
M  V30 9 1 9 10
M  V30 10 1 10 11
M  V30 11 2 11 12
M  V30 12 1 12 13
M  V30 13 2 13 14
M  V30 14 1 14 15
M  V30 15 2 15 16
M  V30 16 1 16 17
M  V30 17 2 17 18
M  V30 18 2 7 19
M  V30 19 1 19 20
M  V30 20 2 20 21
M  V30 21 1 4 22
M  V30 22 2 22 23
M  V30 23 1 23 1
M  V30 24 1 21 5
M  V30 25 1 12 8
M  V30 26 1 18 13
M  V30 27 1 1 24
M  V30 28 1 2 25
M  V30 29 1 3 26
M  V30 30 1 6 27
M  V30 31 1 9 28
M  V30 32 1 10 29
M  V30 33 1 14 30
M  V30 34 1 15 31
M  V30 35 1 16 32
M  V30 36 1 17 33
M  V30 37 1 19 34
M  V30 38 1 20 35
M  V30 39 1 22 36
M  V30 40 1 23 37
M  V30 END BOND
M  V30 END CTAB
M  END
>  <Dataset>  (447) 
ChEMBL_Kinases

>  <Ligand_Instance>  (447) 
nan

>  <PDB_ID>  (447) 
nan

>  <Standardized_SMILES>  (447) 
c1ccc(-c2cc(-c3c[nH]nc3-c3ccccn3)ccn2)cc1

>  <Name>  (447) 
nan

>  <Pocket>  (447) 
nan

>  <ATP_Site>  (447) 
nan

>  <Peripheral>  (447) 
nan

>  <Num_H_Atoms_ProtBoundConf>  (447) 
nan

>  <Num_Resolved_Atoms>  (447) 
nan

>  <Num_Not_Resolved_Atoms>  (447) 
nan

$$$$
CHEMBL2057337
     RDKit          3D

  0  0  0  0  0  0  0  0  0  0999 V3000
M  V30 BEGIN CTAB
M  V30 COUNTS 53 57 0 0 0
M  V30 BEGIN ATOM
M  V30 1 C -1.413823 -4.135240 -2.388621 0
M  V30 2 C -1.403036 -4.035189 -0.907115 0
M  V30 3 C -1.657694 -5.104093 -0.079803 0
M  V30 4 C -1.619850 -4.891668 1.284618 0
M  V30 5 C -1.334073 -3.638859 1.835833 0
M  V30 6 C -1.352211 -3.664243 3.296632 0
M  V30 7 N -2.388466 -4.316107 3.897746 0
M  V30 8 C -2.501866 -4.399956 5.243048 0
M  V30 9 N -1.593583 -3.841769 6.062946 0
M  V30 10 C -0.557949 -3.190777 5.511955 0
M  V30 11 N 0.498513 -2.537350 6.035768 0
M  V30 12 C 1.234032 -2.068808 5.008845 0
M  V30 13 N 0.681579 -2.401434 3.808090 0
M  V30 14 C -0.422905 -3.093190 4.142487 0
M  V30 15 C -1.081493 -2.579811 0.982636 0
M  V30 16 C -1.120035 -2.795127 -0.378663 0
M  V30 17 N -0.846499 -1.644723 -1.199355 0
M  V30 18 C 0.436744 -1.279625 -1.638566 0
M  V30 19 O 1.375911 -2.044815 -1.260215 0
M  V30 20 C 0.711362 -0.129883 -2.458930 0
M  V30 21 C 2.001140 0.157832 -2.846999 0
M  V30 22 C 2.259836 1.278614 -3.645092 0
M  V30 23 C 1.222084 2.119667 -4.059545 0
M  V30 24 O 1.744501 3.142592 -4.831359 0
M  V30 25 C 0.956938 4.158918 -5.395573 0
M  V30 26 C 0.241941 4.967277 -4.407006 0
M  V30 27 C 0.349558 4.981808 -3.021857 0
M  V30 28 C -0.402332 5.818847 -2.233341 0
M  V30 29 C -1.313043 6.694971 -2.815079 0
M  V30 30 C -1.384634 6.644798 -4.189315 0
M  V30 31 N -0.650793 5.827209 -4.965645 0
M  V30 32 C -0.061679 1.814229 -3.660574 0
M  V30 33 C -0.283357 0.705115 -2.875828 0
M  V30 34 H -0.368367 -4.097472 -2.759149 0
M  V30 35 H -1.814925 -5.137324 -2.632083 0
M  V30 36 H -2.037960 -3.334291 -2.830172 0
M  V30 37 H -1.879269 -6.075677 -0.512874 0
M  V30 38 H -1.834595 -5.797069 1.872295 0
M  V30 39 H -3.372377 -4.945894 5.579617 0
M  V30 40 H 2.162481 -1.490591 5.062579 0
M  V30 41 H 1.034836 -2.172076 2.871205 0
M  V30 42 H -0.872553 -1.659145 1.507980 0
M  V30 43 H -1.679829 -1.074197 -1.461566 0
M  V30 44 H 2.774425 -0.516795 -2.505736 0
M  V30 45 H 3.333791 1.374032 -3.870551 0
M  V30 46 H 1.634768 4.814320 -6.000580 0
M  V30 47 H 0.223694 3.752251 -6.127583 0
M  V30 48 H 1.077570 4.274757 -2.651204 0
M  V30 49 H -0.262326 5.772693 -1.156116 0
M  V30 50 H -1.912597 7.360276 -2.210398 0
M  V30 51 H -2.100453 7.335044 -4.629436 0
M  V30 52 H -0.768360 2.530975 -4.044043 0
M  V30 53 H -1.319998 0.562432 -2.623900 0
M  V30 END ATOM
M  V30 BEGIN BOND
M  V30 1 1 1 2
M  V30 2 2 2 3
M  V30 3 1 3 4
M  V30 4 2 4 5
M  V30 5 1 5 6
M  V30 6 2 6 7
M  V30 7 1 7 8
M  V30 8 2 8 9
M  V30 9 1 9 10
M  V30 10 1 10 11
M  V30 11 2 11 12
M  V30 12 1 12 13
M  V30 13 1 13 14
M  V30 14 1 5 15
M  V30 15 2 15 16
M  V30 16 1 16 17
M  V30 17 1 17 18
M  V30 18 2 18 19
M  V30 19 1 18 20
M  V30 20 2 20 21
M  V30 21 1 21 22
M  V30 22 2 22 23
M  V30 23 1 23 24
M  V30 24 1 24 25
M  V30 25 1 25 26
M  V30 26 2 26 27
M  V30 27 1 27 28
M  V30 28 2 28 29
M  V30 29 1 29 30
M  V30 30 2 30 31
M  V30 31 1 23 32
M  V30 32 2 32 33
M  V30 33 1 16 2
M  V30 34 1 33 20
M  V30 35 1 14 6
M  V30 36 1 31 26
M  V30 37 2 14 10
M  V30 38 1 1 34
M  V30 39 1 1 35
M  V30 40 1 1 36
M  V30 41 1 3 37
M  V30 42 1 4 38
M  V30 43 1 8 39
M  V30 44 1 12 40
M  V30 45 1 13 41
M  V30 46 1 15 42
M  V30 47 1 17 43
M  V30 48 1 21 44
M  V30 49 1 22 45
M  V30 50 1 25 46
M  V30 51 1 25 47
M  V30 52 1 27 48
M  V30 53 1 28 49
M  V30 54 1 29 50
M  V30 55 1 30 51
M  V30 56 1 32 52
M  V30 57 1 33 53
M  V30 END BOND
M  V30 END CTAB
M  END
>  <Dataset>  (448) 
ChEMBL_Kinases

>  <Ligand_Instance>  (448) 
nan

>  <PDB_ID>  (448) 
nan

>  <Standardized_SMILES>  (448) 
Cc1ccc(-c2ncnc3nc[nH]c23)cc1NC(=O)c1ccc(OCc2ccccn2)cc1

>  <Name>  (448) 
nan

>  <Pocket>  (448) 
nan

>  <ATP_Site>  (448) 
nan

>  <Peripheral>  (448) 
nan

>  <Num_H_Atoms_ProtBoundConf>  (448) 
nan

>  <Num_Resolved_Atoms>  (448) 
nan

>  <Num_Not_Resolved_Atoms>  (448) 
nan

$$$$
CHEMBL205699
     RDKit          3D

  0  0  0  0  0  0  0  0  0  0999 V3000
M  V30 BEGIN CTAB
M  V30 COUNTS 57 60 0 0 0
M  V30 BEGIN ATOM
M  V30 1 C 5.353673 -2.288983 2.991243 0
M  V30 2 N 4.492485 -1.305378 2.413079 0
M  V30 3 C 4.493466 -0.035359 3.073426 0
M  V30 4 C 3.381601 0.817935 2.556907 0
M  V30 5 N 2.627296 0.103739 1.551265 0
M  V30 6 C 1.242382 -0.215824 1.482940 0
M  V30 7 C 0.607767 0.308557 0.381606 0
M  V30 8 C -0.722161 0.159268 0.065173 0
M  V30 9 O -1.623526 0.504957 -0.863293 0
M  V30 10 C -1.396552 1.277507 -1.986715 0
M  V30 11 C -0.940906 2.661584 -1.725692 0
M  V30 12 C -2.060050 3.458585 -1.457188 0
M  V30 13 C -1.936464 4.826054 -1.189093 0
M  V30 14 C -0.685988 5.416791 -1.186102 0
M  V30 15 N 0.355344 4.622884 -1.446990 0
M  V30 16 C 0.267687 3.319049 -1.705750 0
M  V30 17 C -1.449247 -0.615125 0.996447 0
M  V30 18 N -2.849316 -0.995389 1.018373 0
M  V30 19 C -3.145043 -2.225227 0.354333 0
M  V30 20 O -2.142010 -2.816217 -0.163659 0
M  V30 21 N -4.451966 -2.821906 0.234238 0
M  V30 22 C -4.566668 -4.059891 -0.465997 0
M  V30 23 C -4.437822 -5.230377 0.256917 0
M  V30 24 N -4.524958 -6.468684 -0.282310 0
M  V30 25 C -4.751742 -6.583336 -1.608651 0
M  V30 26 C -4.851165 -7.877187 -2.221027 0
M  V30 27 N -4.929075 -8.929496 -2.702435 0
M  V30 28 C -4.885005 -5.410732 -2.357291 0
M  V30 29 N -4.795610 -4.183962 -1.805170 0
M  V30 30 C -0.853274 -1.176521 2.140367 0
M  V30 31 C 0.497652 -0.965884 2.368393 0
M  V30 32 Cl 1.375718 -1.595491 3.739212 0
M  V30 33 C 3.475199 -0.335067 0.455167 0
M  V30 34 C 4.529745 -1.259718 0.984124 0
M  V30 35 H 6.367153 -1.851915 3.156187 0
M  V30 36 H 5.397504 -3.153161 2.298256 0
M  V30 37 H 4.916864 -2.651924 3.963257 0
M  V30 38 H 4.412421 -0.254891 4.162898 0
M  V30 39 H 5.500922 0.451840 2.971117 0
M  V30 40 H 2.770228 1.312933 3.324942 0
M  V30 41 H 3.870161 1.672783 2.002512 0
M  V30 42 H 1.069896 0.899484 -0.383122 0
M  V30 43 H -2.252006 1.264184 -2.708125 0
M  V30 44 H -0.533076 0.767109 -2.531334 0
M  V30 45 H -3.103470 3.172242 -1.417422 0
M  V30 46 H -2.758423 5.494626 -0.974850 0
M  V30 47 H -0.519801 6.468820 -0.986301 0
M  V30 48 H 1.064119 2.627472 -1.935469 0
M  V30 49 H -3.708018 -0.530885 1.437682 0
M  V30 50 H -5.203529 -2.240218 0.703150 0
M  V30 51 H -4.252273 -5.181613 1.340975 0
M  V30 52 H -5.066133 -5.511688 -3.416802 0
M  V30 53 H -1.285376 -1.773518 2.911919 0
M  V30 54 H 3.963031 0.588337 0.041516 0
M  V30 55 H 2.894012 -0.810820 -0.350189 0
M  V30 56 H 4.284043 -2.298985 0.630742 0
M  V30 57 H 5.532300 -1.055122 0.553706 0
M  V30 END ATOM
M  V30 BEGIN BOND
M  V30 1 1 1 2
M  V30 2 1 2 3
M  V30 3 1 3 4
M  V30 4 1 4 5
M  V30 5 1 5 6
M  V30 6 2 6 7
M  V30 7 1 7 8
M  V30 8 1 8 9
M  V30 9 1 9 10
M  V30 10 1 10 11
M  V30 11 2 11 12
M  V30 12 1 12 13
M  V30 13 2 13 14
M  V30 14 1 14 15
M  V30 15 2 15 16
M  V30 16 2 8 17
M  V30 17 1 17 18
M  V30 18 1 18 19
M  V30 19 2 19 20
M  V30 20 1 19 21
M  V30 21 1 21 22
M  V30 22 2 22 23
M  V30 23 1 23 24
M  V30 24 2 24 25
M  V30 25 1 25 26
M  V30 26 3 26 27
M  V30 27 1 25 28
M  V30 28 2 28 29
M  V30 29 1 17 30
M  V30 30 2 30 31
M  V30 31 1 31 32
M  V30 32 1 5 33
M  V30 33 1 33 34
M  V30 34 1 34 2
M  V30 35 1 31 6
M  V30 36 1 16 11
M  V30 37 1 29 22
M  V30 38 1 1 35
M  V30 39 1 1 36
M  V30 40 1 1 37
M  V30 41 1 3 38
M  V30 42 1 3 39
M  V30 43 1 4 40
M  V30 44 1 4 41
M  V30 45 1 7 42
M  V30 46 1 10 43
M  V30 47 1 10 44
M  V30 48 1 12 45
M  V30 49 1 13 46
M  V30 50 1 14 47
M  V30 51 1 16 48
M  V30 52 1 18 49
M  V30 53 1 21 50
M  V30 54 1 23 51
M  V30 55 1 28 52
M  V30 56 1 30 53
M  V30 57 1 33 54
M  V30 58 1 33 55
M  V30 59 1 34 56
M  V30 60 1 34 57
M  V30 END BOND
M  V30 END CTAB
M  END
>  <Dataset>  (449) 
ChEMBL_Kinases

>  <Ligand_Instance>  (449) 
nan

>  <PDB_ID>  (449) 
nan

>  <Standardized_SMILES>  (449) 
CN1CCN(c2cc(OCc3cccnc3)c(NC(=O)Nc3cnc(C#N)cn3)cc2Cl)CC1

>  <Name>  (449) 
nan

>  <Pocket>  (449) 
nan

>  <ATP_Site>  (449) 
nan

>  <Peripheral>  (449) 
nan

>  <Num_H_Atoms_ProtBoundConf>  (449) 
nan

>  <Num_Resolved_Atoms>  (449) 
nan

>  <Num_Not_Resolved_Atoms>  (449) 
nan

$$$$
CHEMBL205672
     RDKit          3D

  0  0  0  0  0  0  0  0  0  0999 V3000
M  V30 BEGIN CTAB
M  V30 COUNTS 44 47 0 0 0
M  V30 BEGIN ATOM
M  V30 1 F -2.437148 -6.676713 -1.262892 0
M  V30 2 C -2.458407 -5.620415 -2.092061 0
M  V30 3 C -3.497208 -4.733679 -1.839354 0
M  V30 4 C -3.590219 -3.601578 -2.653413 0
M  V30 5 C -2.703207 -3.361386 -3.661692 0
M  V30 6 N -2.578559 -2.241268 -4.557946 0
M  V30 7 C -2.583054 -1.191083 -3.564581 0
M  V30 8 C -1.347503 -1.061561 -2.901357 0
M  V30 9 C -1.085959 -0.121572 -1.882743 0
M  V30 10 C 0.276685 -0.163397 -1.317649 0
M  V30 11 C 1.321222 -0.512639 -2.166061 0
M  V30 12 C 2.627756 -0.619348 -1.745271 0
M  V30 13 N 2.907897 -0.370353 -0.429529 0
M  V30 14 C 1.923624 -0.030032 0.419604 0
M  V30 15 N 2.012271 0.239291 1.811629 0
M  V30 16 C 1.410119 1.393742 2.441522 0
M  V30 17 C 0.242106 1.422189 3.165215 0
M  V30 18 C -0.094239 2.678787 3.681766 0
M  V30 19 C 0.682339 3.784330 3.477846 0
M  V30 20 F 0.279803 4.951312 4.011447 0
M  V30 21 C 1.851263 3.741576 2.749240 0
M  V30 22 C 2.212048 2.493442 2.219891 0
M  V30 23 C 0.614222 0.079902 0.003966 0
M  V30 24 C -2.113540 0.715084 -1.528588 0
M  V30 25 C -3.307662 0.568929 -2.193085 0
M  V30 26 N -3.560235 -0.318836 -3.155712 0
M  V30 27 C -1.660379 -4.270372 -3.901482 0
M  V30 28 C -1.549795 -5.388299 -3.115323 0
M  V30 29 H -4.279068 -4.778696 -1.083352 0
M  V30 30 H -4.336196 -2.786625 -2.609905 0
M  V30 31 H -2.507285 -2.226276 -5.595199 0
M  V30 32 H -0.529063 -1.728518 -3.194565 0
M  V30 33 H 1.217358 -0.728964 -3.230002 0
M  V30 34 H 3.482509 -0.886668 -2.364419 0
M  V30 35 H 2.582942 -0.547171 2.231156 0
M  V30 36 H -0.293096 0.494425 3.269998 0
M  V30 37 H -1.029214 2.691880 4.260627 0
M  V30 38 H 2.449637 4.624056 2.591622 0
M  V30 39 H 3.136672 2.536752 1.659855 0
M  V30 40 H -0.261139 0.347039 0.593503 0
M  V30 41 H -1.886195 1.422529 -0.752522 0
M  V30 42 H -4.122912 1.217451 -1.922587 0
M  V30 43 H -0.904089 -4.159245 -4.691669 0
M  V30 44 H -0.788455 -6.149063 -3.208867 0
M  V30 END ATOM
M  V30 BEGIN BOND
M  V30 1 1 1 2
M  V30 2 2 2 3
M  V30 3 1 3 4
M  V30 4 2 4 5
M  V30 5 1 5 6
M  V30 6 1 6 7
M  V30 7 2 7 8
M  V30 8 1 8 9
M  V30 9 1 9 10
M  V30 10 2 10 11
M  V30 11 1 11 12
M  V30 12 2 12 13
M  V30 13 1 13 14
M  V30 14 1 14 15
M  V30 15 1 15 16
M  V30 16 2 16 17
M  V30 17 1 17 18
M  V30 18 2 18 19
M  V30 19 1 19 20
M  V30 20 1 19 21
M  V30 21 2 21 22
M  V30 22 2 14 23
M  V30 23 2 9 24
M  V30 24 1 24 25
M  V30 25 2 25 26
M  V30 26 1 5 27
M  V30 27 2 27 28
M  V30 28 1 28 2
M  V30 29 1 26 7
M  V30 30 1 23 10
M  V30 31 1 22 16
M  V30 32 1 3 29
M  V30 33 1 4 30
M  V30 34 1 6 31
M  V30 35 1 8 32
M  V30 36 1 11 33
M  V30 37 1 12 34
M  V30 38 1 15 35
M  V30 39 1 17 36
M  V30 40 1 18 37
M  V30 41 1 21 38
M  V30 42 1 22 39
M  V30 43 1 23 40
M  V30 44 1 24 41
M  V30 45 1 25 42
M  V30 46 1 27 43
M  V30 47 1 28 44
M  V30 END BOND
M  V30 END CTAB
M  END
>  <Dataset>  (450) 
ChEMBL_Kinases

>  <Ligand_Instance>  (450) 
nan

>  <PDB_ID>  (450) 
nan

>  <Standardized_SMILES>  (450) 
Fc1ccc(Nc2cc(-c3ccnc(Nc4ccc(F)cc4)c3)ccn2)cc1

>  <Name>  (450) 
nan

>  <Pocket>  (450) 
nan

>  <ATP_Site>  (450) 
nan

>  <Peripheral>  (450) 
nan

>  <Num_H_Atoms_ProtBoundConf>  (450) 
nan

>  <Num_Resolved_Atoms>  (450) 
nan

>  <Num_Not_Resolved_Atoms>  (450) 
nan

$$$$
CHEMBL205670
     RDKit          3D

  0  0  0  0  0  0  0  0  0  0999 V3000
M  V30 BEGIN CTAB
M  V30 COUNTS 71 71 0 0 0
M  V30 BEGIN ATOM
M  V30 1 C 1.866888 -1.061102 6.851038 0
M  V30 2 C 2.453127 0.249106 6.394781 0
M  V30 3 C 3.266477 0.070630 5.107409 0
M  V30 4 C 3.849953 1.378709 4.655737 0
M  V30 5 C 4.666383 1.324652 3.414901 0
M  V30 6 C 3.989036 0.858603 2.202966 0
M  V30 7 O 3.857176 -0.378661 2.315602 0
M  V30 8 O 3.638790 1.747021 1.231983 0
M  V30 9 C 2.986157 1.429512 0.042301 0
M  V30 10 C 1.601469 0.948204 0.362259 0
M  V30 11 C 1.072346 2.038530 1.320806 0
M  V30 12 O -0.159296 1.679343 1.851161 0
M  V30 13 C 0.666761 0.925094 -0.775784 0
M  V30 14 C -0.551973 0.021592 -0.612736 0
M  V30 15 C -0.095752 -1.297671 -0.213629 0
M  V30 16 C -0.695252 -2.389034 -0.677053 0
M  V30 17 C -1.772224 -2.684689 -1.543876 0
M  V30 18 C -2.716340 -1.985594 -2.313332 0
M  V30 19 C -3.723570 -1.032551 -1.739976 0
M  V30 20 C -4.711094 -1.543779 -0.742015 0
M  V30 21 C -4.152998 -2.088334 0.540061 0
M  V30 22 C -5.686318 -0.414364 -0.345720 0
M  V30 23 C -2.383348 -1.587692 -3.760541 0
M  V30 24 C -2.084147 -2.623148 -4.750076 0
M  V30 25 C -0.909178 -3.512255 -4.566635 0
M  V30 26 C -2.092199 -1.968827 -6.132931 0
M  V30 27 C 1.039104 -1.327877 0.716775 0
M  V30 28 O 1.389657 -2.460095 1.140674 0
M  V30 29 O 1.710454 -0.187611 1.126444 0
M  V30 30 H 1.569212 -1.708366 6.001179 0
M  V30 31 H 2.581581 -1.659017 7.451624 0
M  V30 32 H 0.929145 -0.845466 7.421392 0
M  V30 33 H 1.604254 0.949000 6.240257 0
M  V30 34 H 3.084020 0.700107 7.187842 0
M  V30 35 H 4.087637 -0.635213 5.391913 0
M  V30 36 H 2.682091 -0.424471 4.331009 0
M  V30 37 H 4.481666 1.782171 5.471407 0
M  V30 38 H 2.987023 2.085218 4.591617 0
M  V30 39 H 5.046917 2.370653 3.240344 0
M  V30 40 H 5.592855 0.750749 3.663584 0
M  V30 41 H 2.973723 2.358077 -0.571776 0
M  V30 42 H 3.565891 0.634189 -0.512482 0
M  V30 43 H 0.890288 2.923339 0.670878 0
M  V30 44 H 1.827625 2.334666 2.063964 0
M  V30 45 H -0.059899 1.019351 2.561663 0
M  V30 46 H 1.208460 0.618896 -1.695452 0
M  V30 47 H 0.300346 1.948596 -0.989213 0
M  V30 48 H -1.228356 0.562959 0.020815 0
M  V30 49 H -1.021836 0.034711 -1.620458 0
M  V30 50 H -0.195333 -3.294053 -0.256999 0
M  V30 51 H -1.412571 -3.539597 -2.201683 0
M  V30 52 H -2.426073 -3.351268 -0.841304 0
M  V30 53 H -3.488001 -2.803131 -2.616133 0
M  V30 54 H -4.328270 -0.692388 -2.645096 0
M  V30 55 H -3.339318 -0.093953 -1.322770 0
M  V30 56 H -5.343963 -2.360078 -1.181277 0
M  V30 57 H -3.119798 -1.725793 0.691473 0
M  V30 58 H -4.713112 -1.650163 1.437423 0
M  V30 59 H -4.197219 -3.192308 0.632942 0
M  V30 60 H -6.185219 -0.727511 0.593755 0
M  V30 61 H -6.370213 -0.208870 -1.169839 0
M  V30 62 H -5.035019 0.474911 -0.142421 0
M  V30 63 H -3.199284 -0.892638 -4.080421 0
M  V30 64 H -1.429098 -0.972974 -3.682877 0
M  V30 65 H -2.987464 -3.330295 -4.773379 0
M  V30 66 H -1.129369 -4.552072 -4.252154 0
M  V30 67 H -0.476871 -3.666596 -5.616126 0
M  V30 68 H -0.061217 -3.067018 -4.002821 0
M  V30 69 H -2.812356 -1.123654 -6.122757 0
M  V30 70 H -1.080122 -1.592701 -6.328563 0
M  V30 71 H -2.455572 -2.695142 -6.870072 0
M  V30 END ATOM
M  V30 BEGIN BOND
M  V30 1 1 1 2
M  V30 2 1 2 3
M  V30 3 1 3 4
M  V30 4 1 4 5
M  V30 5 1 5 6
M  V30 6 2 6 7
M  V30 7 1 6 8
M  V30 8 1 8 9
M  V30 9 1 9 10
M  V30 10 1 10 11
M  V30 11 1 11 12
M  V30 12 1 10 13
M  V30 13 1 13 14
M  V30 14 1 14 15
M  V30 15 2 15 16
M  V30 16 1 16 17
M  V30 17 1 17 18
M  V30 18 1 18 19
M  V30 19 1 19 20
M  V30 20 1 20 21
M  V30 21 1 20 22
M  V30 22 1 18 23
M  V30 23 1 23 24
M  V30 24 1 24 25
M  V30 25 1 24 26
M  V30 26 1 15 27
M  V30 27 2 27 28
M  V30 28 1 27 29
M  V30 29 1 29 10
M  V30 30 1 1 30
M  V30 31 1 1 31
M  V30 32 1 1 32
M  V30 33 1 2 33
M  V30 34 1 2 34
M  V30 35 1 3 35
M  V30 36 1 3 36
M  V30 37 1 4 37
M  V30 38 1 4 38
M  V30 39 1 5 39
M  V30 40 1 5 40
M  V30 41 1 9 41
M  V30 42 1 9 42
M  V30 43 1 11 43
M  V30 44 1 11 44
M  V30 45 1 12 45
M  V30 46 1 13 46
M  V30 47 1 13 47
M  V30 48 1 14 48
M  V30 49 1 14 49
M  V30 50 1 16 50
M  V30 51 1 17 51
M  V30 52 1 17 52
M  V30 53 1 18 53
M  V30 54 1 19 54
M  V30 55 1 19 55
M  V30 56 1 20 56
M  V30 57 1 21 57
M  V30 58 1 21 58
M  V30 59 1 21 59
M  V30 60 1 22 60
M  V30 61 1 22 61
M  V30 62 1 22 62
M  V30 63 1 23 63
M  V30 64 1 23 64
M  V30 65 1 24 65
M  V30 66 1 25 66
M  V30 67 1 25 67
M  V30 68 1 25 68
M  V30 69 1 26 69
M  V30 70 1 26 70
M  V30 71 1 26 71
M  V30 END BOND
M  V30 END CTAB
M  END
>  <Dataset>  (451) 
ChEMBL_Kinases

>  <Ligand_Instance>  (451) 
nan

>  <PDB_ID>  (451) 
nan

>  <Standardized_SMILES>  (451) 
CCCCCC(=O)OCC1(CO)CC/C(=C\CC(CC(C)C)CC(C)C)C(=O)O1

>  <Name>  (451) 
nan

>  <Pocket>  (451) 
nan

>  <ATP_Site>  (451) 
nan

>  <Peripheral>  (451) 
nan

>  <Num_H_Atoms_ProtBoundConf>  (451) 
nan

>  <Num_Resolved_Atoms>  (451) 
nan

>  <Num_Not_Resolved_Atoms>  (451) 
nan

$$$$
CHEMBL205645
     RDKit          3D

  0  0  0  0  0  0  0  0  0  0999 V3000
M  V30 BEGIN CTAB
M  V30 COUNTS 40 42 0 0 0
M  V30 BEGIN ATOM
M  V30 1 C -0.509083 -1.540554 3.953628 0
M  V30 2 C -0.245539 -1.393730 2.676314 0
M  V30 3 C 1.074412 -1.487921 2.064853 0
M  V30 4 C 2.219214 -1.748454 2.783826 0
M  V30 5 N 3.436439 -1.828189 2.168844 0
M  V30 6 C 3.491658 -1.642164 0.815659 0
M  V30 7 C 2.346906 -1.374936 0.050574 0
M  V30 8 O 2.692619 -1.236660 -1.251587 0
M  V30 9 C 1.953627 -0.968239 -2.381468 0
M  V30 10 C 1.214020 0.330634 -2.410094 0 CFG=2
M  V30 11 C 0.660220 0.620402 -3.809938 0
M  V30 12 C 0.347469 2.097572 -3.698612 0
M  V30 13 C 1.483315 2.607196 -2.859254 0
M  V30 14 N 2.134136 1.470245 -2.283447 0
M  V30 15 C 1.158576 -1.304520 0.701496 0
M  V30 16 C -1.812376 -1.454430 4.605280 0
M  V30 17 C -1.982730 -1.625749 5.963475 0
M  V30 18 C -3.217124 -1.540171 6.551991 0
M  V30 19 N -4.325471 -1.286105 5.844619 0
M  V30 20 C -4.236825 -1.107122 4.511526 0
M  V30 21 C -2.988531 -1.196235 3.934281 0
M  V30 22 H 0.330356 -1.752008 4.621653 0
M  V30 23 H -1.122814 -1.187613 2.081658 0
M  V30 24 H 2.189007 -1.896823 3.850404 0
M  V30 25 H 4.532031 -1.735443 0.465735 0
M  V30 26 H 2.687398 -0.918396 -3.240980 0
M  V30 27 H 1.257654 -1.787040 -2.673836 0
M  V30 28 H 0.356729 0.406932 -1.734741 0
M  V30 29 H -0.259539 0.070294 -4.025177 0
M  V30 30 H 1.442662 0.516070 -4.587665 0
M  V30 31 H 0.302629 2.575377 -4.711008 0
M  V30 32 H -0.621776 2.293193 -3.196825 0
M  V30 33 H 2.173425 3.242126 -3.484208 0
M  V30 34 H 1.131077 3.259424 -2.033356 0
M  V30 35 H 3.065294 1.248058 -2.649231 0
M  V30 36 H 0.324838 -1.104768 0.080530 0
M  V30 37 H -1.102053 -1.836214 6.585487 0
M  V30 38 H -3.265950 -1.686869 7.621895 0
M  V30 39 H -5.130340 -0.901745 3.937569 0
M  V30 40 H -2.982082 -1.043869 2.865958 0
M  V30 END ATOM
M  V30 BEGIN BOND
M  V30 1 2 1 2
M  V30 2 1 2 3
M  V30 3 2 3 4
M  V30 4 1 4 5
M  V30 5 2 5 6
M  V30 6 1 6 7
M  V30 7 1 7 8
M  V30 8 1 8 9
M  V30 9 1 9 10
M  V30 10 1 10 11
M  V30 11 1 11 12
M  V30 12 1 12 13
M  V30 13 1 13 14
M  V30 14 2 7 15
M  V30 15 1 1 16
M  V30 16 2 16 17
M  V30 17 1 17 18
M  V30 18 2 18 19
M  V30 19 1 19 20
M  V30 20 2 20 21
M  V30 21 1 15 3
M  V30 22 1 21 16
M  V30 23 1 14 10
M  V30 24 1 1 22
M  V30 25 1 2 23
M  V30 26 1 4 24
M  V30 27 1 6 25
M  V30 28 1 9 26
M  V30 29 1 9 27
M  V30 30 1 10 28 CFG=1
M  V30 31 1 11 29
M  V30 32 1 11 30
M  V30 33 1 12 31
M  V30 34 1 12 32
M  V30 35 1 13 33
M  V30 36 1 13 34
M  V30 37 1 14 35
M  V30 38 1 15 36
M  V30 39 1 17 37
M  V30 40 1 18 38
M  V30 41 1 20 39
M  V30 42 1 21 40
M  V30 END BOND
M  V30 END CTAB
M  END
>  <Dataset>  (452) 
ChEMBL_Kinases

>  <Ligand_Instance>  (452) 
nan

>  <PDB_ID>  (452) 
nan

>  <Standardized_SMILES>  (452) 
C(=C/c1cncc(OC[C@@H]2CCCN2)c1)\c1ccncc1

>  <Name>  (452) 
nan

>  <Pocket>  (452) 
nan

>  <ATP_Site>  (452) 
nan

>  <Peripheral>  (452) 
nan

>  <Num_H_Atoms_ProtBoundConf>  (452) 
nan

>  <Num_Resolved_Atoms>  (452) 
nan

>  <Num_Not_Resolved_Atoms>  (452) 
nan

$$$$
CHEMBL205158
     RDKit          3D

  0  0  0  0  0  0  0  0  0  0999 V3000
M  V30 BEGIN CTAB
M  V30 COUNTS 57 61 0 0 0
M  V30 BEGIN ATOM
M  V30 1 C 3.506017 -3.374970 0.188578 0
M  V30 2 C 4.233771 -2.587470 1.069654 0
M  V30 3 C 4.741390 -1.380490 0.661386 0
M  V30 4 C 4.518001 -0.954133 -0.647696 0
M  V30 5 C 5.103823 0.346517 -0.975887 0
M  V30 6 N 6.052815 0.536410 -1.912012 0
M  V30 7 N 6.361851 1.836194 -1.955729 0
M  V30 8 C 5.613925 2.481611 -1.050202 0
M  V30 9 C 4.807327 1.579656 -0.410951 0
M  V30 10 C 3.806973 1.738511 0.649091 0
M  V30 11 C 4.131980 2.200104 1.900821 0
M  V30 12 C 3.078215 2.293708 2.781131 0
M  V30 13 N 1.839509 1.959537 2.437010 0
M  V30 14 C 1.497073 1.509871 1.232411 0
M  V30 15 C 0.099142 1.181313 0.989453 0
M  V30 16 C -0.821725 1.339551 1.991577 0
M  V30 17 C -2.157674 1.012246 1.717767 0
M  V30 18 C -2.577904 0.533742 0.466216 0
M  V30 19 O -3.903835 0.307385 0.497794 0
M  V30 20 C -4.806536 -0.160803 -0.425768 0
M  V30 21 C -4.601688 -1.541747 -0.949495 0
M  V30 22 N -4.645050 -2.507762 0.121973 0
M  V30 23 C -5.926863 -2.673481 0.733099 0
M  V30 24 C -5.918864 -3.985479 1.517696 0
M  V30 25 O -4.648145 -4.119903 2.059236 0
M  V30 26 C -3.686320 -4.439840 1.101246 0
M  V30 27 C -4.009635 -3.738855 -0.225122 0
M  V30 28 C -1.585038 0.407240 -0.478716 0
M  V30 29 C -0.270643 0.721362 -0.232898 0
M  V30 30 C 2.502679 1.391479 0.301935 0
M  V30 31 N 3.802821 -1.736601 -1.500359 0
M  V30 32 C 3.307150 -2.921159 -1.092684 0
M  V30 33 H 3.087161 -4.333988 0.469459 0
M  V30 34 H 4.389366 -2.943784 2.072599 0
M  V30 35 H 5.301351 -0.810421 1.395557 0
M  V30 36 H 7.065839 2.305175 -2.582030 0
M  V30 37 H 5.566477 3.545808 -0.777353 0
M  V30 38 H 5.153138 2.462214 2.143239 0
M  V30 39 H 3.261629 2.649056 3.780835 0
M  V30 40 H -0.475557 1.707453 2.936600 0
M  V30 41 H -2.781773 1.187648 2.610823 0
M  V30 42 H -4.810215 0.570803 -1.287348 0
M  V30 43 H -5.862108 -0.109370 -0.033855 0
M  V30 44 H -3.613453 -1.613866 -1.430604 0
M  V30 45 H -5.336595 -1.771494 -1.751917 0
M  V30 46 H -6.780224 -2.618599 0.033195 0
M  V30 47 H -6.035352 -1.869154 1.513837 0
M  V30 48 H -6.631184 -3.871466 2.351935 0
M  V30 49 H -6.213543 -4.838587 0.887246 0
M  V30 50 H -3.672435 -5.532991 0.986521 0
M  V30 51 H -2.674011 -4.036938 1.392308 0
M  V30 52 H -3.081577 -3.532495 -0.766494 0
M  V30 53 H -4.647953 -4.435408 -0.817827 0
M  V30 54 H -1.961011 0.043884 -1.419282 0
M  V30 55 H 0.357831 0.559218 -1.084205 0
M  V30 56 H 2.276358 1.036724 -0.674607 0
M  V30 57 H 2.735313 -3.516919 -1.818094 0
M  V30 END ATOM
M  V30 BEGIN BOND
M  V30 1 2 1 2
M  V30 2 1 2 3
M  V30 3 2 3 4
M  V30 4 1 4 5
M  V30 5 2 5 6
M  V30 6 1 6 7
M  V30 7 1 7 8
M  V30 8 2 8 9
M  V30 9 1 9 10
M  V30 10 2 10 11
M  V30 11 1 11 12
M  V30 12 2 12 13
M  V30 13 1 13 14
M  V30 14 1 14 15
M  V30 15 2 15 16
M  V30 16 1 16 17
M  V30 17 2 17 18
M  V30 18 1 18 19
M  V30 19 1 19 20
M  V30 20 1 20 21
M  V30 21 1 21 22
M  V30 22 1 22 23
M  V30 23 1 23 24
M  V30 24 1 24 25
M  V30 25 1 25 26
M  V30 26 1 26 27
M  V30 27 1 18 28
M  V30 28 2 28 29
M  V30 29 2 14 30
M  V30 30 1 4 31
M  V30 31 2 31 32
M  V30 32 1 32 1
M  V30 33 1 9 5
M  V30 34 1 30 10
M  V30 35 1 29 15
M  V30 36 1 27 22
M  V30 37 1 1 33
M  V30 38 1 2 34
M  V30 39 1 3 35
M  V30 40 1 7 36
M  V30 41 1 8 37
M  V30 42 1 11 38
M  V30 43 1 12 39
M  V30 44 1 16 40
M  V30 45 1 17 41
M  V30 46 1 20 42
M  V30 47 1 20 43
M  V30 48 1 21 44
M  V30 49 1 21 45
M  V30 50 1 23 46
M  V30 51 1 23 47
M  V30 52 1 24 48
M  V30 53 1 24 49
M  V30 54 1 26 50
M  V30 55 1 26 51
M  V30 56 1 27 52
M  V30 57 1 27 53
M  V30 58 1 28 54
M  V30 59 1 29 55
M  V30 60 1 30 56
M  V30 61 1 32 57
M  V30 END BOND
M  V30 END CTAB
M  END
>  <Dataset>  (453) 
ChEMBL_Kinases

>  <Ligand_Instance>  (453) 
nan

>  <PDB_ID>  (453) 
nan

>  <Standardized_SMILES>  (453) 
c1ccc(-c2n[nH]cc2-c2ccnc(-c3ccc(OCCN4CCOCC4)cc3)c2)nc1

>  <Name>  (453) 
GW695874X

>  <Pocket>  (453) 
nan

>  <ATP_Site>  (453) 
nan

>  <Peripheral>  (453) 
nan

>  <Num_H_Atoms_ProtBoundConf>  (453) 
nan

>  <Num_Resolved_Atoms>  (453) 
nan

>  <Num_Not_Resolved_Atoms>  (453) 
nan

$$$$
CHEMBL205248
     RDKit          3D

  0  0  0  0  0  0  0  0  0  0999 V3000
M  V30 BEGIN CTAB
M  V30 COUNTS 77 77 0 0 0
M  V30 BEGIN ATOM
M  V30 1 C 2.930415 0.819508 6.621246 0
M  V30 2 C 4.206180 0.335916 5.962012 0
M  V30 3 C 4.850634 1.391496 5.095865 0
M  V30 4 C 3.893965 1.810151 3.991086 0
M  V30 5 C 4.496519 2.857955 3.106290 0
M  V30 6 C 3.583294 3.295825 1.990915 0
M  V30 7 C 3.213946 2.143203 1.078801 0
M  V30 8 C 2.307230 2.648531 -0.012489 0
M  V30 9 O 1.966473 3.847029 -0.044165 0
M  V30 10 O 1.931903 1.717725 -0.894852 0
M  V30 11 C 1.139855 1.683138 -2.007474 0
M  V30 12 C -0.339511 1.837676 -1.903409 0
M  V30 13 C -0.793254 3.156942 -1.338909 0
M  V30 14 O -2.223016 3.098847 -1.422880 0
M  V30 15 C -0.932584 0.729101 -1.105701 0
M  V30 16 C -0.882565 -0.591863 -1.890509 0
M  V30 17 C -1.931496 -0.442669 -2.905225 0
M  V30 18 C -2.810234 -1.358292 -3.005358 0
M  V30 19 C -3.486957 -2.581733 -2.706683 0
M  V30 20 C -3.113447 -3.409357 -1.513240 0
M  V30 21 C -3.368050 -2.622703 -0.279947 0
M  V30 22 C -3.068575 -3.182887 1.054736 0
M  V30 23 C -3.511271 -2.119126 2.120264 0
M  V30 24 C -1.606312 -3.385149 1.385178 0
M  V30 25 C -1.876253 -4.167919 -1.655629 0
M  V30 26 C -1.702502 -5.178073 -2.726705 0
M  V30 27 C -1.763752 -4.646091 -4.113654 0
M  V30 28 C -0.292831 -5.769921 -2.532453 0
M  V30 29 C -1.781609 0.793082 -3.645939 0
M  V30 30 O -2.492957 0.892204 -4.686181 0
M  V30 31 O -0.917952 1.779002 -3.229754 0
M  V30 32 H 2.156794 0.903691 5.833965 0
M  V30 33 H 2.651763 0.026704 7.357861 0
M  V30 34 H 3.062159 1.749073 7.209387 0
M  V30 35 H 4.923635 -0.099405 6.688789 0
M  V30 36 H 3.884910 -0.502862 5.286682 0
M  V30 37 H 5.757137 0.933464 4.668599 0
M  V30 38 H 5.145828 2.219586 5.750558 0
M  V30 39 H 3.618476 0.880641 3.458682 0
M  V30 40 H 2.947902 2.183081 4.452992 0
M  V30 41 H 5.461121 2.489910 2.695384 0
M  V30 42 H 4.743244 3.729446 3.752457 0
M  V30 43 H 4.067207 4.061297 1.359465 0
M  V30 44 H 2.680079 3.760008 2.430161 0
M  V30 45 H 2.596274 1.441167 1.687858 0
M  V30 46 H 4.083720 1.605473 0.700838 0
M  V30 47 H 1.530593 2.546091 -2.676998 0
M  V30 48 H 1.381045 0.802631 -2.655246 0
M  V30 49 H -0.420895 3.971352 -1.970029 0
M  V30 50 H -0.534328 3.305355 -0.265955 0
M  V30 51 H -2.632612 3.811835 -0.881685 0
M  V30 52 H -2.021396 0.929914 -0.946148 0
M  V30 53 H -0.510088 0.610353 -0.102101 0
M  V30 54 H 0.074023 -0.699913 -2.457277 0
M  V30 55 H -0.971196 -1.360216 -1.149861 0
M  V30 56 H -3.461057 -1.004485 -3.851777 0
M  V30 57 H -3.705042 -3.224610 -3.595608 0
M  V30 58 H -4.598119 -2.283706 -2.428077 0
M  V30 59 H -3.932144 -4.258617 -1.442489 0
M  V30 60 H -4.527173 -2.500760 -0.270335 0
M  V30 61 H -3.069448 -1.548032 -0.311347 0
M  V30 62 H -3.613618 -4.092172 1.344192 0
M  V30 63 H -3.028404 -1.153720 1.911993 0
M  V30 64 H -3.216180 -2.571778 3.086145 0
M  V30 65 H -4.626213 -2.086213 2.109856 0
M  V30 66 H -1.356540 -4.449295 1.636195 0
M  V30 67 H -1.306436 -2.849749 2.348053 0
M  V30 68 H -0.962270 -2.922659 0.631811 0
M  V30 69 H -0.925659 -3.553582 -1.674598 0
M  V30 70 H -1.738905 -4.707798 -0.635772 0
M  V30 71 H -2.456719 -6.006338 -2.674453 0
M  V30 72 H -2.689756 -4.932651 -4.681189 0
M  V30 73 H -0.963507 -5.186665 -4.757529 0
M  V30 74 H -1.531667 -3.585103 -4.242780 0
M  V30 75 H 0.374179 -5.030616 -2.001896 0
M  V30 76 H 0.204148 -5.975156 -3.503486 0
M  V30 77 H -0.308412 -6.669509 -1.904850 0
M  V30 END ATOM
M  V30 BEGIN BOND
M  V30 1 1 1 2
M  V30 2 1 2 3
M  V30 3 1 3 4
M  V30 4 1 4 5
M  V30 5 1 5 6
M  V30 6 1 6 7
M  V30 7 1 7 8
M  V30 8 2 8 9
M  V30 9 1 8 10
M  V30 10 1 10 11
M  V30 11 1 11 12
M  V30 12 1 12 13
M  V30 13 1 13 14
M  V30 14 1 12 15
M  V30 15 1 15 16
M  V30 16 1 16 17
M  V30 17 2 17 18
M  V30 18 1 18 19
M  V30 19 1 19 20
M  V30 20 1 20 21
M  V30 21 1 21 22
M  V30 22 1 22 23
M  V30 23 1 22 24
M  V30 24 1 20 25
M  V30 25 1 25 26
M  V30 26 1 26 27
M  V30 27 1 26 28
M  V30 28 1 17 29
M  V30 29 2 29 30
M  V30 30 1 29 31
M  V30 31 1 31 12
M  V30 32 1 1 32
M  V30 33 1 1 33
M  V30 34 1 1 34
M  V30 35 1 2 35
M  V30 36 1 2 36
M  V30 37 1 3 37
M  V30 38 1 3 38
M  V30 39 1 4 39
M  V30 40 1 4 40
M  V30 41 1 5 41
M  V30 42 1 5 42
M  V30 43 1 6 43
M  V30 44 1 6 44
M  V30 45 1 7 45
M  V30 46 1 7 46
M  V30 47 1 11 47
M  V30 48 1 11 48
M  V30 49 1 13 49
M  V30 50 1 13 50
M  V30 51 1 14 51
M  V30 52 1 15 52
M  V30 53 1 15 53
M  V30 54 1 16 54
M  V30 55 1 16 55
M  V30 56 1 18 56
M  V30 57 1 19 57
M  V30 58 1 19 58
M  V30 59 1 20 59
M  V30 60 1 21 60
M  V30 61 1 21 61
M  V30 62 1 22 62
M  V30 63 1 23 63
M  V30 64 1 23 64
M  V30 65 1 23 65
M  V30 66 1 24 66
M  V30 67 1 24 67
M  V30 68 1 24 68
M  V30 69 1 25 69
M  V30 70 1 25 70
M  V30 71 1 26 71
M  V30 72 1 27 72
M  V30 73 1 27 73
M  V30 74 1 27 74
M  V30 75 1 28 75
M  V30 76 1 28 76
M  V30 77 1 28 77
M  V30 END BOND
M  V30 END CTAB
M  END
>  <Dataset>  (454) 
ChEMBL_Kinases

>  <Ligand_Instance>  (454) 
nan

>  <PDB_ID>  (454) 
nan

>  <Standardized_SMILES>  (454) 
CCCCCCCC(=O)OCC1(CO)CC/C(=C\CC(CC(C)C)CC(C)C)C(=O)O1

>  <Name>  (454) 
nan

>  <Pocket>  (454) 
nan

>  <ATP_Site>  (454) 
nan

>  <Peripheral>  (454) 
nan

>  <Num_H_Atoms_ProtBoundConf>  (454) 
nan

>  <Num_Resolved_Atoms>  (454) 
nan

>  <Num_Not_Resolved_Atoms>  (454) 
nan

$$$$
CHEMBL205260
     RDKit          3D

  0  0  0  0  0  0  0  0  0  0999 V3000
M  V30 BEGIN CTAB
M  V30 COUNTS 40 43 0 0 0
M  V30 BEGIN ATOM
M  V30 1 C -0.596135 -4.911753 1.632992 0
M  V30 2 C -0.109931 -3.794572 2.483419 0
M  V30 3 C 0.450663 -4.069093 3.729971 0
M  V30 4 C 0.901273 -3.002813 4.512829 0
M  V30 5 C 0.818303 -1.685674 4.111009 0
M  V30 6 C 0.263373 -1.415131 2.877122 0
M  V30 7 C 0.178675 -0.020928 2.456493 0
M  V30 8 C -0.346494 0.396691 1.262017 0
M  V30 9 C -0.422360 1.711678 0.874654 0
M  V30 10 C -1.001230 2.064266 -0.420416 0
M  V30 11 C -2.131022 2.836168 -0.680606 0
M  V30 12 N -2.282077 2.891926 -2.013065 0
M  V30 13 N -1.310352 2.199571 -2.566702 0
M  V30 14 C -0.490733 1.666287 -1.646935 0
M  V30 15 C 0.691183 0.840191 -1.881684 0
M  V30 16 C 2.011108 1.097146 -1.568949 0
M  V30 17 C 2.966116 0.147556 -1.895758 0
M  V30 18 C 2.597786 -1.028385 -2.520875 0
M  V30 19 C 1.260439 -1.259022 -2.823278 0
M  V30 20 N 0.322630 -0.321558 -2.499893 0
M  V30 21 C 0.056753 2.691337 1.731368 0
M  V30 22 C 0.578313 2.225716 2.926240 0
M  V30 23 N 0.638092 0.921597 3.277373 0
M  V30 24 C -0.177247 -2.476851 2.114964 0
M  V30 25 H -0.781412 -5.810051 2.266529 0
M  V30 26 H -1.508335 -4.665393 1.089780 0
M  V30 27 H 0.217760 -5.170254 0.913244 0
M  V30 28 H 0.552129 -5.078201 4.119099 0
M  V30 29 H 1.340560 -3.195460 5.486008 0
M  V30 30 H 1.175866 -0.895250 4.741512 0
M  V30 31 H -0.726095 -0.330087 0.574399 0
M  V30 32 H -2.758973 3.298930 0.093610 0
M  V30 33 H -3.053512 3.406878 -2.530796 0
M  V30 34 H 2.152902 2.051805 -1.084192 0
M  V30 35 H 3.985426 0.407118 -1.624592 0
M  V30 36 H 3.377963 -1.758267 -2.765486 0
M  V30 37 H 0.982080 -2.194939 -3.318362 0
M  V30 38 H 0.017757 3.721750 1.471126 0
M  V30 39 H 0.977039 2.941545 3.655901 0
M  V30 40 H -0.614802 -2.282918 1.145757 0
M  V30 END ATOM
M  V30 BEGIN BOND
M  V30 1 1 1 2
M  V30 2 2 2 3
M  V30 3 1 3 4
M  V30 4 2 4 5
M  V30 5 1 5 6
M  V30 6 1 6 7
M  V30 7 2 7 8
M  V30 8 1 8 9
M  V30 9 1 9 10
M  V30 10 2 10 11
M  V30 11 1 11 12
M  V30 12 1 12 13
M  V30 13 2 13 14
M  V30 14 1 14 15
M  V30 15 2 15 16
M  V30 16 1 16 17
M  V30 17 2 17 18
M  V30 18 1 18 19
M  V30 19 2 19 20
M  V30 20 2 9 21
M  V30 21 1 21 22
M  V30 22 2 22 23
M  V30 23 2 6 24
M  V30 24 1 24 2
M  V30 25 1 23 7
M  V30 26 1 14 10
M  V30 27 1 20 15
M  V30 28 1 1 25
M  V30 29 1 1 26
M  V30 30 1 1 27
M  V30 31 1 3 28
M  V30 32 1 4 29
M  V30 33 1 5 30
M  V30 34 1 8 31
M  V30 35 1 11 32
M  V30 36 1 12 33
M  V30 37 1 16 34
M  V30 38 1 17 35
M  V30 39 1 18 36
M  V30 40 1 19 37
M  V30 41 1 21 38
M  V30 42 1 22 39
M  V30 43 1 24 40
M  V30 END BOND
M  V30 END CTAB
M  END
>  <Dataset>  (455) 
ChEMBL_Kinases

>  <Ligand_Instance>  (455) 
nan

>  <PDB_ID>  (455) 
nan

>  <Standardized_SMILES>  (455) 
Cc1cccc(-c2cc(-c3c[nH]nc3-c3ccccn3)ccn2)c1

>  <Name>  (455) 
nan

>  <Pocket>  (455) 
nan

>  <ATP_Site>  (455) 
nan

>  <Peripheral>  (455) 
nan

>  <Num_H_Atoms_ProtBoundConf>  (455) 
nan

>  <Num_Resolved_Atoms>  (455) 
nan

>  <Num_Not_Resolved_Atoms>  (455) 
nan

$$$$
CHEMBL205271
     RDKit          3D

  0  0  0  0  0  0  0  0  0  0999 V3000
M  V30 BEGIN CTAB
M  V30 COUNTS 58 62 0 0 0
M  V30 BEGIN ATOM
M  V30 1 C 2.287363 -2.446629 -2.723007 0
M  V30 2 N 1.243992 -3.470036 -2.514484 0
M  V30 3 C 0.257656 -3.498455 -1.494371 0
M  V30 4 O -0.529656 -4.503133 -1.522618 0
M  V30 5 C -0.038701 -2.599461 -0.408470 0
M  V30 6 C 0.705214 -1.535613 0.033099 0
M  V30 7 C 0.449741 -0.661738 1.062148 0
M  V30 8 C -0.730351 -0.896878 1.747411 0
M  V30 9 C -1.167504 -0.070848 2.872082 0
M  V30 10 C -0.420597 1.010887 3.330032 0
M  V30 11 C -0.837928 1.778352 4.392282 0
M  V30 12 C -0.078181 2.917145 4.890385 0
M  V30 13 C 0.580482 3.114010 6.106626 0
M  V30 14 N 1.164554 4.348537 6.120095 0
M  V30 15 N 0.898037 4.928190 4.964404 0
M  V30 16 C 0.158492 4.094332 4.213512 0
M  V30 17 C -0.297987 4.445536 2.875972 0
M  V30 18 C 0.632398 4.737577 1.903577 0
M  V30 19 C 0.319931 5.080665 0.610468 0
M  V30 20 C -1.040251 5.121912 0.315656 0
M  V30 21 C -2.004476 4.835108 1.266825 0
M  V30 22 N -1.590683 4.507962 2.511300 0
M  V30 23 C -2.022713 1.479552 5.027889 0
M  V30 24 C -2.732884 0.401716 4.544415 0
M  V30 25 N -2.298599 -0.326851 3.506390 0
M  V30 26 C -1.553365 -1.939387 1.386436 0
M  V30 27 C -1.206612 -2.758444 0.339152 0
M  V30 28 C 1.232763 -4.572092 -3.493558 0
M  V30 29 C 1.490646 -5.888894 -2.855534 0
M  V30 30 C 0.730080 -7.031871 -3.499958 0
M  V30 31 O -0.615040 -6.790050 -3.534283 0
M  V30 32 C -0.977431 -5.653861 -4.195248 0
M  V30 33 C 0.024699 -4.575810 -4.344097 0
M  V30 34 H 1.861089 -1.431857 -2.778618 0
M  V30 35 H 2.775302 -2.606510 -3.712116 0
M  V30 36 H 3.004442 -2.511700 -1.891935 0
M  V30 37 H 1.634667 -1.311297 -0.460441 0
M  V30 38 H 1.105120 0.151228 1.330030 0
M  V30 39 H 0.515291 1.296284 2.877666 0
M  V30 40 H 0.605159 2.377488 6.900751 0
M  V30 41 H 1.723755 4.782674 6.885737 0
M  V30 42 H 1.698975 4.710688 2.129191 0
M  V30 43 H 1.101740 5.299758 -0.113170 0
M  V30 44 H -1.306745 5.390949 -0.695394 0
M  V30 45 H -3.060206 4.872564 1.021987 0
M  V30 46 H -2.445037 2.011591 5.867494 0
M  V30 47 H -3.685557 0.044664 4.939516 0
M  V30 48 H -2.473525 -2.113449 1.927096 0
M  V30 49 H -1.919995 -3.555823 0.125857 0
M  V30 50 H 2.104433 -4.342433 -4.190472 0
M  V30 51 H 1.315350 -5.843012 -1.763799 0
M  V30 52 H 2.575440 -6.140156 -2.966352 0
M  V30 53 H 0.881643 -7.917751 -2.828045 0
M  V30 54 H 1.157087 -7.328711 -4.472169 0
M  V30 55 H -1.920858 -5.257966 -3.712427 0
M  V30 56 H -1.380483 -5.981386 -5.216274 0
M  V30 57 H 0.368884 -4.622108 -5.429187 0
M  V30 58 H -0.524450 -3.593014 -4.322184 0
M  V30 END ATOM
M  V30 BEGIN BOND
M  V30 1 1 1 2
M  V30 2 1 2 3
M  V30 3 2 3 4
M  V30 4 1 3 5
M  V30 5 2 5 6
M  V30 6 1 6 7
M  V30 7 2 7 8
M  V30 8 1 8 9
M  V30 9 2 9 10
M  V30 10 1 10 11
M  V30 11 1 11 12
M  V30 12 2 12 13
M  V30 13 1 13 14
M  V30 14 1 14 15
M  V30 15 2 15 16
M  V30 16 1 16 17
M  V30 17 2 17 18
M  V30 18 1 18 19
M  V30 19 2 19 20
M  V30 20 1 20 21
M  V30 21 2 21 22
M  V30 22 2 11 23
M  V30 23 1 23 24
M  V30 24 2 24 25
M  V30 25 1 8 26
M  V30 26 2 26 27
M  V30 27 1 2 28
M  V30 28 1 28 29
M  V30 29 1 29 30
M  V30 30 1 30 31
M  V30 31 1 31 32
M  V30 32 1 32 33
M  V30 33 1 27 5
M  V30 34 1 33 28
M  V30 35 1 25 9
M  V30 36 1 16 12
M  V30 37 1 22 17
M  V30 38 1 1 34
M  V30 39 1 1 35
M  V30 40 1 1 36
M  V30 41 1 6 37
M  V30 42 1 7 38
M  V30 43 1 10 39
M  V30 44 1 13 40
M  V30 45 1 14 41
M  V30 46 1 18 42
M  V30 47 1 19 43
M  V30 48 1 20 44
M  V30 49 1 21 45
M  V30 50 1 23 46
M  V30 51 1 24 47
M  V30 52 1 26 48
M  V30 53 1 27 49
M  V30 54 1 28 50
M  V30 55 1 29 51
M  V30 56 1 29 52
M  V30 57 1 30 53
M  V30 58 1 30 54
M  V30 59 1 32 55
M  V30 60 1 32 56
M  V30 61 1 33 57
M  V30 62 1 33 58
M  V30 END BOND
M  V30 END CTAB
M  END
>  <Dataset>  (456) 
ChEMBL_Kinases

>  <Ligand_Instance>  (456) 
nan

>  <PDB_ID>  (456) 
nan

>  <Standardized_SMILES>  (456) 
CN(C(=O)c1ccc(-c2cc(-c3c[nH]nc3-c3ccccn3)ccn2)cc1)C1CCOCC1

>  <Name>  (456) 
nan

>  <Pocket>  (456) 
nan

>  <ATP_Site>  (456) 
nan

>  <Peripheral>  (456) 
nan

>  <Num_H_Atoms_ProtBoundConf>  (456) 
nan

>  <Num_Resolved_Atoms>  (456) 
nan

>  <Num_Not_Resolved_Atoms>  (456) 
nan

$$$$
CHEMBL205324
     RDKit          3D

  0  0  0  0  0  0  0  0  0  0999 V3000
M  V30 BEGIN CTAB
M  V30 COUNTS 52 56 0 0 0
M  V30 BEGIN ATOM
M  V30 1 N -1.984174 -2.548602 3.928636 0
M  V30 2 C -1.571320 -2.989923 2.602412 0 CFG=2
M  V30 3 C -0.765931 -1.846584 2.028563 0
M  V30 4 O -0.270954 -2.099075 0.730450 0
M  V30 5 C 0.478222 -1.067378 0.149219 0
M  V30 6 C 1.008079 -1.224119 -1.123434 0
M  V30 7 N 1.744180 -0.253946 -1.738206 0
M  V30 8 C 1.994193 0.921051 -1.125948 0
M  V30 9 C 2.728364 1.947580 -1.681706 0
M  V30 10 C 2.919550 3.109663 -0.957619 0
M  V30 11 C 2.417266 3.322970 0.311565 0
M  V30 12 C 2.669060 4.581373 1.006155 0
M  V30 13 C 1.654533 4.951117 1.860105 0
M  V30 14 C 1.742924 6.114894 2.591266 0
M  V30 15 C 2.908676 6.853326 2.393301 0
M  V30 16 N 3.883938 6.470222 1.553693 0
M  V30 17 C 3.810138 5.335905 0.833829 0
M  V30 18 C 1.682539 2.298751 0.870678 0
M  V30 19 C 1.484177 1.127514 0.153113 0
M  V30 20 C 0.739218 0.142197 0.771738 0
M  V30 21 C -2.886322 -3.155546 1.826726 0
M  V30 22 C -2.658130 -3.607319 0.442185 0
M  V30 23 C -2.732787 -2.760044 -0.643164 0
M  V30 24 N -2.479239 -3.420358 -1.803243 0
M  V30 25 C -2.240743 -4.710219 -1.432643 0
M  V30 26 C -1.930483 -5.809707 -2.236321 0
M  V30 27 C -1.744264 -7.008934 -1.550046 0
M  V30 28 C -1.844232 -7.165044 -0.183322 0
M  V30 29 C -2.151605 -6.058201 0.576989 0
M  V30 30 C -2.345695 -4.845266 -0.059441 0
M  V30 31 H -2.033890 -3.377445 4.591607 0
M  V30 32 H -1.209407 -1.955833 4.333287 0
M  V30 33 H -1.025152 -3.926248 2.717147 0
M  V30 34 H -1.497106 -0.990398 1.936341 0
M  V30 35 H 0.003017 -1.484515 2.736141 0
M  V30 36 H 0.844635 -2.149767 -1.675118 0
M  V30 37 H 3.117695 1.780365 -2.667600 0
M  V30 38 H 3.490121 3.908698 -1.387486 0
M  V30 39 H 0.737162 4.385151 2.025229 0
M  V30 40 H 1.043974 6.542850 3.296490 0
M  V30 41 H 3.098901 7.790195 2.910825 0
M  V30 42 H 4.534430 4.941472 0.136211 0
M  V30 43 H 1.260511 2.401146 1.860743 0
M  V30 44 H 0.334992 0.274611 1.755343 0
M  V30 45 H -3.437819 -3.941801 2.422135 0
M  V30 46 H -3.439972 -2.209228 1.883017 0
M  V30 47 H -2.960567 -1.683436 -0.651559 0
M  V30 48 H -2.473903 -3.007070 -2.761651 0
M  V30 49 H -1.847069 -5.718655 -3.290702 0
M  V30 50 H -1.505301 -7.842445 -2.200111 0
M  V30 51 H -1.684233 -8.133374 0.270913 0
M  V30 52 H -2.245859 -6.107116 1.646960 0
M  V30 END ATOM
M  V30 BEGIN BOND
M  V30 1 1 1 2
M  V30 2 1 2 3
M  V30 3 1 3 4
M  V30 4 1 4 5
M  V30 5 2 5 6
M  V30 6 1 6 7
M  V30 7 2 7 8
M  V30 8 1 8 9
M  V30 9 2 9 10
M  V30 10 1 10 11
M  V30 11 1 11 12
M  V30 12 2 12 13
M  V30 13 1 13 14
M  V30 14 2 14 15
M  V30 15 1 15 16
M  V30 16 2 16 17
M  V30 17 2 11 18
M  V30 18 1 18 19
M  V30 19 2 19 20
M  V30 20 1 2 21
M  V30 21 1 21 22
M  V30 22 2 22 23
M  V30 23 1 23 24
M  V30 24 1 24 25
M  V30 25 2 25 26
M  V30 26 1 26 27
M  V30 27 2 27 28
M  V30 28 1 28 29
M  V30 29 2 29 30
M  V30 30 1 20 5
M  V30 31 1 30 22
M  V30 32 1 19 8
M  V30 33 1 30 25
M  V30 34 1 17 12
M  V30 35 1 1 31
M  V30 36 1 1 32
M  V30 37 1 2 33 CFG=1
M  V30 38 1 3 34
M  V30 39 1 3 35
M  V30 40 1 6 36
M  V30 41 1 9 37
M  V30 42 1 10 38
M  V30 43 1 13 39
M  V30 44 1 14 40
M  V30 45 1 15 41
M  V30 46 1 17 42
M  V30 47 1 18 43
M  V30 48 1 20 44
M  V30 49 1 21 45
M  V30 50 1 21 46
M  V30 51 1 23 47
M  V30 52 1 24 48
M  V30 53 1 26 49
M  V30 54 1 27 50
M  V30 55 1 28 51
M  V30 56 1 29 52
M  V30 END BOND
M  V30 END CTAB
M  END
>  <Dataset>  (457) 
ChEMBL_Kinases

>  <Ligand_Instance>  (457) 
nan

>  <PDB_ID>  (457) 
nan

>  <Standardized_SMILES>  (457) 
N[C@H](COc1cnc2ccc(-c3cccnc3)cc2c1)Cc1c[nH]c2ccccc12

>  <Name>  (457) 
nan

>  <Pocket>  (457) 
nan

>  <ATP_Site>  (457) 
nan

>  <Peripheral>  (457) 
nan

>  <Num_H_Atoms_ProtBoundConf>  (457) 
nan

>  <Num_Resolved_Atoms>  (457) 
nan

>  <Num_Not_Resolved_Atoms>  (457) 
nan

$$$$
CHEMBL205377
     RDKit          3D

  0  0  0  0  0  0  0  0  0  0999 V3000
M  V30 BEGIN CTAB
M  V30 COUNTS 55 58 0 0 0
M  V30 BEGIN ATOM
M  V30 1 C 1.518817 0.003276 5.761883 0
M  V30 2 C 0.638022 -0.933100 4.986475 0
M  V30 3 C 1.191818 -2.327765 4.883360 0
M  V30 4 N 2.476316 -2.403073 4.232614 0
M  V30 5 C 2.597317 -1.945354 2.890815 0
M  V30 6 N 3.801883 -2.008804 2.252672 0
M  V30 7 C 3.933958 -1.580089 0.983464 0
M  V30 8 C 2.858708 -1.059425 0.275717 0
M  V30 9 C 1.642746 -1.004473 0.945024 0
M  V30 10 C 0.528777 -0.452673 0.176341 0
M  V30 11 C 0.628712 0.856687 -0.250109 0
M  V30 12 C 1.604777 1.951970 -0.152905 0
M  V30 13 C 2.109460 2.416532 -1.361459 0
M  V30 14 C 3.022558 3.443609 -1.243950 0
M  V30 15 C 3.480299 4.046677 -0.096084 0
M  V30 16 F 4.386373 5.052033 -0.152247 0
M  V30 17 C 2.933493 3.532952 1.085053 0
M  V30 18 C 2.011320 2.502557 1.052081 0
M  V30 19 N -0.521393 1.124604 -0.933180 0
M  V30 20 C -1.303724 0.028654 -0.931872 0
M  V30 21 C -2.545991 -0.265245 -1.456769 0
M  V30 22 C -3.083620 -1.507377 -1.277302 0
M  V30 23 C -4.407845 -1.729425 -1.870010 0
M  V30 24 N -4.351636 -2.229559 -3.228844 0
M  V30 25 C -3.670091 -3.482767 -3.336447 0
M  V30 26 C -5.736979 -2.408778 -3.671200 0
M  V30 27 C -2.391218 -2.474214 -0.572468 0
M  V30 28 C -1.133023 -2.168777 -0.043725 0
M  V30 29 N -0.656194 -0.927284 -0.253818 0
M  V30 30 N 1.548524 -1.444514 2.219904 0
M  V30 31 H 1.110222 1.032950 5.589299 0
M  V30 32 H 2.560133 0.025025 5.404392 0
M  V30 33 H 1.490587 -0.202005 6.854062 0
M  V30 34 H -0.309449 -1.040698 5.589880 0
M  V30 35 H 0.308525 -0.514990 4.031016 0
M  V30 36 H 0.432736 -2.906218 4.282235 0
M  V30 37 H 1.199602 -2.768622 5.889146 0
M  V30 38 H 3.297388 -2.777868 4.715678 0
M  V30 39 H 4.896521 -1.637298 0.491336 0
M  V30 40 H 2.981908 -0.720270 -0.741055 0
M  V30 41 H 1.839281 2.036553 -2.337841 0
M  V30 42 H 3.440825 3.833495 -2.181240 0
M  V30 43 H 3.264423 3.977462 2.017228 0
M  V30 44 H 1.595243 2.112924 1.970001 0
M  V30 45 H -3.019099 0.554376 -1.996511 0
M  V30 46 H -4.979996 -2.476008 -1.250903 0
M  V30 47 H -5.010296 -0.803936 -1.855023 0
M  V30 48 H -3.994442 -4.132367 -2.476262 0
M  V30 49 H -4.011708 -4.023867 -4.249992 0
M  V30 50 H -2.578208 -3.405968 -3.276144 0
M  V30 51 H -6.193154 -3.148493 -3.002569 0
M  V30 52 H -5.733821 -2.730411 -4.736606 0
M  V30 53 H -6.312040 -1.463676 -3.590473 0
M  V30 54 H -2.855909 -3.447628 -0.453793 0
M  V30 55 H -0.586354 -2.920254 0.508371 0
M  V30 END ATOM
M  V30 BEGIN BOND
M  V30 1 1 1 2
M  V30 2 1 2 3
M  V30 3 1 3 4
M  V30 4 1 4 5
M  V30 5 2 5 6
M  V30 6 1 6 7
M  V30 7 2 7 8
M  V30 8 1 8 9
M  V30 9 1 9 10
M  V30 10 2 10 11
M  V30 11 1 11 12
M  V30 12 2 12 13
M  V30 13 1 13 14
M  V30 14 2 14 15
M  V30 15 1 15 16
M  V30 16 1 15 17
M  V30 17 2 17 18
M  V30 18 1 11 19
M  V30 19 2 19 20
M  V30 20 1 20 21
M  V30 21 2 21 22
M  V30 22 1 22 23
M  V30 23 1 23 24
M  V30 24 1 24 25
M  V30 25 1 24 26
M  V30 26 1 22 27
M  V30 27 2 27 28
M  V30 28 1 28 29
M  V30 29 2 9 30
M  V30 30 1 30 5
M  V30 31 1 29 10
M  V30 32 1 18 12
M  V30 33 1 29 20
M  V30 34 1 1 31
M  V30 35 1 1 32
M  V30 36 1 1 33
M  V30 37 1 2 34
M  V30 38 1 2 35
M  V30 39 1 3 36
M  V30 40 1 3 37
M  V30 41 1 4 38
M  V30 42 1 7 39
M  V30 43 1 8 40
M  V30 44 1 13 41
M  V30 45 1 14 42
M  V30 46 1 17 43
M  V30 47 1 18 44
M  V30 48 1 21 45
M  V30 49 1 23 46
M  V30 50 1 23 47
M  V30 51 1 25 48
M  V30 52 1 25 49
M  V30 53 1 25 50
M  V30 54 1 26 51
M  V30 55 1 26 52
M  V30 56 1 26 53
M  V30 57 1 27 54
M  V30 58 1 28 55
M  V30 END BOND
M  V30 END CTAB
M  END
>  <Dataset>  (458) 
ChEMBL_Kinases

>  <Ligand_Instance>  (458) 
nan

>  <PDB_ID>  (458) 
nan

>  <Standardized_SMILES>  (458) 
CCCNc1nccc(-c2c(-c3ccc(F)cc3)nc3cc(CN(C)C)ccn23)n1

>  <Name>  (458) 
nan

>  <Pocket>  (458) 
nan

>  <ATP_Site>  (458) 
nan

>  <Peripheral>  (458) 
nan

>  <Num_H_Atoms_ProtBoundConf>  (458) 
nan

>  <Num_Resolved_Atoms>  (458) 
nan

>  <Num_Not_Resolved_Atoms>  (458) 
nan

$$$$
CHEMBL205410
     RDKit          3D

  0  0  0  0  0  0  0  0  0  0999 V3000
M  V30 BEGIN CTAB
M  V30 COUNTS 47 49 0 0 0
M  V30 BEGIN ATOM
M  V30 1 N 0.431666 -2.768824 -2.560341 0
M  V30 2 C 1.318845 -2.110267 -2.264441 0
M  V30 3 C 2.446250 -1.302849 -1.893643 0
M  V30 4 C 3.716286 -1.840472 -1.975272 0
M  V30 5 C 4.797890 -1.050385 -1.614227 0
M  V30 6 C 4.687112 0.263479 -1.169981 0
M  V30 7 C 3.397281 0.783793 -1.095963 0
M  V30 8 C 3.232204 2.168538 -0.632569 0
M  V30 9 C 3.060480 2.273264 0.866712 0 CFG=2
M  V30 10 N 4.216722 1.730258 1.515170 0
M  V30 11 C 1.810609 1.521562 1.257385 0
M  V30 12 O 1.578773 1.581148 2.653338 0
M  V30 13 C 0.470921 0.946964 3.217325 0
M  V30 14 C 0.248756 1.008423 4.577870 0
M  V30 15 N -0.846976 0.366619 5.039491 0
M  V30 16 C -1.683438 -0.301058 4.216620 0
M  V30 17 C -1.515204 -0.395541 2.869533 0
M  V30 18 C -2.402114 -1.104311 1.989062 0
M  V30 19 C -3.479031 -1.747903 2.334182 0
M  V30 20 C -4.402579 -2.477671 1.471323 0
M  V30 21 C -5.523079 -3.129438 1.941949 0
M  V30 22 C -6.372630 -3.808855 1.094856 0
M  V30 23 N -6.148582 -3.869231 -0.238426 0
M  V30 24 C -5.071483 -3.252632 -0.755264 0
M  V30 25 C -4.236437 -2.580480 0.105531 0
M  V30 26 C -0.399391 0.256491 2.389190 0
M  V30 27 C 2.321013 0.000839 -1.454099 0
M  V30 28 H 3.829823 -2.853613 -2.315495 0
M  V30 29 H 5.786153 -1.518742 -1.695040 0
M  V30 30 H 5.571111 0.822404 -0.904873 0
M  V30 31 H 2.351428 2.632618 -1.162651 0
M  V30 32 H 4.124022 2.743248 -0.979489 0
M  V30 33 H 3.007145 3.345638 1.137039 0
M  V30 34 H 4.040451 1.212642 2.383088 0
M  V30 35 H 5.021372 2.363729 1.590207 0
M  V30 36 H 1.915396 0.475963 0.928486 0
M  V30 37 H 0.966285 1.966052 0.711049 0
M  V30 38 H 0.905288 1.536960 5.253169 0
M  V30 39 H -2.521266 -0.771494 4.704056 0
M  V30 40 H -2.173608 -1.121403 0.914609 0
M  V30 41 H -3.723441 -1.744534 3.386005 0
M  V30 42 H -5.731873 -3.099428 3.015194 0
M  V30 43 H -7.249383 -4.307201 1.538749 0
M  V30 44 H -4.905330 -3.306790 -1.804570 0
M  V30 45 H -3.392583 -2.109279 -0.376050 0
M  V30 46 H -0.178405 0.237905 1.316818 0
M  V30 47 H 1.293634 0.389595 -1.404015 0
M  V30 END ATOM
M  V30 BEGIN BOND
M  V30 1 3 1 2
M  V30 2 1 2 3
M  V30 3 2 3 4
M  V30 4 1 4 5
M  V30 5 2 5 6
M  V30 6 1 6 7
M  V30 7 1 7 8
M  V30 8 1 8 9
M  V30 9 1 9 10
M  V30 10 1 9 11
M  V30 11 1 11 12
M  V30 12 1 12 13
M  V30 13 2 13 14
M  V30 14 1 14 15
M  V30 15 2 15 16
M  V30 16 1 16 17
M  V30 17 1 17 18
M  V30 18 2 18 19
M  V30 19 1 19 20
M  V30 20 2 20 21
M  V30 21 1 21 22
M  V30 22 2 22 23
M  V30 23 1 23 24
M  V30 24 2 24 25
M  V30 25 2 17 26
M  V30 26 2 7 27
M  V30 27 1 27 3
M  V30 28 1 26 13
M  V30 29 1 25 20
M  V30 30 1 4 28
M  V30 31 1 5 29
M  V30 32 1 6 30
M  V30 33 1 8 31
M  V30 34 1 8 32
M  V30 35 1 9 33 CFG=3
M  V30 36 1 10 34
M  V30 37 1 10 35
M  V30 38 1 11 36
M  V30 39 1 11 37
M  V30 40 1 14 38
M  V30 41 1 16 39
M  V30 42 1 18 40
M  V30 43 1 19 41
M  V30 44 1 21 42
M  V30 45 1 22 43
M  V30 46 1 24 44
M  V30 47 1 25 45
M  V30 48 1 26 46
M  V30 49 1 27 47
M  V30 END BOND
M  V30 END CTAB
M  END
>  <Dataset>  (459) 
ChEMBL_Kinases

>  <Ligand_Instance>  (459) 
nan

>  <PDB_ID>  (459) 
nan

>  <Standardized_SMILES>  (459) 
N#Cc1cccc(C[C@H](N)COc2cncc(/C=C/c3ccncc3)c2)c1

>  <Name>  (459) 
nan

>  <Pocket>  (459) 
nan

>  <ATP_Site>  (459) 
nan

>  <Peripheral>  (459) 
nan

>  <Num_H_Atoms_ProtBoundConf>  (459) 
nan

>  <Num_Resolved_Atoms>  (459) 
nan

>  <Num_Not_Resolved_Atoms>  (459) 
nan

$$$$
CHEMBL205415
     RDKit          3D

  0  0  0  0  0  0  0  0  0  0999 V3000
M  V30 BEGIN CTAB
M  V30 COUNTS 50 53 0 0 0
M  V30 BEGIN ATOM
M  V30 1 N 1.324195 0.133978 3.250304 0
M  V30 2 C 1.438869 0.811472 1.972248 0 CFG=1
M  V30 3 C 2.351360 -0.010226 1.110659 0
M  V30 4 C 3.668713 -0.099305 1.793324 0
M  V30 5 C 4.178012 -1.190523 2.486072 0
M  V30 6 N 5.396368 -0.953127 2.986960 0
M  V30 7 C 5.701085 0.315207 2.621461 0
M  V30 8 C 6.842829 1.045345 2.884416 0
M  V30 9 C 6.934209 2.344068 2.401454 0
M  V30 10 C 5.877643 2.884073 1.664150 0
M  V30 11 C 4.737897 2.148427 1.404439 0
M  V30 12 C 4.660348 0.853966 1.892441 0
M  V30 13 C 0.065404 0.918174 1.439032 0
M  V30 14 O -0.523774 0.339006 2.389749 0
M  V30 15 N -0.498885 1.465204 0.270726 0
M  V30 16 C -1.919713 1.244639 0.341494 0
M  V30 17 C -2.781488 2.150683 0.919921 0
M  V30 18 N -4.087582 1.831835 0.926492 0
M  V30 19 C -4.548415 0.686455 0.397583 0
M  V30 20 C -3.746389 -0.263491 -0.195873 0
M  V30 21 C -4.286097 -1.495357 -0.760019 0
M  V30 22 C -3.605703 -2.449165 -1.343811 0
M  V30 23 C -4.170705 -3.667964 -1.897220 0
M  V30 24 C -5.500674 -3.994961 -1.885557 0
M  V30 25 C -6.022491 -5.152413 -2.414069 0
M  V30 26 N -5.181504 -6.027897 -2.982461 0
M  V30 27 C -3.862007 -5.787425 -3.037577 0
M  V30 28 C -3.371009 -4.616648 -2.497595 0
M  V30 29 C -2.406723 0.060349 -0.204187 0
M  V30 30 H 2.291279 -0.027081 3.611918 0
M  V30 31 H 0.831493 -0.783106 3.169595 0
M  V30 32 H 1.891247 1.803528 2.162570 0
M  V30 33 H 1.932439 -1.047274 1.058233 0
M  V30 34 H 2.529463 0.438185 0.114377 0
M  V30 35 H 3.621032 -2.120761 2.590919 0
M  V30 36 H 5.938178 -1.657626 3.538020 0
M  V30 37 H 7.655987 0.588256 3.468099 0
M  V30 38 H 7.805304 2.941677 2.585456 0
M  V30 39 H 5.948388 3.909813 1.281964 0
M  V30 40 H 3.916984 2.585027 0.825034 0
M  V30 41 H 0.264247 1.871861 -0.310120 0
M  V30 42 H -2.390273 3.067386 1.339864 0
M  V30 43 H -5.618007 0.507742 0.446575 0
M  V30 44 H -5.354509 -1.634310 -0.689807 0
M  V30 45 H -2.538962 -2.308420 -1.413859 0
M  V30 46 H -6.210020 -3.314843 -1.436445 0
M  V30 47 H -7.085159 -5.348154 -2.371084 0
M  V30 48 H -3.216975 -6.529323 -3.510100 0
M  V30 49 H -2.282069 -4.478227 -2.573789 0
M  V30 50 H -1.692316 -0.630164 -0.652711 0
M  V30 END ATOM
M  V30 BEGIN BOND
M  V30 1 1 1 2
M  V30 2 1 2 3
M  V30 3 1 3 4
M  V30 4 2 4 5
M  V30 5 1 5 6
M  V30 6 1 6 7
M  V30 7 2 7 8
M  V30 8 1 8 9
M  V30 9 2 9 10
M  V30 10 1 10 11
M  V30 11 2 11 12
M  V30 12 1 2 13
M  V30 13 2 13 14
M  V30 14 1 13 15
M  V30 15 1 15 16
M  V30 16 2 16 17
M  V30 17 1 17 18
M  V30 18 2 18 19
M  V30 19 1 19 20
M  V30 20 1 20 21
M  V30 21 2 21 22
M  V30 22 1 22 23
M  V30 23 2 23 24
M  V30 24 1 24 25
M  V30 25 2 25 26
M  V30 26 1 26 27
M  V30 27 2 27 28
M  V30 28 2 20 29
M  V30 29 1 12 4
M  V30 30 1 29 16
M  V30 31 1 12 7
M  V30 32 1 28 23
M  V30 33 1 1 30
M  V30 34 1 1 31
M  V30 35 1 2 32 CFG=1
M  V30 36 1 3 33
M  V30 37 1 3 34
M  V30 38 1 5 35
M  V30 39 1 6 36
M  V30 40 1 8 37
M  V30 41 1 9 38
M  V30 42 1 10 39
M  V30 43 1 11 40
M  V30 44 1 15 41
M  V30 45 1 17 42
M  V30 46 1 19 43
M  V30 47 1 21 44
M  V30 48 1 22 45
M  V30 49 1 24 46
M  V30 50 1 25 47
M  V30 51 1 27 48
M  V30 52 1 28 49
M  V30 53 1 29 50
M  V30 END BOND
M  V30 END CTAB
M  END
>  <Dataset>  (460) 
ChEMBL_Kinases

>  <Ligand_Instance>  (460) 
nan

>  <PDB_ID>  (460) 
nan

>  <Standardized_SMILES>  (460) 
N[C@@H](Cc1c[nH]c2ccccc12)C(=O)Nc1cncc(/C=C/c2ccncc2)c1

>  <Name>  (460) 
nan

>  <Pocket>  (460) 
nan

>  <ATP_Site>  (460) 
nan

>  <Peripheral>  (460) 
nan

>  <Num_H_Atoms_ProtBoundConf>  (460) 
nan

>  <Num_Resolved_Atoms>  (460) 
nan

>  <Num_Not_Resolved_Atoms>  (460) 
nan

$$$$
CHEMBL205619
     RDKit          3D

  0  0  0  0  0  0  0  0  0  0999 V3000
M  V30 BEGIN CTAB
M  V30 COUNTS 68 68 0 0 0
M  V30 BEGIN ATOM
M  V30 1 C 0.493094 -1.036455 6.340202 0
M  V30 2 C 0.640707 0.081687 5.366781 0
M  V30 3 C -0.738094 0.732269 5.116948 0
M  V30 4 C 1.444700 -0.020025 4.180958 0
M  V30 5 C 1.166431 -1.010285 3.058768 0
M  V30 6 C 2.251237 -0.707578 2.069384 0
M  V30 7 C 2.287778 -1.379831 0.800351 0
M  V30 8 C 2.108822 -0.583022 -0.293230 0
M  V30 9 C 1.892237 0.895291 -0.134501 0
M  V30 10 C 1.706447 1.587998 -1.438847 0
M  V30 11 C 0.826824 0.870043 -2.428927 0
M  V30 12 C 0.795668 1.686683 -3.701887 0
M  V30 13 O 2.040681 1.850044 -4.269213 0
M  V30 14 C -0.562736 0.806285 -1.872991 0
M  V30 15 O -1.480536 0.201575 -2.766152 0
M  V30 16 C -2.809105 0.101223 -2.321339 0
M  V30 17 O -2.980679 0.573837 -1.175735 0
M  V30 18 C -3.739949 -0.539438 -3.287639 0
M  V30 19 C -5.112697 -0.570950 -2.667005 0
M  V30 20 C -3.793116 0.333782 -4.511968 0
M  V30 21 C -3.279239 -1.948073 -3.611017 0
M  V30 22 O 1.349442 -0.420212 -2.727835 0
M  V30 23 C 2.096538 -1.057462 -1.705047 0
M  V30 24 O 2.823985 -2.083777 -1.874227 0
M  V30 25 C 1.063662 -2.370048 3.562768 0
M  V30 26 C 0.837224 -3.565239 2.734980 0
M  V30 27 C -0.366927 -3.591649 1.856790 0
M  V30 28 C 1.991672 -4.267457 2.122570 0
M  V30 29 H 1.239852 -1.819242 6.326246 0
M  V30 30 H 0.512853 -0.657458 7.413462 0
M  V30 31 H -0.560232 -1.428390 6.270835 0
M  V30 32 H 1.135911 0.918171 5.991195 0
M  V30 33 H -0.620040 1.802327 4.848422 0
M  V30 34 H -1.247799 0.710192 6.102716 0
M  V30 35 H -1.346585 0.170275 4.412894 0
M  V30 36 H 1.559621 1.019657 3.736002 0
M  V30 37 H 2.506553 -0.257859 4.484368 0
M  V30 38 H 0.217705 -0.659009 2.569710 0
M  V30 39 H 3.274350 -0.956150 2.563120 0
M  V30 40 H 2.375017 0.414915 1.960478 0
M  V30 41 H 2.430287 -2.348378 0.375166 0
M  V30 42 H 2.874030 1.290020 0.270761 0
M  V30 43 H 1.079023 1.048006 0.578433 0
M  V30 44 H 1.198045 2.562115 -1.223928 0
M  V30 45 H 2.645269 1.839132 -1.943265 0
M  V30 46 H 0.440389 2.712945 -3.405741 0
M  V30 47 H 0.043563 1.280974 -4.420060 0
M  V30 48 H 1.907598 2.413709 -5.075369 0
M  V30 49 H -0.879789 1.847876 -1.675037 0
M  V30 50 H -0.522105 0.283362 -0.898609 0
M  V30 51 H -5.111924 -1.044222 -1.654046 0
M  V30 52 H -5.810355 -1.195571 -3.286495 0
M  V30 53 H -5.557760 0.441575 -2.649807 0
M  V30 54 H -2.780782 0.482226 -4.957704 0
M  V30 55 H -4.237821 1.303813 -4.198598 0
M  V30 56 H -4.463796 -0.139450 -5.246741 0
M  V30 57 H -2.166346 -2.058894 -3.520272 0
M  V30 58 H -3.626983 -2.189510 -4.631020 0
M  V30 59 H -3.774054 -2.675671 -2.915355 0
M  V30 60 H 1.926437 -2.652252 4.260706 0
M  V30 61 H 0.196339 -2.350578 4.329484 0
M  V30 62 H 0.489718 -4.384528 3.555012 0
M  V30 63 H -0.409124 -4.609466 1.408558 0
M  V30 64 H -0.313842 -2.899074 0.993795 0
M  V30 65 H -1.332828 -3.446992 2.373373 0
M  V30 66 H 2.942192 -3.719614 2.308137 0
M  V30 67 H 2.160886 -5.262041 2.628062 0
M  V30 68 H 1.835233 -4.537024 1.052939 0
M  V30 END ATOM
M  V30 BEGIN BOND
M  V30 1 1 1 2
M  V30 2 1 2 3
M  V30 3 1 2 4
M  V30 4 1 4 5
M  V30 5 1 5 6
M  V30 6 1 6 7
M  V30 7 2 7 8
M  V30 8 1 8 9
M  V30 9 1 9 10
M  V30 10 1 10 11
M  V30 11 1 11 12
M  V30 12 1 12 13
M  V30 13 1 11 14
M  V30 14 1 14 15
M  V30 15 1 15 16
M  V30 16 2 16 17
M  V30 17 1 16 18
M  V30 18 1 18 19
M  V30 19 1 18 20
M  V30 20 1 18 21
M  V30 21 1 11 22
M  V30 22 1 22 23
M  V30 23 2 23 24
M  V30 24 1 5 25
M  V30 25 1 25 26
M  V30 26 1 26 27
M  V30 27 1 26 28
M  V30 28 1 23 8
M  V30 29 1 1 29
M  V30 30 1 1 30
M  V30 31 1 1 31
M  V30 32 1 2 32
M  V30 33 1 3 33
M  V30 34 1 3 34
M  V30 35 1 3 35
M  V30 36 1 4 36
M  V30 37 1 4 37
M  V30 38 1 5 38
M  V30 39 1 6 39
M  V30 40 1 6 40
M  V30 41 1 7 41
M  V30 42 1 9 42
M  V30 43 1 9 43
M  V30 44 1 10 44
M  V30 45 1 10 45
M  V30 46 1 12 46
M  V30 47 1 12 47
M  V30 48 1 13 48
M  V30 49 1 14 49
M  V30 50 1 14 50
M  V30 51 1 19 51
M  V30 52 1 19 52
M  V30 53 1 19 53
M  V30 54 1 20 54
M  V30 55 1 20 55
M  V30 56 1 20 56
M  V30 57 1 21 57
M  V30 58 1 21 58
M  V30 59 1 21 59
M  V30 60 1 25 60
M  V30 61 1 25 61
M  V30 62 1 26 62
M  V30 63 1 27 63
M  V30 64 1 27 64
M  V30 65 1 27 65
M  V30 66 1 28 66
M  V30 67 1 28 67
M  V30 68 1 28 68
M  V30 END BOND
M  V30 END CTAB
M  END
>  <Dataset>  (461) 
ChEMBL_Kinases

>  <Ligand_Instance>  (461) 
nan

>  <PDB_ID>  (461) 
nan

>  <Standardized_SMILES>  (461) 
CC(C)CC(C/C=C1\CCC(CO)(COC(=O)C(C)(C)C)OC1=O)CC(C)C

>  <Name>  (461) 
nan

>  <Pocket>  (461) 
nan

>  <ATP_Site>  (461) 
nan

>  <Peripheral>  (461) 
nan

>  <Num_H_Atoms_ProtBoundConf>  (461) 
nan

>  <Num_Resolved_Atoms>  (461) 
nan

>  <Num_Not_Resolved_Atoms>  (461) 
nan

$$$$
CHEMBL205427
     RDKit          3D

  0  0  0  0  0  0  0  0  0  0999 V3000
M  V30 BEGIN CTAB
M  V30 COUNTS 37 40 0 0 0
M  V30 BEGIN ATOM
M  V30 1 F -0.208134 -0.949422 3.253638 0
M  V30 2 C 0.551592 -2.039285 3.344723 0
M  V30 3 C 0.383400 -2.831976 4.450029 0
M  V30 4 C 1.114499 -3.984198 4.646422 0
M  V30 5 C 2.028850 -4.277450 3.642929 0
M  V30 6 C 2.182232 -3.468465 2.541876 0
M  V30 7 C 1.450470 -2.315512 2.345599 0
M  V30 8 C 1.707992 -1.553349 1.141137 0
M  V30 9 C 1.120397 -0.386625 0.751330 0
M  V30 10 C 1.395544 0.299189 -0.398796 0
M  V30 11 C 0.777235 1.538811 -0.830348 0
M  V30 12 C 1.630158 2.643880 -0.942735 0
M  V30 13 N 0.901943 3.711283 -1.360200 0
M  V30 14 N -0.351924 3.329342 -1.512027 0
M  V30 15 C -0.466377 2.012845 -1.198448 0
M  V30 16 C -1.589467 1.085258 -1.178592 0
M  V30 17 C -2.081235 0.790305 0.100034 0
M  V30 18 C -3.154516 -0.099433 0.162137 0
M  V30 19 C -3.690881 -0.650144 -0.982277 0
M  V30 20 C -3.180100 -0.335998 -2.225802 0
M  V30 21 N -2.159317 0.513778 -2.248589 0
M  V30 22 C 2.354963 -0.224485 -1.255437 0
M  V30 23 C 2.943260 -1.396629 -0.860582 0
M  V30 24 N 2.627389 -2.020837 0.282448 0
M  V30 25 H -0.337505 -2.575510 5.214964 0
M  V30 26 H 0.959021 -4.584789 5.521288 0
M  V30 27 H 2.607520 -5.170264 3.776234 0
M  V30 28 H 2.934042 -3.813571 1.827531 0
M  V30 29 H 0.378251 0.060631 1.381739 0
M  V30 30 H 2.688424 2.887763 -0.792810 0
M  V30 31 H 1.079889 4.720882 -1.581710 0
M  V30 32 H -1.689110 1.198685 1.031347 0
M  V30 33 H -3.548653 -0.338150 1.140583 0
M  V30 34 H -4.528240 -1.341773 -0.917743 0
M  V30 35 H -3.586684 -0.759937 -3.156823 0
M  V30 36 H 2.647748 0.236259 -2.189204 0
M  V30 37 H 3.704976 -1.867534 -1.480894 0
M  V30 END ATOM
M  V30 BEGIN BOND
M  V30 1 1 1 2
M  V30 2 2 2 3
M  V30 3 1 3 4
M  V30 4 2 4 5
M  V30 5 1 5 6
M  V30 6 2 6 7
M  V30 7 1 7 8
M  V30 8 2 8 9
M  V30 9 1 9 10
M  V30 10 1 10 11
M  V30 11 2 11 12
M  V30 12 1 12 13
M  V30 13 1 13 14
M  V30 14 2 14 15
M  V30 15 1 15 16
M  V30 16 2 16 17
M  V30 17 1 17 18
M  V30 18 2 18 19
M  V30 19 1 19 20
M  V30 20 2 20 21
M  V30 21 2 10 22
M  V30 22 1 22 23
M  V30 23 2 23 24
M  V30 24 1 7 2
M  V30 25 1 24 8
M  V30 26 1 15 11
M  V30 27 1 21 16
M  V30 28 1 3 25
M  V30 29 1 4 26
M  V30 30 1 5 27
M  V30 31 1 6 28
M  V30 32 1 9 29
M  V30 33 1 12 30
M  V30 34 1 13 31
M  V30 35 1 17 32
M  V30 36 1 18 33
M  V30 37 1 19 34
M  V30 38 1 20 35
M  V30 39 1 22 36
M  V30 40 1 23 37
M  V30 END BOND
M  V30 END CTAB
M  END
>  <Dataset>  (462) 
ChEMBL_Kinases

>  <Ligand_Instance>  (462) 
nan

>  <PDB_ID>  (462) 
nan

>  <Standardized_SMILES>  (462) 
Fc1ccccc1-c1cc(-c2c[nH]nc2-c2ccccn2)ccn1

>  <Name>  (462) 
nan

>  <Pocket>  (462) 
nan

>  <ATP_Site>  (462) 
nan

>  <Peripheral>  (462) 
nan

>  <Num_H_Atoms_ProtBoundConf>  (462) 
nan

>  <Num_Resolved_Atoms>  (462) 
nan

>  <Num_Not_Resolved_Atoms>  (462) 
nan

$$$$
CHEMBL205449
     RDKit          3D

  0  0  0  0  0  0  0  0  0  0999 V3000
M  V30 BEGIN CTAB
M  V30 COUNTS 49 51 0 0 0
M  V30 BEGIN ATOM
M  V30 1 C 0.503724 -2.320029 3.192219 0
M  V30 2 O -0.483526 -1.696415 2.411336 0
M  V30 3 C -0.224452 -0.755972 1.420110 0
M  V30 4 C 1.071027 -0.371657 1.141879 0
M  V30 5 C 1.326066 0.557616 0.162357 0
M  V30 6 C 2.652991 1.063854 -0.243696 0
M  V30 7 N 3.113920 2.216155 0.441467 0
M  V30 8 C 4.409945 2.681652 0.022607 0
M  V30 9 C 5.540678 1.904847 0.628223 0
M  V30 10 C 5.203437 1.367788 2.001046 0
M  V30 11 C 4.178246 2.276259 2.651815 0
M  V30 12 C 2.883877 2.289423 1.838508 0
M  V30 13 C 0.245618 1.088544 -0.528047 0
M  V30 14 C -1.049465 0.720934 -0.267891 0
M  V30 15 C -1.290426 -0.210869 0.715901 0
M  V30 16 N -2.630403 -0.636894 1.034534 0
M  V30 17 C -3.164427 -1.745062 0.343047 0
M  V30 18 O -2.416524 -2.271744 -0.501558 0
M  V30 19 N -4.427949 -2.313259 0.498281 0
M  V30 20 C -5.035111 -3.412738 -0.147926 0
M  V30 21 C -4.502047 -4.217092 -1.123889 0
M  V30 22 N -5.173481 -5.244560 -1.674199 0
M  V30 23 C -6.411847 -5.539283 -1.293546 0
M  V30 24 C -7.107440 -6.640089 -1.895337 0
M  V30 25 N -7.680412 -7.534582 -2.370342 0
M  V30 26 C -6.978895 -4.752239 -0.315186 0
M  V30 27 N -6.287788 -3.734553 0.216459 0
M  V30 28 H 1.209029 -1.539742 3.500810 0
M  V30 29 H -0.032828 -2.799631 4.059853 0
M  V30 30 H 0.973442 -3.094892 2.551755 0
M  V30 31 H 1.919964 -0.771379 1.664784 0
M  V30 32 H 3.447657 0.269590 -0.129916 0
M  V30 33 H 2.684734 1.291866 -1.341305 0
M  V30 34 H 4.498843 3.740154 0.374896 0
M  V30 35 H 4.472761 2.618431 -1.069807 0
M  V30 36 H 5.902846 1.101805 -0.064370 0
M  V30 37 H 6.402599 2.592542 0.751960 0
M  V30 38 H 4.810764 0.336098 1.905067 0
M  V30 39 H 6.070415 1.331098 2.683321 0
M  V30 40 H 4.596980 3.287043 2.651423 0
M  V30 41 H 3.970131 1.862390 3.645764 0
M  V30 42 H 2.166420 1.545028 2.231333 0
M  V30 43 H 2.421419 3.298892 2.047108 0
M  V30 44 H 0.375567 1.828175 -1.315525 0
M  V30 45 H -1.872427 1.146671 -0.816868 0
M  V30 46 H -3.261481 -0.180924 1.757303 0
M  V30 47 H -4.944703 -1.781948 1.227858 0
M  V30 48 H -3.500703 -4.015480 -1.463699 0
M  V30 49 H -7.983865 -4.943271 0.035683 0
M  V30 END ATOM
M  V30 BEGIN BOND
M  V30 1 1 1 2
M  V30 2 1 2 3
M  V30 3 2 3 4
M  V30 4 1 4 5
M  V30 5 1 5 6
M  V30 6 1 6 7
M  V30 7 1 7 8
M  V30 8 1 8 9
M  V30 9 1 9 10
M  V30 10 1 10 11
M  V30 11 1 11 12
M  V30 12 2 5 13
M  V30 13 1 13 14
M  V30 14 2 14 15
M  V30 15 1 15 16
M  V30 16 1 16 17
M  V30 17 2 17 18
M  V30 18 1 17 19
M  V30 19 1 19 20
M  V30 20 2 20 21
M  V30 21 1 21 22
M  V30 22 2 22 23
M  V30 23 1 23 24
M  V30 24 3 24 25
M  V30 25 1 23 26
M  V30 26 2 26 27
M  V30 27 1 15 3
M  V30 28 1 27 20
M  V30 29 1 12 7
M  V30 30 1 1 28
M  V30 31 1 1 29
M  V30 32 1 1 30
M  V30 33 1 4 31
M  V30 34 1 6 32
M  V30 35 1 6 33
M  V30 36 1 8 34
M  V30 37 1 8 35
M  V30 38 1 9 36
M  V30 39 1 9 37
M  V30 40 1 10 38
M  V30 41 1 10 39
M  V30 42 1 11 40
M  V30 43 1 11 41
M  V30 44 1 12 42
M  V30 45 1 12 43
M  V30 46 1 13 44
M  V30 47 1 14 45
M  V30 48 1 16 46
M  V30 49 1 19 47
M  V30 50 1 21 48
M  V30 51 1 26 49
M  V30 END BOND
M  V30 END CTAB
M  END
>  <Dataset>  (463) 
ChEMBL_Kinases

>  <Ligand_Instance>  (463) 
nan

>  <PDB_ID>  (463) 
nan

>  <Standardized_SMILES>  (463) 
COc1cc(CN2CCCCC2)ccc1NC(=O)Nc1cnc(C#N)cn1

>  <Name>  (463) 
nan

>  <Pocket>  (463) 
nan

>  <ATP_Site>  (463) 
nan

>  <Peripheral>  (463) 
nan

>  <Num_H_Atoms_ProtBoundConf>  (463) 
nan

>  <Num_Resolved_Atoms>  (463) 
nan

>  <Num_Not_Resolved_Atoms>  (463) 
nan

$$$$
CHEMBL205491
     RDKit          3D

  0  0  0  0  0  0  0  0  0  0999 V3000
M  V30 BEGIN CTAB
M  V30 COUNTS 42 44 0 0 0
M  V30 BEGIN ATOM
M  V30 1 C -0.644187 -0.306793 4.337366 0
M  V30 2 O -0.084723 0.424951 3.410337 0
M  V30 3 C 0.445459 1.116263 2.538399 0
M  V30 4 C 1.003012 1.866420 1.549382 0
M  V30 5 C 0.913066 2.217242 0.249279 0
M  V30 6 N 1.922141 3.129702 -0.178578 0
M  V30 7 C 2.953288 2.233029 -0.638542 0
M  V30 8 O 2.574466 1.044733 -0.486415 0
M  V30 9 C 4.254583 2.635735 -1.201907 0
M  V30 10 C 4.995321 3.673052 -1.516499 0
M  V30 11 C 6.225501 3.411857 -2.056988 0
M  V30 12 C 6.657385 2.087349 -2.258325 0
M  V30 13 S 5.170172 1.059498 -1.616507 0
M  V30 14 C -0.125976 1.643646 -0.459173 0
M  V30 15 Cl -0.100069 2.196125 -2.094834 0
M  V30 16 C -0.955888 0.766428 0.271358 0
M  V30 17 C -0.640731 0.555940 1.675697 0
M  V30 18 N -1.777446 -0.381422 1.847441 0
M  V30 19 C -1.569685 -1.784126 1.576355 0
M  V30 20 O -0.422848 -2.151611 1.192692 0
M  V30 21 N -2.606121 -2.739055 1.730217 0
M  V30 22 C -2.433336 -4.124718 1.470789 0
M  V30 23 C -2.019775 -5.086564 2.400899 0
M  V30 24 N -1.915104 -6.362923 1.955454 0
M  V30 25 C -2.211306 -6.624530 0.663083 0
M  V30 26 C -2.083372 -8.002303 0.249720 0
M  V30 27 N -1.964525 -9.094754 -0.069496 0
M  V30 28 C -2.616464 -5.703540 -0.261752 0
M  V30 29 N -2.720978 -4.417910 0.190148 0
M  V30 30 H -0.360824 -0.035180 5.402541 0
M  V30 31 H -1.784571 -0.191953 4.389746 0
M  V30 32 H -0.549622 -1.432565 4.247306 0
M  V30 33 H 1.788908 2.240739 2.269639 0
M  V30 34 H 2.155208 4.140980 -0.267873 0
M  V30 35 H 4.495399 4.594514 -1.290802 0
M  V30 36 H 6.815663 4.278669 -2.310101 0
M  V30 37 H 7.610826 1.861996 -2.677783 0
M  V30 38 H -1.657047 0.477567 -0.515276 0
M  V30 39 H -2.706837 -0.050957 2.159906 0
M  V30 40 H -3.495830 -2.302557 2.051794 0
M  V30 41 H -1.843496 -4.633360 3.362768 0
M  V30 42 H -2.824746 -6.022161 -1.259754 0
M  V30 END ATOM
M  V30 BEGIN BOND
M  V30 1 1 1 2
M  V30 2 1 2 3
M  V30 3 2 3 4
M  V30 4 1 4 5
M  V30 5 1 5 6
M  V30 6 1 6 7
M  V30 7 2 7 8
M  V30 8 1 7 9
M  V30 9 2 9 10
M  V30 10 1 10 11
M  V30 11 2 11 12
M  V30 12 1 12 13
M  V30 13 2 5 14
M  V30 14 1 14 15
M  V30 15 1 14 16
M  V30 16 2 16 17
M  V30 17 1 17 18
M  V30 18 1 18 19
M  V30 19 2 19 20
M  V30 20 1 19 21
M  V30 21 1 21 22
M  V30 22 2 22 23
M  V30 23 1 23 24
M  V30 24 2 24 25
M  V30 25 1 25 26
M  V30 26 3 26 27
M  V30 27 1 25 28
M  V30 28 2 28 29
M  V30 29 1 17 3
M  V30 30 1 29 22
M  V30 31 1 13 9
M  V30 32 1 1 30
M  V30 33 1 1 31
M  V30 34 1 1 32
M  V30 35 1 4 33
M  V30 36 1 6 34
M  V30 37 1 10 35
M  V30 38 1 11 36
M  V30 39 1 12 37
M  V30 40 1 16 38
M  V30 41 1 18 39
M  V30 42 1 21 40
M  V30 43 1 23 41
M  V30 44 1 28 42
M  V30 END BOND
M  V30 END CTAB
M  END
>  <Dataset>  (464) 
ChEMBL_Kinases

>  <Ligand_Instance>  (464) 
nan

>  <PDB_ID>  (464) 
nan

>  <Standardized_SMILES>  (464) 
COc1cc(NC(=O)c2cccs2)c(Cl)cc1NC(=O)Nc1cnc(C#N)cn1

>  <Name>  (464) 
nan

>  <Pocket>  (464) 
nan

>  <ATP_Site>  (464) 
nan

>  <Peripheral>  (464) 
nan

>  <Num_H_Atoms_ProtBoundConf>  (464) 
nan

>  <Num_Resolved_Atoms>  (464) 
nan

>  <Num_Not_Resolved_Atoms>  (464) 
nan

$$$$
CHEMBL205514
     RDKit          3D

  0  0  0  0  0  0  0  0  0  0999 V3000
M  V30 BEGIN CTAB
M  V30 COUNTS 46 48 0 0 0
M  V30 BEGIN ATOM
M  V30 1 N 4.128624 -1.968849 2.925555 0
M  V30 2 C 4.039407 -0.932503 1.878633 0 CFG=1
M  V30 3 C 4.143340 -1.587994 0.523197 0
M  V30 4 C 4.057915 -0.573501 -0.537683 0
M  V30 5 C 2.996672 -0.096270 -1.273410 0
M  V30 6 C 3.165502 0.872294 -2.227448 0
M  V30 7 C 4.405691 1.410552 -2.491531 0
M  V30 8 C 5.492293 0.961404 -1.778717 0
M  V30 9 C 5.310011 -0.014621 -0.820149 0
M  V30 10 C 2.725899 -0.265797 1.988700 0
M  V30 11 O 2.487520 -1.301921 2.708195 0
M  V30 12 N 1.871912 0.817150 1.668652 0
M  V30 13 C 0.556737 0.756291 2.207364 0
M  V30 14 C 0.343293 1.323025 3.446245 0
M  V30 15 N -0.919018 1.232946 3.900074 0
M  V30 16 C -1.896781 0.634792 3.196458 0
M  V30 17 C -1.707756 0.062412 1.958556 0
M  V30 18 C -2.753507 -0.589365 1.181989 0
M  V30 19 C -4.014168 -0.721317 1.551379 0
M  V30 20 C -5.066606 -1.367486 0.789365 0
M  V30 21 C -6.371098 -1.455128 1.269243 0
M  V30 22 C -7.362965 -2.070201 0.538911 0
M  V30 23 N -7.117696 -2.618889 -0.679935 0
M  V30 24 C -5.860634 -2.560480 -1.194378 0
M  V30 25 C -4.899914 -1.940786 -0.439181 0
M  V30 26 C -0.426236 0.139447 1.469040 0
M  V30 27 H 3.639862 -2.834967 2.678678 0
M  V30 28 H 3.982734 -1.599898 3.870856 0
M  V30 29 H 4.884144 -0.255095 2.051030 0
M  V30 30 H 5.058663 -2.214831 0.434190 0
M  V30 31 H 3.240033 -2.255954 0.381375 0
M  V30 32 H 2.064854 -0.593621 -0.979692 0
M  V30 33 H 2.246266 1.169469 -2.745574 0
M  V30 34 H 4.501217 2.172347 -3.250550 0
M  V30 35 H 6.425430 1.412342 -2.024529 0
M  V30 36 H 6.253250 -0.279287 -0.329796 0
M  V30 37 H 2.565309 1.373427 1.084031 0
M  V30 38 H 1.154203 1.794967 3.981585 0
M  V30 39 H -2.873093 0.613154 3.643384 0
M  V30 40 H -2.503035 -1.008488 0.219276 0
M  V30 41 H -4.282612 -0.307115 2.513291 0
M  V30 42 H -6.637324 -1.039816 2.232270 0
M  V30 43 H -8.371047 -2.128374 0.928837 0
M  V30 44 H -5.669221 -2.997378 -2.162943 0
M  V30 45 H -3.925232 -1.928206 -0.903375 0
M  V30 46 H -0.194543 -0.284351 0.506431 0
M  V30 END ATOM
M  V30 BEGIN BOND
M  V30 1 1 1 2
M  V30 2 1 2 3
M  V30 3 1 3 4
M  V30 4 2 4 5
M  V30 5 1 5 6
M  V30 6 2 6 7
M  V30 7 1 7 8
M  V30 8 2 8 9
M  V30 9 1 2 10
M  V30 10 2 10 11
M  V30 11 1 10 12
M  V30 12 1 12 13
M  V30 13 2 13 14
M  V30 14 1 14 15
M  V30 15 2 15 16
M  V30 16 1 16 17
M  V30 17 1 17 18
M  V30 18 2 18 19
M  V30 19 1 19 20
M  V30 20 2 20 21
M  V30 21 1 21 22
M  V30 22 2 22 23
M  V30 23 1 23 24
M  V30 24 2 24 25
M  V30 25 2 17 26
M  V30 26 1 9 4
M  V30 27 1 26 13
M  V30 28 1 25 20
M  V30 29 1 1 27
M  V30 30 1 1 28
M  V30 31 1 2 29 CFG=1
M  V30 32 1 3 30
M  V30 33 1 3 31
M  V30 34 1 5 32
M  V30 35 1 6 33
M  V30 36 1 7 34
M  V30 37 1 8 35
M  V30 38 1 9 36
M  V30 39 1 12 37
M  V30 40 1 14 38
M  V30 41 1 16 39
M  V30 42 1 18 40
M  V30 43 1 19 41
M  V30 44 1 21 42
M  V30 45 1 22 43
M  V30 46 1 24 44
M  V30 47 1 25 45
M  V30 48 1 26 46
M  V30 END BOND
M  V30 END CTAB
M  END
>  <Dataset>  (465) 
ChEMBL_Kinases

>  <Ligand_Instance>  (465) 
nan

>  <PDB_ID>  (465) 
nan

>  <Standardized_SMILES>  (465) 
N[C@@H](Cc1ccccc1)C(=O)Nc1cncc(/C=C/c2ccncc2)c1

>  <Name>  (465) 
nan

>  <Pocket>  (465) 
nan

>  <ATP_Site>  (465) 
nan

>  <Peripheral>  (465) 
nan

>  <Num_H_Atoms_ProtBoundConf>  (465) 
nan

>  <Num_Resolved_Atoms>  (465) 
nan

>  <Num_Not_Resolved_Atoms>  (465) 
nan

$$$$
CHEMBL205543
     RDKit          3D

  0  0  0  0  0  0  0  0  0  0999 V3000
M  V30 BEGIN CTAB
M  V30 COUNTS 56 59 0 0 0
M  V30 BEGIN ATOM
M  V30 1 C 2.498504 -1.064185 6.607245 0
M  V30 2 N 2.368244 -2.182782 5.709209 0
M  V30 3 C 3.465319 -2.310169 4.792249 0
M  V30 4 C 3.495955 -1.310163 3.685319 0
M  V30 5 N 2.236739 -1.096062 3.023577 0
M  V30 6 C 1.711072 -1.100209 1.687616 0
M  V30 7 C 1.141086 0.040672 1.184826 0
M  V30 8 C 0.629077 0.059415 -0.097502 0
M  V30 9 O 0.033173 1.093559 -0.754114 0
M  V30 10 C -0.216103 2.391630 -0.314234 0
M  V30 11 C 0.497539 3.350396 -1.246875 0
M  V30 12 C -0.657948 3.845508 -2.113509 0
M  V30 13 O -1.638742 4.040193 -1.158581 0
M  V30 14 C -1.651376 2.819044 -0.476393 0
M  V30 15 C 0.707694 -1.107846 -0.861979 0
M  V30 16 N 0.242419 -1.299887 -2.199835 0
M  V30 17 C -1.088878 -1.751110 -2.331892 0
M  V30 18 O -1.839591 -1.976721 -1.321953 0
M  V30 19 N -1.666954 -1.979901 -3.625069 0
M  V30 20 C -3.010350 -2.436150 -3.792450 0
M  V30 21 C -4.015865 -1.490631 -3.900029 0
M  V30 22 N -5.286068 -1.929709 -4.058386 0
M  V30 23 C -5.553206 -3.252167 -4.108603 0
M  V30 24 C -6.912941 -3.638440 -4.276966 0
M  V30 25 N -8.018242 -3.938243 -4.401073 0
M  V30 26 C -4.572311 -4.189016 -4.003857 0
M  V30 27 N -3.285472 -3.765873 -3.843725 0
M  V30 28 C 1.287086 -2.264832 -0.348644 0
M  V30 29 C 1.802068 -2.278016 0.945808 0
M  V30 30 Cl 2.541157 -3.708968 1.637737 0
M  V30 31 C 1.300630 -0.798347 4.101333 0
M  V30 32 C 1.156823 -2.029492 4.952563 0
M  V30 33 H 3.215912 -0.289153 6.255791 0
M  V30 34 H 2.841265 -1.437051 7.611850 0
M  V30 35 H 1.486011 -0.654950 6.802529 0
M  V30 36 H 3.509390 -3.367632 4.461557 0
M  V30 37 H 4.405879 -2.163879 5.385973 0
M  V30 38 H 4.193491 -1.736296 2.905734 0
M  V30 39 H 3.989361 -0.372054 4.009944 0
M  V30 40 H 1.054207 0.954586 1.719176 0
M  V30 41 H 0.152372 2.512169 0.718907 0
M  V30 42 H 0.912502 4.230474 -0.738459 0
M  V30 43 H 1.188857 2.848498 -1.951637 0
M  V30 44 H -0.941403 3.074154 -2.842401 0
M  V30 45 H -0.424854 4.782941 -2.646741 0
M  V30 46 H -2.251663 2.119747 -1.070895 0
M  V30 47 H -2.068634 3.038876 0.532898 0
M  V30 48 H 0.770036 -1.146515 -3.105603 0
M  V30 49 H -1.122138 -1.819728 -4.491922 0
M  V30 50 H -3.744460 -0.432129 -3.852931 0
M  V30 51 H -4.754804 -5.268470 -4.040583 0
M  V30 52 H 1.388712 -3.195603 -0.859554 0
M  V30 53 H 1.600941 0.105968 4.647941 0
M  V30 54 H 0.268890 -0.582158 3.711051 0
M  V30 55 H 0.274837 -1.870769 5.609504 0
M  V30 56 H 0.978260 -2.878390 4.258907 0
M  V30 END ATOM
M  V30 BEGIN BOND
M  V30 1 1 1 2
M  V30 2 1 2 3
M  V30 3 1 3 4
M  V30 4 1 4 5
M  V30 5 1 5 6
M  V30 6 2 6 7
M  V30 7 1 7 8
M  V30 8 1 8 9
M  V30 9 1 9 10
M  V30 10 1 10 11
M  V30 11 1 11 12
M  V30 12 1 12 13
M  V30 13 1 13 14
M  V30 14 2 8 15
M  V30 15 1 15 16
M  V30 16 1 16 17
M  V30 17 2 17 18
M  V30 18 1 17 19
M  V30 19 1 19 20
M  V30 20 2 20 21
M  V30 21 1 21 22
M  V30 22 2 22 23
M  V30 23 1 23 24
M  V30 24 3 24 25
M  V30 25 1 23 26
M  V30 26 2 26 27
M  V30 27 1 15 28
M  V30 28 2 28 29
M  V30 29 1 29 30
M  V30 30 1 5 31
M  V30 31 1 31 32
M  V30 32 1 32 2
M  V30 33 1 29 6
M  V30 34 1 14 10
M  V30 35 1 27 20
M  V30 36 1 1 33
M  V30 37 1 1 34
M  V30 38 1 1 35
M  V30 39 1 3 36
M  V30 40 1 3 37
M  V30 41 1 4 38
M  V30 42 1 4 39
M  V30 43 1 7 40
M  V30 44 1 10 41
M  V30 45 1 11 42
M  V30 46 1 11 43
M  V30 47 1 12 44
M  V30 48 1 12 45
M  V30 49 1 14 46
M  V30 50 1 14 47
M  V30 51 1 16 48
M  V30 52 1 19 49
M  V30 53 1 21 50
M  V30 54 1 26 51
M  V30 55 1 28 52
M  V30 56 1 31 53
M  V30 57 1 31 54
M  V30 58 1 32 55
M  V30 59 1 32 56
M  V30 END BOND
M  V30 END CTAB
M  END
>  <Dataset>  (466) 
ChEMBL_Kinases

>  <Ligand_Instance>  (466) 
nan

>  <PDB_ID>  (466) 
nan

>  <Standardized_SMILES>  (466) 
CN1CCN(c2cc(OC3CCOC3)c(NC(=O)Nc3cnc(C#N)cn3)cc2Cl)CC1

>  <Name>  (466) 
nan

>  <Pocket>  (466) 
nan

>  <ATP_Site>  (466) 
nan

>  <Peripheral>  (466) 
nan

>  <Num_H_Atoms_ProtBoundConf>  (466) 
nan

>  <Num_Resolved_Atoms>  (466) 
nan

>  <Num_Not_Resolved_Atoms>  (466) 
nan

$$$$
CHEMBL205561
     RDKit          3D

  0  0  0  0  0  0  0  0  0  0999 V3000
M  V30 BEGIN CTAB
M  V30 COUNTS 50 53 0 0 0
M  V30 BEGIN ATOM
M  V30 1 C 3.264891 -0.853018 2.532794 0
M  V30 2 C 4.088907 0.347777 2.259773 0
M  V30 3 C 4.184026 1.278072 3.300019 0
M  V30 4 C 4.910015 2.448302 3.230262 0
M  V30 5 C 5.575754 2.693168 2.047692 0
M  V30 6 C 5.517083 1.800781 0.975151 0
M  V30 7 C 4.780931 0.638359 1.078277 0
M  V30 8 N 4.671921 -0.326457 0.042839 0
M  V30 9 C 3.526144 -0.784367 -0.658675 0
M  V30 10 C 2.285610 -0.242125 -0.406504 0
M  V30 11 C 1.204053 -0.741943 -1.121945 0
M  V30 12 C -0.120357 -0.158337 -0.846204 0
M  V30 13 C -0.172836 1.193240 -0.479350 0
M  V30 14 C -1.416905 1.771841 -0.209680 0
M  V30 15 N -2.559346 1.070241 -0.292334 0
M  V30 16 C -2.514479 -0.244870 -0.648879 0
M  V30 17 N -3.626036 -1.124726 -0.780747 0
M  V30 18 C -4.315663 -2.028759 0.096705 0
M  V30 19 C -4.341968 -3.350526 -0.277137 0
M  V30 20 C -4.971312 -4.325969 0.476751 0
M  V30 21 C -5.588654 -3.927083 1.645495 0
M  V30 22 C -5.574524 -2.593947 2.043962 0
M  V30 23 C -4.939610 -1.658665 1.267798 0
M  V30 24 C -4.884372 -0.219837 1.632040 0
M  V30 25 C -1.322224 -0.835645 -0.917045 0
M  V30 26 C 1.403568 -1.758802 -2.057039 0
M  V30 27 C 2.689546 -2.262104 -2.262436 0
M  V30 28 N 3.743355 -1.762376 -1.552806 0
M  V30 29 H 2.181749 -0.618456 2.474364 0
M  V30 30 H 3.435133 -1.142430 3.603635 0
M  V30 31 H 3.506999 -1.683666 1.845723 0
M  V30 32 H 3.661405 1.097244 4.244060 0
M  V30 33 H 4.940269 3.123176 4.072749 0
M  V30 34 H 6.149326 3.607565 1.978812 0
M  V30 35 H 6.042061 1.999753 0.050858 0
M  V30 36 H 5.636272 -0.656923 -0.118700 0
M  V30 37 H 2.108755 0.546948 0.308738 0
M  V30 38 H 0.693265 1.836126 -0.387398 0
M  V30 39 H -1.510282 2.820059 0.079572 0
M  V30 40 H -3.999572 -1.072524 -1.756733 0
M  V30 41 H -3.873043 -3.738494 -1.191709 0
M  V30 42 H -4.998119 -5.380379 0.189056 0
M  V30 43 H -6.095281 -4.634720 2.276604 0
M  V30 44 H -6.056656 -2.253561 2.966303 0
M  V30 45 H -5.076187 0.401052 0.743677 0
M  V30 46 H -5.635710 0.028527 2.436581 0
M  V30 47 H -3.879053 0.068807 2.018611 0
M  V30 48 H -1.187258 -1.868219 -1.206215 0
M  V30 49 H 0.527942 -2.109311 -2.584435 0
M  V30 50 H 2.831990 -3.054235 -2.993668 0
M  V30 END ATOM
M  V30 BEGIN BOND
M  V30 1 1 1 2
M  V30 2 2 2 3
M  V30 3 1 3 4
M  V30 4 2 4 5
M  V30 5 1 5 6
M  V30 6 2 6 7
M  V30 7 1 7 8
M  V30 8 1 8 9
M  V30 9 2 9 10
M  V30 10 1 10 11
M  V30 11 1 11 12
M  V30 12 2 12 13
M  V30 13 1 13 14
M  V30 14 2 14 15
M  V30 15 1 15 16
M  V30 16 1 16 17
M  V30 17 1 17 18
M  V30 18 2 18 19
M  V30 19 1 19 20
M  V30 20 2 20 21
M  V30 21 1 21 22
M  V30 22 2 22 23
M  V30 23 1 23 24
M  V30 24 2 16 25
M  V30 25 2 11 26
M  V30 26 1 26 27
M  V30 27 2 27 28
M  V30 28 1 7 2
M  V30 29 1 28 9
M  V30 30 1 25 12
M  V30 31 1 23 18
M  V30 32 1 1 29
M  V30 33 1 1 30
M  V30 34 1 1 31
M  V30 35 1 3 32
M  V30 36 1 4 33
M  V30 37 1 5 34
M  V30 38 1 6 35
M  V30 39 1 8 36
M  V30 40 1 10 37
M  V30 41 1 13 38
M  V30 42 1 14 39
M  V30 43 1 17 40
M  V30 44 1 19 41
M  V30 45 1 20 42
M  V30 46 1 21 43
M  V30 47 1 22 44
M  V30 48 1 24 45
M  V30 49 1 24 46
M  V30 50 1 24 47
M  V30 51 1 25 48
M  V30 52 1 26 49
M  V30 53 1 27 50
M  V30 END BOND
M  V30 END CTAB
M  END
>  <Dataset>  (467) 
ChEMBL_Kinases

>  <Ligand_Instance>  (467) 
nan

>  <PDB_ID>  (467) 
nan

>  <Standardized_SMILES>  (467) 
Cc1ccccc1Nc1cc(-c2ccnc(Nc3ccccc3C)c2)ccn1

>  <Name>  (467) 
nan

>  <Pocket>  (467) 
nan

>  <ATP_Site>  (467) 
nan

>  <Peripheral>  (467) 
nan

>  <Num_H_Atoms_ProtBoundConf>  (467) 
nan

>  <Num_Resolved_Atoms>  (467) 
nan

>  <Num_Not_Resolved_Atoms>  (467) 
nan

$$$$
CHEMBL205570
     RDKit          3D

  0  0  0  0  0  0  0  0  0  0999 V3000
M  V30 BEGIN CTAB
M  V30 COUNTS 52 56 0 0 0
M  V30 BEGIN ATOM
M  V30 1 C 4.436391 -3.675296 3.707350 0
M  V30 2 C 3.170883 -3.733580 3.163613 0
M  V30 3 C 3.023469 -3.758615 1.791676 0
M  V30 4 C 4.159423 -3.723982 1.006580 0
M  V30 5 C 4.307715 -3.735120 -0.444036 0
M  V30 6 N 4.842935 -4.658853 -1.272914 0
M  V30 7 N 4.765767 -4.254691 -2.519922 0
M  V30 8 C 4.178071 -3.062215 -2.507876 0
M  V30 9 C 3.858562 -2.672055 -1.199158 0
M  V30 10 C 3.209977 -1.392872 -0.959218 0
M  V30 11 C 3.994397 -0.306449 -1.344942 0
M  V30 12 C 3.530143 0.983116 -1.188261 0
M  V30 13 N 2.309895 1.169965 -0.657771 0
M  V30 14 C 1.523024 0.150745 -0.273916 0
M  V30 15 C 0.208880 0.433784 0.291971 0
M  V30 16 C -0.642616 -0.567872 0.708094 0
M  V30 17 C -1.876533 -0.245321 1.230269 0
M  V30 18 C -2.335905 1.038530 1.370608 0
M  V30 19 C -3.601403 1.608571 1.877238 0
M  V30 20 N -4.586689 1.891699 0.895857 0
M  V30 21 C -5.764597 2.538828 1.407418 0
M  V30 22 C -6.931556 1.619348 1.274903 0
M  V30 23 C -6.479261 0.525158 0.368923 0
M  V30 24 C -4.978380 0.680893 0.221560 0
M  V30 25 C -1.461730 2.047926 0.944670 0
M  V30 26 C -0.217618 1.738342 0.418122 0
M  V30 27 C 1.985835 -1.133378 -0.430199 0
M  V30 28 N 5.379320 -3.667359 1.572382 0
M  V30 29 C 5.569343 -3.640894 2.923344 0
M  V30 30 H 4.450010 -3.659524 4.799454 0
M  V30 31 H 2.246118 -3.762537 3.707803 0
M  V30 32 H 2.132261 -3.805139 1.221623 0
M  V30 33 H 5.111137 -4.790287 -3.359956 0
M  V30 34 H 3.997908 -2.510971 -3.442001 0
M  V30 35 H 4.989702 -0.364179 -1.780574 0
M  V30 36 H 4.099042 1.865252 -1.471296 0
M  V30 37 H -0.391282 -1.609370 0.646413 0
M  V30 38 H -2.566494 -0.996146 1.579275 0
M  V30 39 H -3.393009 2.480408 2.534603 0
M  V30 40 H -4.087369 0.867075 2.587866 0
M  V30 41 H -6.000116 3.432482 0.755618 0
M  V30 42 H -5.599362 2.947784 2.413592 0
M  V30 43 H -7.173249 1.226308 2.285754 0
M  V30 44 H -7.831720 2.076578 0.807386 0
M  V30 45 H -6.753362 -0.474931 0.816341 0
M  V30 46 H -6.974921 0.516447 -0.622522 0
M  V30 47 H -4.543240 -0.241858 0.645504 0
M  V30 48 H -4.673290 0.678463 -0.847450 0
M  V30 49 H -1.660530 3.121576 0.981841 0
M  V30 50 H 0.470030 2.506075 0.084487 0
M  V30 51 H 1.414938 -2.002494 -0.149542 0
M  V30 52 H 6.523394 -3.595908 3.413106 0
M  V30 END ATOM
M  V30 BEGIN BOND
M  V30 1 2 1 2
M  V30 2 1 2 3
M  V30 3 2 3 4
M  V30 4 1 4 5
M  V30 5 2 5 6
M  V30 6 1 6 7
M  V30 7 1 7 8
M  V30 8 2 8 9
M  V30 9 1 9 10
M  V30 10 2 10 11
M  V30 11 1 11 12
M  V30 12 2 12 13
M  V30 13 1 13 14
M  V30 14 1 14 15
M  V30 15 2 15 16
M  V30 16 1 16 17
M  V30 17 2 17 18
M  V30 18 1 18 19
M  V30 19 1 19 20
M  V30 20 1 20 21
M  V30 21 1 21 22
M  V30 22 1 22 23
M  V30 23 1 23 24
M  V30 24 1 18 25
M  V30 25 2 25 26
M  V30 26 2 14 27
M  V30 27 1 4 28
M  V30 28 2 28 29
M  V30 29 1 29 1
M  V30 30 1 9 5
M  V30 31 1 27 10
M  V30 32 1 26 15
M  V30 33 1 24 20
M  V30 34 1 1 30
M  V30 35 1 2 31
M  V30 36 1 3 32
M  V30 37 1 7 33
M  V30 38 1 8 34
M  V30 39 1 11 35
M  V30 40 1 12 36
M  V30 41 1 16 37
M  V30 42 1 17 38
M  V30 43 1 19 39
M  V30 44 1 19 40
M  V30 45 1 21 41
M  V30 46 1 21 42
M  V30 47 1 22 43
M  V30 48 1 22 44
M  V30 49 1 23 45
M  V30 50 1 23 46
M  V30 51 1 24 47
M  V30 52 1 24 48
M  V30 53 1 25 49
M  V30 54 1 26 50
M  V30 55 1 27 51
M  V30 56 1 29 52
M  V30 END BOND
M  V30 END CTAB
M  END
>  <Dataset>  (468) 
ChEMBL_Kinases

>  <Ligand_Instance>  (468) 
nan

>  <PDB_ID>  (468) 
nan

>  <Standardized_SMILES>  (468) 
c1ccc(-c2n[nH]cc2-c2ccnc(-c3ccc(CN4CCCC4)cc3)c2)nc1

>  <Name>  (468) 
nan

>  <Pocket>  (468) 
nan

>  <ATP_Site>  (468) 
nan

>  <Peripheral>  (468) 
nan

>  <Num_H_Atoms_ProtBoundConf>  (468) 
nan

>  <Num_Resolved_Atoms>  (468) 
nan

>  <Num_Not_Resolved_Atoms>  (468) 
nan

$$$$
CHEMBL205590
     RDKit          3D

  0  0  0  0  0  0  0  0  0  0999 V3000
M  V30 BEGIN CTAB
M  V30 COUNTS 59 61 0 0 0
M  V30 BEGIN ATOM
M  V30 1 C 2.926676 1.465438 4.301304 0
M  V30 2 N 3.497765 0.766068 3.165772 0
M  V30 3 C 4.426023 -0.249974 3.552807 0
M  V30 4 C 2.476111 0.166076 2.324937 0
M  V30 5 C 3.106758 -0.550221 1.158683 0
M  V30 6 O 2.173735 -1.129724 0.340331 0
M  V30 7 C 1.159833 -0.620001 -0.417845 0
M  V30 8 C 0.637757 0.618629 -0.709711 0
M  V30 9 C -0.434976 0.808099 -1.548481 0
M  V30 10 N -0.804701 2.172419 -1.704821 0
M  V30 11 C -0.869523 3.014268 -2.866077 0
M  V30 12 C -2.227110 3.632229 -2.959538 0
M  V30 13 N -3.138091 3.368616 -1.923651 0
M  V30 14 C -4.407083 2.827222 -2.271766 0
M  V30 15 C -2.673697 3.155151 -0.611818 0
M  V30 16 C -1.194632 2.881607 -0.495392 0
M  V30 17 C -1.038749 -0.277484 -2.142262 0
M  V30 18 Cl -2.397558 0.070479 -3.193829 0
M  V30 19 C -0.560756 -1.545957 -1.889388 0
M  V30 20 C 0.530902 -1.715634 -1.033123 0
M  V30 21 N 0.842944 -3.123613 -0.927149 0
M  V30 22 C 0.204774 -3.866312 0.097476 0
M  V30 23 O -0.584459 -3.227758 0.830951 0
M  V30 24 N 0.354574 -5.219755 0.380605 0
M  V30 25 C -0.236086 -6.033108 1.372220 0
M  V30 26 C -1.139757 -5.666920 2.337387 0
M  V30 27 N -1.646905 -6.518345 3.241204 0
M  V30 28 C -1.288696 -7.794078 3.246059 0
M  V30 29 C -1.842798 -8.682833 4.219358 0
M  V30 30 N -2.299163 -9.380807 5.004931 0
M  V30 31 C -0.383564 -8.206975 2.295126 0
M  V30 32 N 0.106717 -7.331871 1.403540 0
M  V30 33 H 2.145212 2.170390 4.020783 0
M  V30 34 H 2.452576 0.732771 4.992007 0
M  V30 35 H 3.769601 2.010727 4.779342 0
M  V30 36 H 4.013191 -1.277222 3.587748 0
M  V30 37 H 4.891162 -0.054527 4.561174 0
M  V30 38 H 5.304767 -0.283493 2.859621 0
M  V30 39 H 1.953907 -0.578925 2.996532 0
M  V30 40 H 1.732349 0.889888 1.986472 0
M  V30 41 H 3.751875 -1.388237 1.567362 0
M  V30 42 H 3.806698 0.112174 0.598008 0
M  V30 43 H 1.185812 1.391798 -0.206355 0
M  V30 44 H -0.495892 2.554588 -3.798866 0
M  V30 45 H -0.162522 3.868401 -2.648360 0
M  V30 46 H -2.667453 3.245934 -3.925587 0
M  V30 47 H -2.184263 4.745757 -3.139138 0
M  V30 48 H -5.195201 3.400657 -1.706292 0
M  V30 49 H -4.533330 1.774444 -1.955113 0
M  V30 50 H -4.528182 2.958577 -3.370859 0
M  V30 51 H -2.944142 3.958101 0.118271 0
M  V30 52 H -3.200071 2.235306 -0.220639 0
M  V30 53 H -0.936686 2.326306 0.422383 0
M  V30 54 H -0.674864 3.862428 -0.465594 0
M  V30 55 H -1.110396 -2.316160 -2.407858 0
M  V30 56 H 1.506051 -3.654583 -1.545392 0
M  V30 57 H 1.030841 -5.627492 -0.295700 0
M  V30 58 H -1.461730 -4.640597 2.374261 0
M  V30 59 H -0.056709 -9.236877 2.253499 0
M  V30 END ATOM
M  V30 BEGIN BOND
M  V30 1 1 1 2
M  V30 2 1 2 3
M  V30 3 1 2 4
M  V30 4 1 4 5
M  V30 5 1 5 6
M  V30 6 1 6 7
M  V30 7 2 7 8
M  V30 8 1 8 9
M  V30 9 1 9 10
M  V30 10 1 10 11
M  V30 11 1 11 12
M  V30 12 1 12 13
M  V30 13 1 13 14
M  V30 14 1 13 15
M  V30 15 1 15 16
M  V30 16 2 9 17
M  V30 17 1 17 18
M  V30 18 1 17 19
M  V30 19 2 19 20
M  V30 20 1 20 21
M  V30 21 1 21 22
M  V30 22 2 22 23
M  V30 23 1 22 24
M  V30 24 1 24 25
M  V30 25 2 25 26
M  V30 26 1 26 27
M  V30 27 2 27 28
M  V30 28 1 28 29
M  V30 29 3 29 30
M  V30 30 1 28 31
M  V30 31 2 31 32
M  V30 32 1 20 7
M  V30 33 1 32 25
M  V30 34 1 16 10
M  V30 35 1 1 33
M  V30 36 1 1 34
M  V30 37 1 1 35
M  V30 38 1 3 36
M  V30 39 1 3 37
M  V30 40 1 3 38
M  V30 41 1 4 39
M  V30 42 1 4 40
M  V30 43 1 5 41
M  V30 44 1 5 42
M  V30 45 1 8 43
M  V30 46 1 11 44
M  V30 47 1 11 45
M  V30 48 1 12 46
M  V30 49 1 12 47
M  V30 50 1 14 48
M  V30 51 1 14 49
M  V30 52 1 14 50
M  V30 53 1 15 51
M  V30 54 1 15 52
M  V30 55 1 16 53
M  V30 56 1 16 54
M  V30 57 1 19 55
M  V30 58 1 21 56
M  V30 59 1 24 57
M  V30 60 1 26 58
M  V30 61 1 31 59
M  V30 END BOND
M  V30 END CTAB
M  END
>  <Dataset>  (469) 
ChEMBL_Kinases

>  <Ligand_Instance>  (469) 
nan

>  <PDB_ID>  (469) 
nan

>  <Standardized_SMILES>  (469) 
CN(C)CCOc1cc(N2CCN(C)CC2)c(Cl)cc1NC(=O)Nc1cnc(C#N)cn1

>  <Name>  (469) 
nan

>  <Pocket>  (469) 
nan

>  <ATP_Site>  (469) 
nan

>  <Peripheral>  (469) 
nan

>  <Num_H_Atoms_ProtBoundConf>  (469) 
nan

>  <Num_Resolved_Atoms>  (469) 
nan

>  <Num_Not_Resolved_Atoms>  (469) 
nan

$$$$
CHEMBL205424
     RDKit          3D

  0  0  0  0  0  0  0  0  0  0999 V3000
M  V30 BEGIN CTAB
M  V30 COUNTS 52 55 0 0 0
M  V30 BEGIN ATOM
M  V30 1 C 1.246363 -3.443067 5.035720 0
M  V30 2 N 2.336866 -2.542629 5.308690 0
M  V30 3 C 1.905358 -1.244907 5.739632 0
M  V30 4 C 3.200350 -2.482160 4.143813 0
M  V30 5 C 2.465828 -1.990138 2.944883 0
M  V30 6 C 2.389190 -0.636866 2.612620 0
M  V30 7 C 1.699082 -0.210580 1.491335 0
M  V30 8 N 1.076910 -1.100948 0.683278 0
M  V30 9 C 0.349834 -0.911626 -0.457800 0
M  V30 10 C 0.088694 0.385131 -1.070379 0
M  V30 11 C 0.550518 0.882349 -2.271762 0
M  V30 12 C 0.194807 2.141872 -2.704306 0
M  V30 13 N -0.613523 2.949433 -1.988910 0
M  V30 14 C -1.060604 2.455029 -0.814923 0
M  V30 15 N -1.916544 3.285824 -0.038777 0
M  V30 16 C -2.253363 4.613744 -0.552074 0
M  V30 17 C -2.432754 2.811385 1.228193 0
M  V30 18 N -0.727667 1.225072 -0.367606 0
M  V30 19 C -0.057184 -2.159028 -0.880910 0
M  V30 20 C -0.861757 -2.481541 -2.054298 0
M  V30 21 C -2.081745 -3.049193 -1.660100 0
M  V30 22 C -3.023227 -3.444343 -2.585919 0
M  V30 23 C -2.770387 -3.282579 -3.920436 0
M  V30 24 F -3.599866 -3.624332 -4.925509 0
M  V30 25 C -1.568911 -2.723149 -4.313200 0
M  V30 26 C -0.626173 -2.327845 -3.385777 0
M  V30 27 N 0.427238 -3.067814 0.004088 0
M  V30 28 C 1.124050 -2.435315 0.967664 0
M  V30 29 C 1.818045 -2.879329 2.097473 0
M  V30 30 H 0.634685 -3.674343 5.913949 0
M  V30 31 H 0.578606 -3.087418 4.228183 0
M  V30 32 H 1.690950 -4.403980 4.690786 0
M  V30 33 H 1.220254 -0.750508 5.030935 0
M  V30 34 H 1.346983 -1.355204 6.687731 0
M  V30 35 H 2.816048 -0.645821 5.947663 0
M  V30 36 H 4.120373 -1.899213 4.336600 0
M  V30 37 H 3.479488 -3.543876 3.928997 0
M  V30 38 H 2.879397 0.077737 3.246979 0
M  V30 39 H 1.665799 0.861585 1.269836 0
M  V30 40 H 1.194382 0.206044 -2.810179 0
M  V30 41 H 0.640661 2.382716 -3.666554 0
M  V30 42 H -3.064762 5.077657 0.026981 0
M  V30 43 H -2.547663 4.460121 -1.626650 0
M  V30 44 H -1.297148 5.191784 -0.519107 0
M  V30 45 H -1.677398 2.794249 2.038283 0
M  V30 46 H -2.800673 1.767966 1.038303 0
M  V30 47 H -3.298350 3.445615 1.513857 0
M  V30 48 H -2.421960 -3.240000 -0.629760 0
M  V30 49 H -3.978636 -3.887043 -2.341284 0
M  V30 50 H -1.304311 -2.565366 -5.352517 0
M  V30 51 H 0.340769 -1.884894 -3.577059 0
M  V30 52 H 1.867420 -3.936799 2.343013 0
M  V30 END ATOM
M  V30 BEGIN BOND
M  V30 1 1 1 2
M  V30 2 1 2 3
M  V30 3 1 2 4
M  V30 4 1 4 5
M  V30 5 1 5 6
M  V30 6 2 6 7
M  V30 7 1 7 8
M  V30 8 1 8 9
M  V30 9 1 9 10
M  V30 10 2 10 11
M  V30 11 1 11 12
M  V30 12 2 12 13
M  V30 13 1 13 14
M  V30 14 1 14 15
M  V30 15 1 15 16
M  V30 16 1 15 17
M  V30 17 2 14 18
M  V30 18 2 9 19
M  V30 19 1 19 20
M  V30 20 2 20 21
M  V30 21 1 21 22
M  V30 22 2 22 23
M  V30 23 1 23 24
M  V30 24 1 23 25
M  V30 25 2 25 26
M  V30 26 1 19 27
M  V30 27 2 27 28
M  V30 28 1 28 29
M  V30 29 2 29 5
M  V30 30 1 28 8
M  V30 31 1 18 10
M  V30 32 1 26 20
M  V30 33 1 1 30
M  V30 34 1 1 31
M  V30 35 1 1 32
M  V30 36 1 3 33
M  V30 37 1 3 34
M  V30 38 1 3 35
M  V30 39 1 4 36
M  V30 40 1 4 37
M  V30 41 1 6 38
M  V30 42 1 7 39
M  V30 43 1 11 40
M  V30 44 1 12 41
M  V30 45 1 16 42
M  V30 46 1 16 43
M  V30 47 1 16 44
M  V30 48 1 17 45
M  V30 49 1 17 46
M  V30 50 1 17 47
M  V30 51 1 21 48
M  V30 52 1 22 49
M  V30 53 1 25 50
M  V30 54 1 26 51
M  V30 55 1 29 52
M  V30 END BOND
M  V30 END CTAB
M  END
>  <Dataset>  (470) 
ChEMBL_Kinases

>  <Ligand_Instance>  (470) 
nan

>  <PDB_ID>  (470) 
nan

>  <Standardized_SMILES>  (470) 
CN(C)Cc1ccn2c(-c3ccnc(N(C)C)n3)c(-c3ccc(F)cc3)nc2c1

>  <Name>  (470) 
nan

>  <Pocket>  (470) 
nan

>  <ATP_Site>  (470) 
nan

>  <Peripheral>  (470) 
nan

>  <Num_H_Atoms_ProtBoundConf>  (470) 
nan

>  <Num_Resolved_Atoms>  (470) 
nan

>  <Num_Not_Resolved_Atoms>  (470) 
nan

$$$$
CHEMBL2071200
     RDKit          3D

  0  0  0  0  0  0  0  0  0  0999 V3000
M  V30 BEGIN CTAB
M  V30 COUNTS 46 49 0 0 0
M  V30 BEGIN ATOM
M  V30 1 C 4.485171 1.315011 -2.231863 0
M  V30 2 N 3.645736 0.194170 -2.615280 0
M  V30 3 C 2.704919 -0.457074 -1.906489 0
M  V30 4 C 2.193766 -1.446762 -2.717417 0
M  V30 5 N 1.181512 -2.377313 -2.387082 0
M  V30 6 C 0.553163 -2.380206 -1.110653 0
M  V30 7 N 1.082326 -3.115701 -0.141074 0
M  V30 8 C 0.489870 -3.117773 1.060268 0
M  V30 9 C -0.643901 -2.400519 1.361200 0
M  V30 10 C -1.348451 -2.337456 2.646360 0
M  V30 11 F -1.325402 -1.029331 3.091409 0
M  V30 12 F -0.684120 -3.071094 3.609122 0
M  V30 13 F -2.625942 -2.842765 2.593825 0
M  V30 14 C -1.198445 -1.625070 0.330551 0
M  V30 15 N -2.331329 -0.811593 0.337779 0
M  V30 16 C -3.132310 0.052818 -0.444726 0 CFG=1
M  V30 17 C -2.486600 1.250517 -1.052836 0 CFG=1
M  V30 18 C -1.019936 1.305367 -0.970707 0
M  V30 19 N -0.575320 1.298752 0.384346 0
M  V30 20 O -0.053712 1.356658 -1.779933 0
M  V30 21 C -3.044280 1.284167 -2.454507 0 CFG=2
M  V30 22 C -4.540613 1.296958 -2.298628 0
M  V30 23 C -5.050012 0.073991 -2.010066 0
M  V30 24 C -3.766599 -0.637562 -1.612351 0 CFG=1
M  V30 25 C -2.946536 -0.219418 -2.792679 0
M  V30 26 N -0.529253 -1.693034 -0.830732 0
M  V30 27 C 2.852974 -1.362210 -3.913374 0
M  V30 28 N 3.737466 -0.350534 -3.828453 0
M  V30 29 H 4.048346 1.747765 -1.292277 0
M  V30 30 H 4.507421 2.084072 -3.012685 0
M  V30 31 H 5.479065 0.915344 -1.965090 0
M  V30 32 H 2.433867 -0.207488 -0.879881 0
M  V30 33 H 0.867053 -3.089346 -3.072900 0
M  V30 34 H 0.815397 -3.676476 1.951077 0
M  V30 35 H -2.724499 -0.900052 1.329582 0
M  V30 36 H -4.055726 0.405642 0.159881 0
M  V30 37 H -2.845726 2.154493 -0.519371 0
M  V30 38 H -0.754560 1.039829 1.382695 0
M  V30 39 H 0.335656 1.694225 0.747444 0
M  V30 40 H -2.626367 1.943694 -3.160350 0
M  V30 41 H -5.027747 2.275737 -2.434890 0
M  V30 42 H -6.127301 -0.003167 -2.143921 0
M  V30 43 H -3.912234 -1.707266 -1.500586 0
M  V30 44 H -1.931955 -0.559638 -2.853650 0
M  V30 45 H -3.530962 -0.357494 -3.735376 0
M  V30 46 H 2.717754 -1.970825 -4.780263 0
M  V30 END ATOM
M  V30 BEGIN BOND
M  V30 1 1 1 2
M  V30 2 1 2 3
M  V30 3 2 3 4
M  V30 4 1 4 5
M  V30 5 1 5 6
M  V30 6 2 6 7
M  V30 7 1 7 8
M  V30 8 2 8 9
M  V30 9 1 9 10
M  V30 10 1 10 11
M  V30 11 1 10 12
M  V30 12 1 10 13
M  V30 13 1 9 14
M  V30 14 1 14 15
M  V30 15 1 15 16
M  V30 16 1 16 17
M  V30 17 1 17 18
M  V30 18 1 18 19
M  V30 19 2 18 20
M  V30 20 1 17 21
M  V30 21 1 21 22
M  V30 22 2 22 23
M  V30 23 1 23 24
M  V30 24 1 24 25
M  V30 25 2 14 26
M  V30 26 1 4 27
M  V30 27 2 27 28
M  V30 28 1 28 2
M  V30 29 1 26 6
M  V30 30 1 24 16
M  V30 31 1 25 21
M  V30 32 1 1 29
M  V30 33 1 1 30
M  V30 34 1 1 31
M  V30 35 1 3 32
M  V30 36 1 5 33
M  V30 37 1 8 34
M  V30 38 1 15 35
M  V30 39 1 16 36 CFG=1
M  V30 40 1 17 37 CFG=1
M  V30 41 1 19 38
M  V30 42 1 19 39
M  V30 43 1 21 40 CFG=3
M  V30 44 1 22 41
M  V30 45 1 23 42
M  V30 46 1 24 43 CFG=1
M  V30 47 1 25 44
M  V30 48 1 25 45
M  V30 49 1 27 46
M  V30 END BOND
M  V30 END CTAB
M  END
>  <Dataset>  (471) 
ChEMBL_Kinases

>  <Ligand_Instance>  (471) 
nan

>  <PDB_ID>  (471) 
nan

>  <Standardized_SMILES>  (471) 
Cn1cc(Nc2ncc(C(F)(F)F)c(N[C@H]3[C@@H](C(N)=O)[C@@H]4C=C[C@H]3C4)n2)cn1

>  <Name>  (471) 
nan

>  <Pocket>  (471) 
nan

>  <ATP_Site>  (471) 
nan

>  <Peripheral>  (471) 
nan

>  <Num_H_Atoms_ProtBoundConf>  (471) 
nan

>  <Num_Resolved_Atoms>  (471) 
nan

>  <Num_Not_Resolved_Atoms>  (471) 
nan

$$$$
CHEMBL2071199
     RDKit          3D

  0  0  0  0  0  0  0  0  0  0999 V3000
M  V30 BEGIN CTAB
M  V30 COUNTS 45 48 0 0 0
M  V30 BEGIN ATOM
M  V30 1 C -0.396504 -4.013500 2.732875 0
M  V30 2 N -1.305558 -3.792067 1.605935 0
M  V30 3 C -2.157703 -2.712614 1.530517 0
M  V30 4 C -2.888551 -2.729839 0.333936 0
M  V30 5 N -3.777280 -1.562553 0.262695 0
M  V30 6 C -2.884773 -0.634257 -0.396423 0
M  V30 7 N -3.032138 -0.273735 -1.689664 0
M  V30 8 C -2.110318 0.538436 -2.285401 0
M  V30 9 C -1.107486 0.901139 -1.457653 0
M  V30 10 N -0.122352 1.721395 -2.014422 0 CHG=1 VAL=4
M  V30 11 O 0.571642 2.114201 -2.970353 0
M  V30 12 O 0.835139 2.517247 -2.527087 0 CHG=-1 VAL=1
M  V30 13 C -0.895562 0.575740 -0.138461 0
M  V30 14 N 0.200145 0.832994 0.725732 0
M  V30 15 C 1.507318 1.388945 0.591047 0 CFG=1
M  V30 16 C 2.339158 1.427410 1.863272 0 CFG=1
M  V30 17 C 1.628986 1.502380 3.127591 0
M  V30 18 N 0.784152 0.591868 3.839571 0
M  V30 19 O 1.426815 2.281296 4.102624 0
M  V30 20 C 3.184244 0.165194 1.784892 0 CFG=2
M  V30 21 C 4.325653 0.430640 0.895687 0
M  V30 22 C 3.725342 0.771080 -0.232665 0
M  V30 23 C 2.295202 0.362916 -0.231364 0 CFG=1
M  V30 24 C 2.353097 -0.711742 0.876923 0
M  V30 25 N -1.864034 -0.233002 0.367184 0
M  V30 26 C -2.423291 -3.867901 -0.281082 0
M  V30 27 N -1.498345 -4.459675 0.498519 0
M  V30 28 H -0.125082 -5.082127 2.825046 0
M  V30 29 H -0.830999 -3.648664 3.682131 0
M  V30 30 H 0.542546 -3.470547 2.515505 0
M  V30 31 H -2.165168 -2.015364 2.380668 0
M  V30 32 H -4.739326 -1.423499 0.574945 0
M  V30 33 H -2.204872 0.833960 -3.324436 0
M  V30 34 H 0.061192 0.572808 1.720723 0
M  V30 35 H 1.551449 2.385433 0.125494 0
M  V30 36 H 3.082826 2.276569 1.815316 0
M  V30 37 H 1.090842 -0.252896 4.354402 0
M  V30 38 H -0.170204 0.365421 4.127546 0
M  V30 39 H 3.399433 -0.271794 2.759999 0
M  V30 40 H 5.425592 0.422971 0.875695 0
M  V30 41 H 4.026245 1.272998 -1.157760 0
M  V30 42 H 1.868279 0.039305 -1.142269 0
M  V30 43 H 2.846517 -1.636523 0.539045 0
M  V30 44 H 1.376513 -0.871901 1.364899 0
M  V30 45 H -2.919949 -4.001150 -1.231229 0
M  V30 END ATOM
M  V30 BEGIN BOND
M  V30 1 1 1 2
M  V30 2 1 2 3
M  V30 3 2 3 4
M  V30 4 1 4 5
M  V30 5 1 5 6
M  V30 6 2 6 7
M  V30 7 1 7 8
M  V30 8 2 8 9
M  V30 9 1 9 10
M  V30 10 2 10 11
M  V30 11 1 10 12
M  V30 12 1 9 13
M  V30 13 1 13 14
M  V30 14 1 14 15
M  V30 15 1 15 16
M  V30 16 1 16 17
M  V30 17 1 17 18
M  V30 18 2 17 19
M  V30 19 1 16 20
M  V30 20 1 20 21
M  V30 21 2 21 22
M  V30 22 1 22 23
M  V30 23 1 23 24
M  V30 24 2 13 25
M  V30 25 1 4 26
M  V30 26 2 26 27
M  V30 27 1 27 2
M  V30 28 1 25 6
M  V30 29 1 23 15
M  V30 30 1 24 20
M  V30 31 1 1 28
M  V30 32 1 1 29
M  V30 33 1 1 30
M  V30 34 1 3 31
M  V30 35 1 5 32
M  V30 36 1 8 33
M  V30 37 1 14 34
M  V30 38 1 15 35 CFG=3
M  V30 39 1 16 36 CFG=3
M  V30 40 1 18 37
M  V30 41 1 18 38
M  V30 42 1 20 39 CFG=1
M  V30 43 1 21 40
M  V30 44 1 22 41
M  V30 45 1 23 42 CFG=3
M  V30 46 1 24 43
M  V30 47 1 24 44
M  V30 48 1 26 45
M  V30 END BOND
M  V30 END CTAB
M  END
>  <Dataset>  (472) 
ChEMBL_Kinases

>  <Ligand_Instance>  (472) 
nan

>  <PDB_ID>  (472) 
nan

>  <Standardized_SMILES>  (472) 
Cn1cc(Nc2ncc([N+](=O)[O-])c(N[C@H]3[C@@H](C(N)=O)[C@@H]4C=C[C@H]3C4)n2)cn1

>  <Name>  (472) 
nan

>  <Pocket>  (472) 
nan

>  <ATP_Site>  (472) 
nan

>  <Peripheral>  (472) 
nan

>  <Num_H_Atoms_ProtBoundConf>  (472) 
nan

>  <Num_Resolved_Atoms>  (472) 
nan

>  <Num_Not_Resolved_Atoms>  (472) 
nan

$$$$
CHEMBL2071198
     RDKit          3D

  0  0  0  0  0  0  0  0  0  0999 V3000
M  V30 BEGIN CTAB
M  V30 COUNTS 47 50 0 0 0
M  V30 BEGIN ATOM
M  V30 1 C -0.834838 -4.903951 3.037603 0
M  V30 2 N -0.546417 -5.018124 1.608441 0
M  V30 3 C -0.332323 -3.999862 0.756580 0
M  V30 4 C -0.087656 -4.444611 -0.521668 0
M  V30 5 N 0.184922 -3.724365 -1.715285 0
M  V30 6 C 0.270890 -2.317391 -1.866277 0
M  V30 7 N 0.527029 -1.703209 -3.000652 0
M  V30 8 C 0.606586 -0.388841 -3.139759 0
M  V30 9 C 0.394869 0.301313 -1.974753 0
M  V30 10 C 0.453096 1.751710 -2.079464 0
M  V30 11 N 0.751982 2.372560 -3.349084 0
M  V30 12 O 0.382579 2.914245 -1.638844 0
M  V30 13 C 0.121599 -0.240117 -0.739925 0
M  V30 14 N -0.081640 0.444757 0.465609 0
M  V30 15 C -0.125704 1.695431 1.119070 0 CFG=1
M  V30 16 C -0.546205 1.628788 2.602632 0 CFG=1
M  V30 17 C -1.397607 0.446766 2.825563 0
M  V30 18 N -1.782350 0.396431 4.215771 0
M  V30 19 O -2.093304 -0.599903 2.792432 0
M  V30 20 C 0.705296 1.641149 3.393659 0 CFG=2
M  V30 21 C 1.134590 3.063954 3.487738 0
M  V30 22 C 1.260400 3.381794 2.178702 0
M  V30 23 C 1.300226 2.163297 1.324894 0 CFG=1
M  V30 24 C 1.728545 1.141941 2.393684 0
M  V30 25 N 0.076355 -1.580648 -0.774929 0
M  V30 26 C -0.164743 -5.812288 -0.404611 0
M  V30 27 N -0.438585 -6.100375 0.877167 0
M  V30 28 H -0.803776 -5.893019 3.507012 0
M  V30 29 H -1.804830 -4.393365 3.228118 0
M  V30 30 H -0.070489 -4.214701 3.502072 0
M  V30 31 H -0.358852 -2.971453 1.080894 0
M  V30 32 H 0.345197 -4.275414 -2.603430 0
M  V30 33 H 0.817816 0.085887 -4.081277 0
M  V30 34 H 0.078402 2.665028 -4.121065 0
M  V30 35 H 1.691560 2.652736 -3.767484 0
M  V30 36 H -0.298748 -0.231975 1.260130 0
M  V30 37 H -0.800514 2.459502 0.699174 0
M  V30 38 H -1.141929 2.511527 2.902461 0
M  V30 39 H -1.738505 0.162391 5.230035 0
M  V30 40 H -2.400994 0.601578 5.053079 0
M  V30 41 H 0.703432 1.106804 4.334831 0
M  V30 42 H 1.351544 3.835329 4.240778 0
M  V30 43 H 1.337628 4.324181 1.624865 0
M  V30 44 H 1.939862 2.184563 0.475789 0
M  V30 45 H 1.591797 0.120460 2.060341 0
M  V30 46 H 2.716127 1.374341 2.813766 0
M  V30 47 H -0.032234 -6.559121 -1.192785 0
M  V30 END ATOM
M  V30 BEGIN BOND
M  V30 1 1 1 2
M  V30 2 1 2 3
M  V30 3 2 3 4
M  V30 4 1 4 5
M  V30 5 1 5 6
M  V30 6 2 6 7
M  V30 7 1 7 8
M  V30 8 2 8 9
M  V30 9 1 9 10
M  V30 10 1 10 11
M  V30 11 2 10 12
M  V30 12 1 9 13
M  V30 13 1 13 14
M  V30 14 1 14 15
M  V30 15 1 15 16
M  V30 16 1 16 17
M  V30 17 1 17 18
M  V30 18 2 17 19
M  V30 19 1 16 20
M  V30 20 1 20 21
M  V30 21 2 21 22
M  V30 22 1 22 23
M  V30 23 1 23 24
M  V30 24 2 13 25
M  V30 25 1 4 26
M  V30 26 2 26 27
M  V30 27 1 27 2
M  V30 28 1 25 6
M  V30 29 1 23 15
M  V30 30 1 24 20
M  V30 31 1 1 28
M  V30 32 1 1 29
M  V30 33 1 1 30
M  V30 34 1 3 31
M  V30 35 1 5 32
M  V30 36 1 8 33
M  V30 37 1 11 34
M  V30 38 1 11 35
M  V30 39 1 14 36
M  V30 40 1 15 37 CFG=3
M  V30 41 1 16 38 CFG=1
M  V30 42 1 18 39
M  V30 43 1 18 40
M  V30 44 1 20 41 CFG=1
M  V30 45 1 21 42
M  V30 46 1 22 43
M  V30 47 1 23 44 CFG=3
M  V30 48 1 24 45
M  V30 49 1 24 46
M  V30 50 1 26 47
M  V30 END BOND
M  V30 END CTAB
M  END
>  <Dataset>  (473) 
ChEMBL_Kinases

>  <Ligand_Instance>  (473) 
nan

>  <PDB_ID>  (473) 
nan

>  <Standardized_SMILES>  (473) 
Cn1cc(Nc2ncc(C(N)=O)c(N[C@H]3[C@@H](C(N)=O)[C@@H]4C=C[C@H]3C4)n2)cn1

>  <Name>  (473) 
nan

>  <Pocket>  (473) 
nan

>  <ATP_Site>  (473) 
nan

>  <Peripheral>  (473) 
nan

>  <Num_H_Atoms_ProtBoundConf>  (473) 
nan

>  <Num_Resolved_Atoms>  (473) 
nan

>  <Num_Not_Resolved_Atoms>  (473) 
nan

$$$$
CHEMBL2071197
     RDKit          3D

  0  0  0  0  0  0  0  0  0  0999 V3000
M  V30 BEGIN CTAB
M  V30 COUNTS 47 50 0 0 0
M  V30 BEGIN ATOM
M  V30 1 C 1.273974 -3.628371 3.759292 0
M  V30 2 O 0.681158 -2.758421 2.822608 0
M  V30 3 C 1.447007 -2.205876 1.811668 0
M  V30 4 C 2.787510 -2.526716 1.746310 0
M  V30 5 N 3.471698 -1.973327 0.761207 0
M  V30 6 C 2.879096 -1.148630 -0.116340 0
M  V30 7 N 3.653192 -0.564560 -1.175551 0
M  V30 8 C 3.219031 0.314807 -2.189015 0
M  V30 9 C 3.957606 0.897813 -3.225014 0
M  V30 10 N 3.103811 1.657282 -3.930865 0
M  V30 11 N 1.882058 1.618779 -3.446580 0
M  V30 12 C 0.761554 2.344405 -4.010987 0
M  V30 13 C 1.941673 0.801491 -2.382398 0
M  V30 14 N 1.582238 -0.834098 -0.058244 0
M  V30 15 C 0.821485 -1.352239 0.908657 0
M  V30 16 N -0.544778 -0.989130 0.947208 0
M  V30 17 C -1.686315 -1.242964 1.773209 0 CFG=1
M  V30 18 C -1.614822 -0.669617 3.162123 0 CFG=1
M  V30 19 C -0.577976 0.382787 3.225702 0
M  V30 20 N -0.480564 1.552907 2.509426 0
M  V30 21 O 0.440323 0.392581 3.978189 0
M  V30 22 C -3.008368 -0.150295 3.373770 0 CFG=2
M  V30 23 C -4.026344 -1.256580 3.255462 0
M  V30 24 C -4.020120 -1.584868 1.961537 0
M  V30 25 C -2.983637 -0.756415 1.269619 0 CFG=1
M  V30 26 C -3.284372 0.527747 2.066486 0
M  V30 27 H 1.626112 -4.515477 3.172523 0
M  V30 28 H 2.180054 -3.200660 4.225231 0
M  V30 29 H 0.536174 -3.936392 4.517793 0
M  V30 30 H 3.234499 -3.198142 2.474309 0
M  V30 31 H 4.682100 -0.810874 -1.221801 0
M  V30 32 H 5.020497 0.731274 -3.380456 0
M  V30 33 H 0.262596 1.654770 -4.731628 0
M  V30 34 H 0.021272 2.609737 -3.226130 0
M  V30 35 H 1.099737 3.250600 -4.538982 0
M  V30 36 H 1.039038 0.623804 -1.826609 0
M  V30 37 H -0.878974 -0.346782 0.171778 0
M  V30 38 H -1.666641 -2.370508 1.914214 0
M  V30 39 H -1.389506 -1.471827 3.923465 0
M  V30 40 H -0.495065 2.439823 2.020747 0
M  V30 41 H 0.305910 1.851024 1.860082 0
M  V30 42 H -3.145055 0.462658 4.256635 0
M  V30 43 H -4.609591 -1.652249 4.106750 0
M  V30 44 H -4.712722 -2.350417 1.604717 0
M  V30 45 H -3.122257 -0.646408 0.218672 0
M  V30 46 H -4.384349 0.705043 1.976275 0
M  V30 47 H -2.689859 1.378240 1.806534 0
M  V30 END ATOM
M  V30 BEGIN BOND
M  V30 1 1 1 2
M  V30 2 1 2 3
M  V30 3 2 3 4
M  V30 4 1 4 5
M  V30 5 2 5 6
M  V30 6 1 6 7
M  V30 7 1 7 8
M  V30 8 1 8 9
M  V30 9 2 9 10
M  V30 10 1 10 11
M  V30 11 1 11 12
M  V30 12 1 11 13
M  V30 13 1 6 14
M  V30 14 2 14 15
M  V30 15 1 15 16
M  V30 16 1 16 17
M  V30 17 1 17 18
M  V30 18 1 18 19
M  V30 19 1 19 20
M  V30 20 2 19 21
M  V30 21 1 18 22
M  V30 22 1 22 23
M  V30 23 2 23 24
M  V30 24 1 24 25
M  V30 25 1 25 26
M  V30 26 1 15 3
M  V30 27 1 25 17
M  V30 28 2 13 8
M  V30 29 1 26 22
M  V30 30 1 1 27
M  V30 31 1 1 28
M  V30 32 1 1 29
M  V30 33 1 4 30
M  V30 34 1 7 31
M  V30 35 1 9 32
M  V30 36 1 12 33
M  V30 37 1 12 34
M  V30 38 1 12 35
M  V30 39 1 13 36
M  V30 40 1 16 37
M  V30 41 1 17 38 CFG=1
M  V30 42 1 18 39 CFG=1
M  V30 43 1 20 40
M  V30 44 1 20 41
M  V30 45 1 22 42 CFG=1
M  V30 46 1 23 43
M  V30 47 1 24 44
M  V30 48 1 25 45 CFG=3
M  V30 49 1 26 46
M  V30 50 1 26 47
M  V30 END BOND
M  V30 END CTAB
M  END
>  <Dataset>  (474) 
ChEMBL_Kinases

>  <Ligand_Instance>  (474) 
nan

>  <PDB_ID>  (474) 
nan

>  <Standardized_SMILES>  (474) 
COc1cnc(Nc2cnn(C)c2)nc1N[C@H]1[C@@H](C(N)=O)[C@@H]2C=C[C@H]1C2

>  <Name>  (474) 
nan

>  <Pocket>  (474) 
nan

>  <ATP_Site>  (474) 
nan

>  <Peripheral>  (474) 
nan

>  <Num_H_Atoms_ProtBoundConf>  (474) 
nan

>  <Num_Resolved_Atoms>  (474) 
nan

>  <Num_Not_Resolved_Atoms>  (474) 
nan

$$$$
CHEMBL2071196
     RDKit          3D

  0  0  0  0  0  0  0  0  0  0999 V3000
M  V30 BEGIN CTAB
M  V30 COUNTS 46 49 0 0 0
M  V30 BEGIN ATOM
M  V30 1 C 0.836307 -4.298487 2.337132 0
M  V30 2 C 1.618667 -3.208655 1.707374 0
M  V30 3 C 2.988718 -3.219808 1.559231 0
M  V30 4 N 3.581914 -2.171086 0.971163 0
M  V30 5 C 2.939910 -1.086374 0.503760 0
M  V30 6 N 3.664916 -0.026330 -0.104080 0
M  V30 7 C 3.049097 1.142023 -0.627196 0
M  V30 8 C 1.718392 1.495749 -0.681784 0
M  V30 9 N 1.628477 2.715623 -1.277015 0
M  V30 10 N 2.833206 3.141695 -1.596763 0
M  V30 11 C 3.044744 4.427305 -2.251843 0
M  V30 12 C 3.700010 2.206965 -1.212842 0
M  V30 13 N 1.606903 -1.113888 0.667042 0
M  V30 14 C 0.913586 -2.105437 1.237921 0
M  V30 15 N -0.524235 -2.042306 1.366134 0
M  V30 16 C -1.379941 -0.961334 0.929888 0 CFG=1
M  V30 17 C -2.856373 -1.222561 1.180805 0 CFG=1
M  V30 18 C -3.156965 -2.616331 1.543274 0
M  V30 19 N -2.830885 -3.609421 0.556202 0
M  V30 20 O -3.559446 -3.577423 2.241611 0
M  V30 21 C -3.219249 -0.199667 2.188301 0 CFG=2
M  V30 22 C -3.263099 1.121805 1.462872 0
M  V30 23 C -2.002755 1.341102 1.089919 0
M  V30 24 C -1.104303 0.314649 1.693124 0 CFG=1
M  V30 25 C -1.928337 -0.004880 2.954602 0
M  V30 26 H 0.247155 -3.941748 3.211211 0
M  V30 27 H 0.148683 -4.761452 1.574323 0
M  V30 28 H 1.524868 -5.100260 2.674670 0
M  V30 29 H 3.533582 -4.079852 1.925783 0
M  V30 30 H 4.696395 -0.116067 -0.166158 0
M  V30 31 H 0.887453 0.912376 -0.318706 0
M  V30 32 H 2.769785 4.279453 -3.334972 0
M  V30 33 H 4.125774 4.687155 -2.186509 0
M  V30 34 H 2.407039 5.207330 -1.827715 0
M  V30 35 H 4.781493 2.286414 -1.350036 0
M  V30 36 H -0.988733 -2.837873 1.811575 0
M  V30 37 H -1.260649 -0.734120 -0.144366 0
M  V30 38 H -3.459259 -1.003266 0.263982 0
M  V30 39 H -2.121117 -4.265511 0.160185 0
M  V30 40 H -3.258420 -4.126749 -0.267696 0
M  V30 41 H -4.085345 -0.384161 2.811790 0
M  V30 42 H -4.128699 1.762956 1.279128 0
M  V30 43 H -1.636403 2.140477 0.441058 0
M  V30 44 H -0.091869 0.585049 1.862033 0
M  V30 45 H -1.939269 0.905542 3.583887 0
M  V30 46 H -1.563428 -0.905093 3.445602 0
M  V30 END ATOM
M  V30 BEGIN BOND
M  V30 1 1 1 2
M  V30 2 2 2 3
M  V30 3 1 3 4
M  V30 4 2 4 5
M  V30 5 1 5 6
M  V30 6 1 6 7
M  V30 7 1 7 8
M  V30 8 2 8 9
M  V30 9 1 9 10
M  V30 10 1 10 11
M  V30 11 1 10 12
M  V30 12 1 5 13
M  V30 13 2 13 14
M  V30 14 1 14 15
M  V30 15 1 15 16
M  V30 16 1 16 17
M  V30 17 1 17 18
M  V30 18 1 18 19
M  V30 19 2 18 20
M  V30 20 1 17 21
M  V30 21 1 21 22
M  V30 22 2 22 23
M  V30 23 1 23 24
M  V30 24 1 24 25
M  V30 25 1 14 2
M  V30 26 1 24 16
M  V30 27 2 12 7
M  V30 28 1 25 21
M  V30 29 1 1 26
M  V30 30 1 1 27
M  V30 31 1 1 28
M  V30 32 1 3 29
M  V30 33 1 6 30
M  V30 34 1 8 31
M  V30 35 1 11 32
M  V30 36 1 11 33
M  V30 37 1 11 34
M  V30 38 1 12 35
M  V30 39 1 15 36
M  V30 40 1 16 37 CFG=3
M  V30 41 1 17 38 CFG=3
M  V30 42 1 19 39
M  V30 43 1 19 40
M  V30 44 1 21 41 CFG=1
M  V30 45 1 22 42
M  V30 46 1 23 43
M  V30 47 1 24 44 CFG=1
M  V30 48 1 25 45
M  V30 49 1 25 46
M  V30 END BOND
M  V30 END CTAB
M  END
>  <Dataset>  (475) 
ChEMBL_Kinases

>  <Ligand_Instance>  (475) 
nan

>  <PDB_ID>  (475) 
nan

>  <Standardized_SMILES>  (475) 
Cc1cnc(Nc2cnn(C)c2)nc1N[C@H]1[C@@H](C(N)=O)[C@@H]2C=C[C@H]1C2

>  <Name>  (475) 
nan

>  <Pocket>  (475) 
nan

>  <ATP_Site>  (475) 
nan

>  <Peripheral>  (475) 
nan

>  <Num_H_Atoms_ProtBoundConf>  (475) 
nan

>  <Num_Resolved_Atoms>  (475) 
nan

>  <Num_Not_Resolved_Atoms>  (475) 
nan

$$$$
CHEMBL2071195
     RDKit          3D

  0  0  0  0  0  0  0  0  0  0999 V3000
M  V30 BEGIN CTAB
M  V30 COUNTS 43 46 0 0 0
M  V30 BEGIN ATOM
M  V30 1 C -3.115209 -6.609729 3.159953 0
M  V30 2 N -1.934061 -5.787919 3.043622 0
M  V30 3 C -1.782361 -4.653628 2.341199 0
M  V30 4 C -0.501735 -4.163855 2.483230 0
M  V30 5 N 0.102385 -3.004284 1.929739 0
M  V30 6 C -0.595655 -2.110206 1.076258 0
M  V30 7 N -1.857483 -2.227730 0.692108 0
M  V30 8 C -2.522501 -1.386344 -0.114023 0
M  V30 9 C -1.855703 -0.284614 -0.605782 0
M  V30 10 C -0.538186 -0.120441 -0.232391 0
M  V30 11 N 0.217754 0.992954 -0.699209 0
M  V30 12 C 1.581588 1.153881 -0.306840 0 CFG=1
M  V30 13 C 2.244257 2.397969 -0.894868 0 CFG=1
M  V30 14 C 1.197292 3.390894 -1.249851 0
M  V30 15 N 1.921603 4.517521 -1.784830 0
M  V30 16 O 0.270688 4.183254 -1.526815 0
M  V30 17 C 3.005035 2.919190 0.275720 0 CFG=2
M  V30 18 C 3.951163 1.892913 0.787367 0
M  V30 19 C 3.257836 0.912214 1.409005 0
M  V30 20 C 1.821403 1.254946 1.166146 0 CFG=1
M  V30 21 C 1.915867 2.761562 1.353050 0
M  V30 22 N 0.016938 -1.025552 0.576030 0
M  V30 23 C 0.096148 -5.084735 3.317733 0
M  V30 24 N -0.788455 -6.045570 3.635642 0
M  V30 25 H -3.806846 -6.236746 3.962045 0
M  V30 26 H -3.699519 -6.582992 2.207410 0
M  V30 27 H -2.806625 -7.660152 3.331795 0
M  V30 28 H -2.570365 -4.216702 1.760444 0
M  V30 29 H 1.095447 -2.803108 2.159397 0
M  V30 30 H -3.544051 -1.509380 -0.406385 0
M  V30 31 H -2.254772 0.475445 -1.260043 0
M  V30 32 H -0.194369 1.695695 -1.319804 0
M  V30 33 H 2.202744 0.284913 -0.662413 0
M  V30 34 H 2.861877 2.128123 -1.778982 0
M  V30 35 H 2.482808 5.175149 -2.398016 0
M  V30 36 H 2.482250 5.200802 -2.373143 0
M  V30 37 H 3.405128 3.916524 0.213069 0
M  V30 38 H 5.048641 1.840819 0.726190 0
M  V30 39 H 3.630777 0.043176 1.974972 0
M  V30 40 H 1.113911 0.774370 1.825687 0
M  V30 41 H 2.309567 3.035855 2.346303 0
M  V30 42 H 1.007054 3.290418 1.048365 0
M  V30 43 H 1.102703 -5.104284 3.699708 0
M  V30 END ATOM
M  V30 BEGIN BOND
M  V30 1 1 1 2
M  V30 2 1 2 3
M  V30 3 2 3 4
M  V30 4 1 4 5
M  V30 5 1 5 6
M  V30 6 2 6 7
M  V30 7 1 7 8
M  V30 8 2 8 9
M  V30 9 1 9 10
M  V30 10 1 10 11
M  V30 11 1 11 12
M  V30 12 1 12 13
M  V30 13 1 13 14
M  V30 14 1 14 15
M  V30 15 2 14 16
M  V30 16 1 13 17
M  V30 17 1 17 18
M  V30 18 2 18 19
M  V30 19 1 19 20
M  V30 20 1 20 21
M  V30 21 2 10 22
M  V30 22 1 4 23
M  V30 23 2 23 24
M  V30 24 1 24 2
M  V30 25 1 22 6
M  V30 26 1 20 12
M  V30 27 1 21 17
M  V30 28 1 1 25
M  V30 29 1 1 26
M  V30 30 1 1 27
M  V30 31 1 3 28
M  V30 32 1 5 29
M  V30 33 1 8 30
M  V30 34 1 9 31
M  V30 35 1 11 32
M  V30 36 1 12 33 CFG=3
M  V30 37 1 13 34 CFG=3
M  V30 38 1 15 35
M  V30 39 1 15 36
M  V30 40 1 17 37 CFG=3
M  V30 41 1 18 38
M  V30 42 1 19 39
M  V30 43 1 20 40 CFG=1
M  V30 44 1 21 41
M  V30 45 1 21 42
M  V30 46 1 23 43
M  V30 END BOND
M  V30 END CTAB
M  END
>  <Dataset>  (476) 
ChEMBL_Kinases

>  <Ligand_Instance>  (476) 
nan

>  <PDB_ID>  (476) 
nan

>  <Standardized_SMILES>  (476) 
Cn1cc(Nc2nccc(N[C@H]3[C@@H](C(N)=O)[C@@H]4C=C[C@H]3C4)n2)cn1

>  <Name>  (476) 
nan

>  <Pocket>  (476) 
nan

>  <ATP_Site>  (476) 
nan

>  <Peripheral>  (476) 
nan

>  <Num_H_Atoms_ProtBoundConf>  (476) 
nan

>  <Num_Resolved_Atoms>  (476) 
nan

>  <Num_Not_Resolved_Atoms>  (476) 
nan

$$$$
CHEMBL2071194
     RDKit          3D

  0  0  0  0  0  0  0  0  0  0999 V3000
M  V30 BEGIN CTAB
M  V30 COUNTS 43 46 0 0 0
M  V30 BEGIN ATOM
M  V30 1 C -0.868716 -4.395300 2.444270 0
M  V30 2 N -1.095822 -3.175209 3.193744 0
M  V30 3 C -1.142714 -1.911816 2.726337 0
M  V30 4 C -1.379163 -0.988823 3.741655 0
M  V30 5 N -1.458398 0.400096 3.540072 0
M  V30 6 C -1.077901 1.184026 2.440053 0
M  V30 7 N -1.438047 2.469949 2.561957 0
M  V30 8 C -1.182818 3.423617 1.663015 0
M  V30 9 C -0.499191 2.973114 0.564604 0
M  V30 10 F -0.237583 3.962452 -0.361198 0
M  V30 11 C -0.103446 1.633363 0.399887 0
M  V30 12 N 0.594744 1.332227 -0.800633 0
M  V30 13 C 1.227959 0.242136 -1.449475 0 CFG=1
M  V30 14 C 2.524401 -0.231350 -0.827085 0 CFG=1
M  V30 15 C 2.670591 0.080251 0.598386 0
M  V30 16 N 2.704058 1.389162 1.117514 0
M  V30 17 O 2.798808 -0.580394 1.685547 0
M  V30 18 C 2.429229 -1.732940 -1.000618 0 CFG=2
M  V30 19 C 2.128738 -2.093097 -2.417091 0
M  V30 20 C 0.849928 -1.782148 -2.711193 0
M  V30 21 C 0.379442 -1.005751 -1.503462 0 CFG=1
M  V30 22 C 0.995102 -1.896205 -0.447868 0
M  V30 23 N -0.409792 0.749746 1.364378 0
M  V30 24 C -1.470024 -1.803553 4.849484 0
M  V30 25 N -1.298837 -3.081585 4.493409 0
M  V30 26 H -1.817516 -4.826523 2.098784 0
M  V30 27 H -0.187955 -4.239564 1.575020 0
M  V30 28 H -0.399685 -5.176654 3.104295 0
M  V30 29 H -1.023000 -1.646164 1.688566 0
M  V30 30 H -1.888191 0.817147 4.419918 0
M  V30 31 H -1.482441 4.451390 1.782953 0
M  V30 32 H 0.719460 2.155760 -1.475904 0
M  V30 33 H 1.449678 0.459392 -2.540997 0
M  V30 34 H 3.399694 0.137671 -1.413905 0
M  V30 35 H 2.322017 1.928834 1.917794 0
M  V30 36 H 3.255802 2.144267 0.634871 0
M  V30 37 H 3.159038 -2.328758 -0.495862 0
M  V30 38 H 2.962217 -2.539513 -2.981365 0
M  V30 39 H 0.551297 -2.170283 -3.696636 0
M  V30 40 H -0.687854 -0.861851 -1.452354 0
M  V30 41 H 0.658482 -2.948485 -0.545626 0
M  V30 42 H 0.999944 -1.504930 0.558634 0
M  V30 43 H -1.656569 -1.393084 5.844918 0
M  V30 END ATOM
M  V30 BEGIN BOND
M  V30 1 1 1 2
M  V30 2 1 2 3
M  V30 3 2 3 4
M  V30 4 1 4 5
M  V30 5 1 5 6
M  V30 6 2 6 7
M  V30 7 1 7 8
M  V30 8 2 8 9
M  V30 9 1 9 10
M  V30 10 1 9 11
M  V30 11 1 11 12
M  V30 12 1 12 13
M  V30 13 1 13 14
M  V30 14 1 14 15
M  V30 15 1 15 16
M  V30 16 2 15 17
M  V30 17 1 14 18
M  V30 18 1 18 19
M  V30 19 2 19 20
M  V30 20 1 20 21
M  V30 21 1 21 22
M  V30 22 2 11 23
M  V30 23 1 4 24
M  V30 24 2 24 25
M  V30 25 1 25 2
M  V30 26 1 23 6
M  V30 27 1 21 13
M  V30 28 1 22 18
M  V30 29 1 1 26
M  V30 30 1 1 27
M  V30 31 1 1 28
M  V30 32 1 3 29
M  V30 33 1 5 30
M  V30 34 1 8 31
M  V30 35 1 12 32
M  V30 36 1 13 33 CFG=3
M  V30 37 1 14 34 CFG=3
M  V30 38 1 16 35
M  V30 39 1 16 36
M  V30 40 1 18 37 CFG=1
M  V30 41 1 19 38
M  V30 42 1 20 39
M  V30 43 1 21 40 CFG=1
M  V30 44 1 22 41
M  V30 45 1 22 42
M  V30 46 1 24 43
M  V30 END BOND
M  V30 END CTAB
M  END
>  <Dataset>  (477) 
ChEMBL_Kinases

>  <Ligand_Instance>  (477) 
nan

>  <PDB_ID>  (477) 
nan

>  <Standardized_SMILES>  (477) 
Cn1cc(Nc2ncc(F)c(N[C@H]3[C@@H](C(N)=O)[C@@H]4C=C[C@H]3C4)n2)cn1

>  <Name>  (477) 
nan

>  <Pocket>  (477) 
nan

>  <ATP_Site>  (477) 
nan

>  <Peripheral>  (477) 
nan

>  <Num_H_Atoms_ProtBoundConf>  (477) 
nan

>  <Num_Resolved_Atoms>  (477) 
nan

>  <Num_Not_Resolved_Atoms>  (477) 
nan

$$$$
CHEMBL207113
     RDKit          3D

  0  0  0  0  0  0  0  0  0  0999 V3000
M  V30 BEGIN CTAB
M  V30 COUNTS 38 40 0 0 0
M  V30 BEGIN ATOM
M  V30 1 C 0.430043 -5.474062 0.871499 0
M  V30 2 C 0.134732 -4.079721 1.286202 0
M  V30 3 C 1.107230 -3.102514 1.286081 0
M  V30 4 C 0.966773 -1.777656 1.645140 0
M  V30 5 C 2.156556 -0.868561 1.479253 0
M  V30 6 O 2.221437 -0.278831 0.275957 0
M  V30 7 C 1.703934 0.469500 -0.646127 0
M  V30 8 C 0.556167 1.176398 -0.884479 0
M  V30 9 C 0.244792 1.923656 -1.995130 0
M  V30 10 C 1.219325 1.944321 -2.963413 0
M  V30 11 C 0.923619 2.717866 -4.138275 0
M  V30 12 N 0.703910 3.325115 -5.082699 0
M  V30 13 C 2.445538 1.275680 -2.873877 0
M  V30 14 C 2.646127 0.545707 -1.689101 0
M  V30 15 C -0.296198 -1.377520 2.057327 0
M  V30 16 C -0.646741 -0.130801 2.474595 0
M  V30 17 N 0.178532 1.024109 2.602737 0
M  V30 18 C -1.980110 0.055479 2.867540 0
M  V30 19 C -2.698117 1.242883 3.362259 0
M  V30 20 N -4.055383 1.108159 3.677902 0
M  V30 21 O -2.072549 2.301729 3.476409 0
M  V30 22 S -2.679631 -1.531684 2.634836 0
M  V30 23 C -1.238154 -2.341967 2.052291 0
M  V30 24 N -1.063517 -3.625620 1.692987 0
M  V30 25 H 1.525173 -5.564326 0.781720 0
M  V30 26 H -0.069730 -5.623251 -0.113744 0
M  V30 27 H 0.065295 -6.216778 1.610070 0
M  V30 28 H 2.108912 -3.434400 0.957710 0
M  V30 29 H 2.238121 -0.192438 2.368864 0
M  V30 30 H 3.063200 -1.534675 1.599879 0
M  V30 31 H -0.162396 1.101609 -0.090431 0
M  V30 32 H -0.701179 2.436083 -2.059787 0
M  V30 33 H 3.114250 1.382077 -3.712466 0
M  V30 34 H 3.646839 0.084881 -1.776270 0
M  V30 35 H 0.369412 1.520698 3.510248 0
M  V30 36 H 0.758719 1.659831 2.020690 0
M  V30 37 H -4.640513 1.314502 4.525979 0
M  V30 38 H -4.749700 0.723389 2.989806 0
M  V30 END ATOM
M  V30 BEGIN BOND
M  V30 1 1 1 2
M  V30 2 2 2 3
M  V30 3 1 3 4
M  V30 4 1 4 5
M  V30 5 1 5 6
M  V30 6 1 6 7
M  V30 7 2 7 8
M  V30 8 1 8 9
M  V30 9 2 9 10
M  V30 10 1 10 11
M  V30 11 3 11 12
M  V30 12 1 10 13
M  V30 13 2 13 14
M  V30 14 2 4 15
M  V30 15 1 15 16
M  V30 16 1 16 17
M  V30 17 2 16 18
M  V30 18 1 18 19
M  V30 19 1 19 20
M  V30 20 2 19 21
M  V30 21 1 18 22
M  V30 22 1 22 23
M  V30 23 2 23 24
M  V30 24 1 24 2
M  V30 25 1 14 7
M  V30 26 1 23 15
M  V30 27 1 1 25
M  V30 28 1 1 26
M  V30 29 1 1 27
M  V30 30 1 3 28
M  V30 31 1 5 29
M  V30 32 1 5 30
M  V30 33 1 8 31
M  V30 34 1 9 32
M  V30 35 1 13 33
M  V30 36 1 14 34
M  V30 37 1 17 35
M  V30 38 1 17 36
M  V30 39 1 20 37
M  V30 40 1 20 38
M  V30 END BOND
M  V30 END CTAB
M  END
>  <Dataset>  (478) 
ChEMBL_Kinases

>  <Ligand_Instance>  (478) 
nan

>  <PDB_ID>  (478) 
nan

>  <Standardized_SMILES>  (478) 
Cc1cc(COc2ccc(C#N)cc2)c2c(N)c(C(N)=O)sc2n1

>  <Name>  (478) 
nan

>  <Pocket>  (478) 
nan

>  <ATP_Site>  (478) 
nan

>  <Peripheral>  (478) 
nan

>  <Num_H_Atoms_ProtBoundConf>  (478) 
nan

>  <Num_Resolved_Atoms>  (478) 
nan

>  <Num_Not_Resolved_Atoms>  (478) 
nan

$$$$
CHEMBL2070716
     RDKit          3D

  0  0  0  0  0  0  0  0  0  0999 V3000
M  V30 BEGIN CTAB
M  V30 COUNTS 45 47 0 0 0
M  V30 BEGIN ATOM
M  V30 1 N 5.339917 -5.746288 -0.941269 0
M  V30 2 C 4.183489 -5.647077 -1.098106 0
M  V30 3 C 2.748735 -5.521807 -1.270270 0
M  V30 4 C 2.045656 -6.518638 -1.906962 0
M  V30 5 C 0.681780 -6.388698 -2.064955 0
M  V30 6 C -0.020864 -5.293320 -1.609588 0
M  V30 7 C 0.768026 -4.363158 -0.993511 0
M  V30 8 C 0.078209 -3.137128 -0.468010 0
M  V30 9 C -1.235324 -2.700102 -0.457666 0
M  V30 10 C -1.497154 -1.508940 0.120595 0
M  V30 11 N -2.865421 -1.038069 0.139543 0
M  V30 12 C -3.222252 -0.247115 -1.006540 0
M  V30 13 N -4.568408 0.227121 -1.006981 0
M  V30 14 O -2.176735 -0.191757 -1.736060 0
M  V30 15 C -0.506847 -0.799862 0.654833 0
M  V30 16 C -0.611913 0.544867 1.339337 0
M  V30 17 O -1.718847 1.075076 1.432874 0
M  V30 18 N 0.603797 1.097075 1.828828 0
M  V30 19 C 0.613184 2.372504 2.496228 0 CFG=1
M  V30 20 C 1.089061 2.280471 3.910201 0
M  V30 21 C 1.679773 3.569138 4.361601 0
M  V30 22 C 1.093700 4.799595 3.715662 0
M  V30 23 N 1.092124 4.730890 2.276960 0
M  V30 24 C 1.412875 3.412536 1.778095 0
M  V30 25 S 0.922136 -1.712587 0.415345 0
M  V30 26 C 2.120901 -4.399146 -0.788288 0
M  V30 27 H 2.550400 -7.409096 -2.288216 0
M  V30 28 H 0.075337 -7.156844 -2.566234 0
M  V30 29 H -1.078401 -5.113279 -1.690709 0
M  V30 30 H -1.892649 -3.411379 -0.937883 0
M  V30 31 H -3.486175 -1.297243 0.962509 0
M  V30 32 H -4.562262 0.778365 -1.905355 0
M  V30 33 H -4.583034 0.785884 -1.905691 0
M  V30 34 H 1.511758 0.585999 1.712344 0
M  V30 35 H -0.435642 2.739354 2.515083 0
M  V30 36 H 1.859360 1.467746 3.982175 0
M  V30 37 H 0.230098 1.944415 4.538591 0
M  V30 38 H 1.523548 3.668626 5.458543 0
M  V30 39 H 2.794788 3.577359 4.241196 0
M  V30 40 H 0.107353 4.992919 4.137469 0
M  V30 41 H 1.762023 5.637298 4.004440 0
M  V30 42 H 0.126775 4.940756 1.925005 0
M  V30 43 H 2.487139 3.252769 1.991979 0
M  V30 44 H 1.147992 3.338681 0.703393 0
M  V30 45 H 2.640825 -3.590916 -0.280391 0
M  V30 END ATOM
M  V30 BEGIN BOND
M  V30 1 3 1 2
M  V30 2 1 2 3
M  V30 3 2 3 4
M  V30 4 1 4 5
M  V30 5 2 5 6
M  V30 6 1 6 7
M  V30 7 1 7 8
M  V30 8 2 8 9
M  V30 9 1 9 10
M  V30 10 1 10 11
M  V30 11 1 11 12
M  V30 12 1 12 13
M  V30 13 2 12 14
M  V30 14 2 10 15
M  V30 15 1 15 16
M  V30 16 2 16 17
M  V30 17 1 16 18
M  V30 18 1 18 19
M  V30 19 1 19 20
M  V30 20 1 20 21
M  V30 21 1 21 22
M  V30 22 1 22 23
M  V30 23 1 23 24
M  V30 24 1 15 25
M  V30 25 2 7 26
M  V30 26 1 26 3
M  V30 27 1 25 8
M  V30 28 1 24 19
M  V30 29 1 4 27
M  V30 30 1 5 28
M  V30 31 1 6 29
M  V30 32 1 9 30
M  V30 33 1 11 31
M  V30 34 1 13 32
M  V30 35 1 13 33
M  V30 36 1 18 34
M  V30 37 1 19 35 CFG=1
M  V30 38 1 20 36
M  V30 39 1 20 37
M  V30 40 1 21 38
M  V30 41 1 21 39
M  V30 42 1 22 40
M  V30 43 1 22 41
M  V30 44 1 23 42
M  V30 45 1 24 43
M  V30 46 1 24 44
M  V30 47 1 26 45
M  V30 END BOND
M  V30 END CTAB
M  END
>  <Dataset>  (479) 
ChEMBL_Kinases

>  <Ligand_Instance>  (479) 
nan

>  <PDB_ID>  (479) 
nan

>  <Standardized_SMILES>  (479) 
N#Cc1cccc(-c2cc(NC(N)=O)c(C(=O)N[C@H]3CCCNC3)s2)c1

>  <Name>  (479) 
nan

>  <Pocket>  (479) 
nan

>  <ATP_Site>  (479) 
nan

>  <Peripheral>  (479) 
nan

>  <Num_H_Atoms_ProtBoundConf>  (479) 
nan

>  <Num_Resolved_Atoms>  (479) 
nan

>  <Num_Not_Resolved_Atoms>  (479) 
nan

$$$$
CHEMBL2070715
     RDKit          3D

  0  0  0  0  0  0  0  0  0  0999 V3000
M  V30 BEGIN CTAB
M  V30 COUNTS 45 47 0 0 0
M  V30 BEGIN ATOM
M  V30 1 N -0.475702 -8.263462 2.983823 0
M  V30 2 C -0.074213 -7.182528 2.923391 0
M  V30 3 C 0.427931 -5.848402 2.868788 0
M  V30 4 C 1.501105 -5.505555 3.659162 0
M  V30 5 C 2.030849 -4.238021 3.652144 0
M  V30 6 C 1.526082 -3.231847 2.858227 0
M  V30 7 C 0.452481 -3.617796 2.083076 0
M  V30 8 C -0.210356 -2.663656 1.173275 0
M  V30 9 C 0.063074 -1.294396 0.911005 0
M  V30 10 C -0.734185 -0.664017 0.003737 0
M  V30 11 C -0.489774 0.739929 -0.295837 0
M  V30 12 O -1.238512 1.294105 -1.134198 0
M  V30 13 N 0.528405 1.543735 0.280900 0
M  V30 14 C 0.737098 2.933537 -0.043999 0 CFG=1
M  V30 15 C 0.674829 3.757543 1.212129 0
M  V30 16 C 2.031235 4.333213 1.577264 0
M  V30 17 C 3.022240 3.193031 1.608652 0
M  V30 18 N 3.157752 2.675012 0.273522 0
M  V30 19 C 2.130120 3.110759 -0.641054 0
M  V30 20 C -1.734898 -1.386414 -0.587605 0
M  V30 21 N -2.694251 -1.002001 -1.544027 0
M  V30 22 C -3.652545 -1.930151 -2.024857 0
M  V30 23 N -4.666623 -1.684199 -2.977840 0
M  V30 24 O -3.727021 -3.147808 -1.647943 0
M  V30 25 S -1.667772 -3.022494 0.061328 0
M  V30 26 C -0.098962 -4.882766 2.070678 0
M  V30 27 H 1.996979 -6.205341 4.334711 0
M  V30 28 H 2.885301 -3.917685 4.264302 0
M  V30 29 H 1.815663 -2.217269 2.738048 0
M  V30 30 H 0.895332 -0.907725 1.480240 0
M  V30 31 H 1.156398 1.092600 0.979130 0
M  V30 32 H 0.031844 3.316221 -0.783342 0
M  V30 33 H 0.006524 4.649496 1.034845 0
M  V30 34 H 0.328122 3.161130 2.076751 0
M  V30 35 H 2.375409 5.095173 0.853761 0
M  V30 36 H 1.951992 4.771586 2.594471 0
M  V30 37 H 4.009496 3.520071 1.991899 0
M  V30 38 H 2.632842 2.451309 2.328847 0
M  V30 39 H 3.363366 1.665407 0.240192 0
M  V30 40 H 2.207438 2.418539 -1.528166 0
M  V30 41 H 2.279851 4.142177 -0.957935 0
M  V30 42 H -2.850644 -0.106334 -2.001191 0
M  V30 43 H -5.513803 -1.130385 -2.705550 0
M  V30 44 H -4.619798 -2.034894 -3.974641 0
M  V30 45 H -0.941867 -5.152430 1.450035 0
M  V30 END ATOM
M  V30 BEGIN BOND
M  V30 1 3 1 2
M  V30 2 1 2 3
M  V30 3 2 3 4
M  V30 4 1 4 5
M  V30 5 2 5 6
M  V30 6 1 6 7
M  V30 7 1 7 8
M  V30 8 2 8 9
M  V30 9 1 9 10
M  V30 10 1 10 11
M  V30 11 2 11 12
M  V30 12 1 11 13
M  V30 13 1 13 14
M  V30 14 1 14 15
M  V30 15 1 15 16
M  V30 16 1 16 17
M  V30 17 1 17 18
M  V30 18 1 18 19
M  V30 19 2 10 20
M  V30 20 1 20 21
M  V30 21 1 21 22
M  V30 22 1 22 23
M  V30 23 2 22 24
M  V30 24 1 20 25
M  V30 25 2 7 26
M  V30 26 1 26 3
M  V30 27 1 25 8
M  V30 28 1 19 14
M  V30 29 1 4 27
M  V30 30 1 5 28
M  V30 31 1 6 29
M  V30 32 1 9 30
M  V30 33 1 13 31
M  V30 34 1 14 32 CFG=3
M  V30 35 1 15 33
M  V30 36 1 15 34
M  V30 37 1 16 35
M  V30 38 1 16 36
M  V30 39 1 17 37
M  V30 40 1 17 38
M  V30 41 1 18 39
M  V30 42 1 19 40
M  V30 43 1 19 41
M  V30 44 1 21 42
M  V30 45 1 23 43
M  V30 46 1 23 44
M  V30 47 1 26 45
M  V30 END BOND
M  V30 END CTAB
M  END
>  <Dataset>  (480) 
ChEMBL_Kinases

>  <Ligand_Instance>  (480) 
nan

>  <PDB_ID>  (480) 
nan

>  <Standardized_SMILES>  (480) 
N#Cc1cccc(-c2cc(C(=O)N[C@H]3CCCNC3)c(NC(N)=O)s2)c1

>  <Name>  (480) 
nan

>  <Pocket>  (480) 
nan

>  <ATP_Site>  (480) 
nan

>  <Peripheral>  (480) 
nan

>  <Num_H_Atoms_ProtBoundConf>  (480) 
nan

>  <Num_Resolved_Atoms>  (480) 
nan

>  <Num_Not_Resolved_Atoms>  (480) 
nan

$$$$
CHEMBL2070714
     RDKit          3D

  0  0  0  0  0  0  0  0  0  0999 V3000
M  V30 BEGIN CTAB
M  V30 COUNTS 45 47 0 0 0
M  V30 BEGIN ATOM
M  V30 1 N 4.598456 -7.753737 -3.043381 0
M  V30 2 C 3.945295 -6.876732 -2.636940 0
M  V30 3 C 3.127322 -5.789783 -2.154932 0
M  V30 4 C 3.557989 -5.011349 -1.077958 0
M  V30 5 C 2.758642 -3.958879 -0.616496 0
M  V30 6 C 1.568243 -3.769879 -1.287262 0
M  V30 7 C 0.709391 -2.690226 -0.841808 0
M  V30 8 C -0.475004 -2.244050 -1.254918 0
M  V30 9 C -1.101735 -1.179794 -0.657490 0
M  V30 10 N -2.364835 -0.643248 -1.038262 0
M  V30 11 C -2.224510 0.389660 -2.025565 0
M  V30 12 N -3.348981 1.089681 -2.574099 0
M  V30 13 O -1.088782 0.731730 -2.460225 0
M  V30 14 C -0.373662 -0.616739 0.421529 0
M  V30 15 C -0.698977 0.520756 1.308180 0
M  V30 16 O -1.785852 1.030661 1.028252 0
M  V30 17 N 0.259685 0.824778 2.297817 0
M  V30 18 C -0.009633 1.929127 3.192137 0 CFG=1
M  V30 19 C -0.120246 1.489940 4.638473 0
M  V30 20 C 0.011041 2.702275 5.517119 0
M  V30 21 C -0.538250 3.878875 4.726084 0
M  V30 22 N 0.368287 4.226615 3.644798 0
M  V30 23 C 1.025618 3.018942 3.124516 0
M  V30 24 S 1.140990 -1.630283 0.513362 0
M  V30 25 C 1.120574 -4.523147 -2.351679 0
M  V30 26 C 1.917119 -5.559639 -2.799419 0
M  V30 27 H 4.505256 -5.207559 -0.589304 0
M  V30 28 H 3.095483 -3.366773 0.209351 0
M  V30 29 H -0.925964 -2.765765 -2.093677 0
M  V30 30 H -3.314642 -0.891865 -0.710057 0
M  V30 31 H -3.428449 1.070658 -3.631783 0
M  V30 32 H -4.138115 1.634022 -2.169467 0
M  V30 33 H 1.141580 0.273885 2.389801 0
M  V30 34 H -0.991033 2.376307 2.926450 0
M  V30 35 H 0.711871 0.776433 4.815472 0
M  V30 36 H -1.081254 0.960297 4.770847 0
M  V30 37 H -0.563827 2.621914 6.457066 0
M  V30 38 H 1.080000 2.901927 5.666898 0
M  V30 39 H -1.578620 3.693630 4.369111 0
M  V30 40 H -0.594901 4.764617 5.391310 0
M  V30 41 H -0.186819 4.703121 2.885072 0
M  V30 42 H 1.417484 3.193892 2.111188 0
M  V30 43 H 1.892108 2.806011 3.778909 0
M  V30 44 H 0.181286 -4.317617 -2.825377 0
M  V30 45 H 1.629206 -6.185696 -3.623495 0
M  V30 END ATOM
M  V30 BEGIN BOND
M  V30 1 3 1 2
M  V30 2 1 2 3
M  V30 3 2 3 4
M  V30 4 1 4 5
M  V30 5 2 5 6
M  V30 6 1 6 7
M  V30 7 2 7 8
M  V30 8 1 8 9
M  V30 9 1 9 10
M  V30 10 1 10 11
M  V30 11 1 11 12
M  V30 12 2 11 13
M  V30 13 2 9 14
M  V30 14 1 14 15
M  V30 15 2 15 16
M  V30 16 1 15 17
M  V30 17 1 17 18
M  V30 18 1 18 19
M  V30 19 1 19 20
M  V30 20 1 20 21
M  V30 21 1 21 22
M  V30 22 1 22 23
M  V30 23 1 14 24
M  V30 24 1 6 25
M  V30 25 2 25 26
M  V30 26 1 26 3
M  V30 27 1 24 7
M  V30 28 1 23 18
M  V30 29 1 4 27
M  V30 30 1 5 28
M  V30 31 1 8 29
M  V30 32 1 10 30
M  V30 33 1 12 31
M  V30 34 1 12 32
M  V30 35 1 17 33
M  V30 36 1 18 34 CFG=3
M  V30 37 1 19 35
M  V30 38 1 19 36
M  V30 39 1 20 37
M  V30 40 1 20 38
M  V30 41 1 21 39
M  V30 42 1 21 40
M  V30 43 1 22 41
M  V30 44 1 23 42
M  V30 45 1 23 43
M  V30 46 1 25 44
M  V30 47 1 26 45
M  V30 END BOND
M  V30 END CTAB
M  END
>  <Dataset>  (481) 
ChEMBL_Kinases

>  <Ligand_Instance>  (481) 
nan

>  <PDB_ID>  (481) 
nan

>  <Standardized_SMILES>  (481) 
N#Cc1ccc(-c2cc(NC(N)=O)c(C(=O)N[C@H]3CCCNC3)s2)cc1

>  <Name>  (481) 
nan

>  <Pocket>  (481) 
nan

>  <ATP_Site>  (481) 
nan

>  <Peripheral>  (481) 
nan

>  <Num_H_Atoms_ProtBoundConf>  (481) 
nan

>  <Num_Resolved_Atoms>  (481) 
nan

>  <Num_Not_Resolved_Atoms>  (481) 
nan

$$$$
CHEMBL2070713
     RDKit          3D

  0  0  0  0  0  0  0  0  0  0999 V3000
M  V30 BEGIN CTAB
M  V30 COUNTS 45 47 0 0 0
M  V30 BEGIN ATOM
M  V30 1 N 1.932523 -6.729714 6.237944 0
M  V30 2 C 1.538127 -6.077748 5.371950 0
M  V30 3 C 1.066032 -5.273040 4.290749 0
M  V30 4 C 1.559160 -3.983978 4.181745 0
M  V30 5 C 1.113214 -3.192427 3.142193 0
M  V30 6 C 0.207104 -3.693345 2.256445 0
M  V30 7 C -0.292679 -2.829822 1.105132 0
M  V30 8 C 0.024598 -1.569325 0.784343 0
M  V30 9 C -0.574725 -1.053877 -0.293856 0
M  V30 10 C -0.283070 0.341603 -0.726395 0
M  V30 11 O -0.844284 0.827823 -1.738012 0
M  V30 12 N 0.619389 1.223752 -0.067140 0
M  V30 13 C 0.853353 2.552067 -0.535546 0 CFG=1
M  V30 14 C 0.547905 3.602876 0.532795 0
M  V30 15 C 1.736147 3.939117 1.377611 0
M  V30 16 C 2.791469 2.885529 1.439842 0
M  V30 17 N 3.129026 2.277377 0.188667 0
M  V30 18 C 2.319000 2.788836 -0.892159 0
M  V30 19 C -1.419215 -1.776148 -0.970844 0
M  V30 20 N -2.219894 -1.474114 -2.186465 0
M  V30 21 C -3.469087 -0.934581 -1.857923 0
M  V30 22 N -4.355665 -0.591253 -2.915108 0
M  V30 23 O -3.910191 -0.712124 -0.700996 0
M  V30 24 S -1.432563 -3.320692 -0.090103 0
M  V30 25 C -0.299899 -4.973204 2.342070 0
M  V30 26 C 0.146690 -5.775919 3.388949 0
M  V30 27 H 2.274568 -3.537732 4.851571 0
M  V30 28 H 1.483520 -2.173038 3.030443 0
M  V30 29 H 0.757361 -1.068718 1.445084 0
M  V30 30 H 1.108387 0.841884 0.789997 0
M  V30 31 H 0.241152 2.728184 -1.432669 0
M  V30 32 H -0.340054 3.330740 1.124376 0
M  V30 33 H 0.284559 4.522310 -0.034843 0
M  V30 34 H 1.351292 4.072742 2.424935 0
M  V30 35 H 2.204330 4.912610 1.083266 0
M  V30 36 H 2.566203 2.112098 2.217073 0
M  V30 37 H 3.723371 3.395827 1.809507 0
M  V30 38 H 3.043551 1.241049 0.186443 0
M  V30 39 H 2.600107 2.308798 -1.827524 0
M  V30 40 H 2.432723 3.902245 -0.960233 0
M  V30 41 H -1.907696 -1.636599 -3.169509 0
M  V30 42 H -4.880488 -0.379195 -3.789645 0
M  V30 43 H -5.338513 -0.255713 -2.815054 0
M  V30 44 H -1.020778 -5.368417 1.635441 0
M  V30 45 H -0.237225 -6.799752 3.485596 0
M  V30 END ATOM
M  V30 BEGIN BOND
M  V30 1 3 1 2
M  V30 2 1 2 3
M  V30 3 2 3 4
M  V30 4 1 4 5
M  V30 5 2 5 6
M  V30 6 1 6 7
M  V30 7 2 7 8
M  V30 8 1 8 9
M  V30 9 1 9 10
M  V30 10 2 10 11
M  V30 11 1 10 12
M  V30 12 1 12 13
M  V30 13 1 13 14
M  V30 14 1 14 15
M  V30 15 1 15 16
M  V30 16 1 16 17
M  V30 17 1 17 18
M  V30 18 2 9 19
M  V30 19 1 19 20
M  V30 20 1 20 21
M  V30 21 1 21 22
M  V30 22 2 21 23
M  V30 23 1 19 24
M  V30 24 1 6 25
M  V30 25 2 25 26
M  V30 26 1 26 3
M  V30 27 1 24 7
M  V30 28 1 18 13
M  V30 29 1 4 27
M  V30 30 1 5 28
M  V30 31 1 8 29
M  V30 32 1 12 30
M  V30 33 1 13 31 CFG=3
M  V30 34 1 14 32
M  V30 35 1 14 33
M  V30 36 1 15 34
M  V30 37 1 15 35
M  V30 38 1 16 36
M  V30 39 1 16 37
M  V30 40 1 17 38
M  V30 41 1 18 39
M  V30 42 1 18 40
M  V30 43 1 20 41
M  V30 44 1 22 42
M  V30 45 1 22 43
M  V30 46 1 25 44
M  V30 47 1 26 45
M  V30 END BOND
M  V30 END CTAB
M  END
>  <Dataset>  (482) 
ChEMBL_Kinases

>  <Ligand_Instance>  (482) 
nan

>  <PDB_ID>  (482) 
nan

>  <Standardized_SMILES>  (482) 
N#Cc1ccc(-c2cc(C(=O)N[C@H]3CCCNC3)c(NC(N)=O)s2)cc1

>  <Name>  (482) 
nan

>  <Pocket>  (482) 
nan

>  <ATP_Site>  (482) 
nan

>  <Peripheral>  (482) 
nan

>  <Num_H_Atoms_ProtBoundConf>  (482) 
nan

>  <Num_Resolved_Atoms>  (482) 
nan

>  <Num_Not_Resolved_Atoms>  (482) 
nan

$$$$
CHEMBL2070712
     RDKit          3D

  0  0  0  0  0  0  0  0  0  0999 V3000
M  V30 BEGIN CTAB
M  V30 COUNTS 44 46 0 0 0
M  V30 BEGIN ATOM
M  V30 1 N 5.015731 -2.649184 1.692065 0
M  V30 2 C 4.072538 -1.675335 1.295928 0
M  V30 3 O 3.890495 -0.639948 2.003064 0
M  V30 4 N 3.248193 -1.723493 0.118154 0
M  V30 5 C 2.330244 -0.637411 -0.139519 0
M  V30 6 C 2.721316 0.434619 -0.863453 0
M  V30 7 C 1.776021 1.435638 -1.065032 0
M  V30 8 C 1.879544 2.738216 -1.810083 0
M  V30 9 C 3.055558 3.070000 -2.415992 0
M  V30 10 C 3.039300 4.285177 -3.070183 0
M  V30 11 C 1.913625 5.082723 -3.095941 0
M  V30 12 Cl 1.958039 6.616542 -3.945183 0
M  V30 13 C 0.741744 4.696605 -2.462015 0
M  V30 14 Cl -0.687205 5.698606 -2.489049 0
M  V30 15 C 0.717488 3.475377 -1.789872 0
M  V30 16 S 0.320869 0.779463 -0.181803 0
M  V30 17 C 1.061373 -0.691256 0.349075 0
M  V30 18 C 0.424330 -1.735315 1.146920 0
M  V30 19 O 1.098325 -2.750864 1.454794 0
M  V30 20 N -0.930639 -1.554848 1.539258 0
M  V30 21 C -1.593760 -2.573657 2.332874 0 CFG=1
M  V30 22 C -1.907935 -2.037871 3.681730 0
M  V30 23 C -3.358302 -2.107938 4.067569 0
M  V30 24 C -3.820063 -3.509267 3.659278 0
M  V30 25 N -3.924878 -3.429642 2.217977 0
M  V30 26 C -2.686137 -3.210192 1.567114 0
M  V30 27 H 4.687533 -3.624903 1.931025 0
M  V30 28 H 5.969646 -2.193192 1.679690 0
M  V30 29 H 3.389173 -2.583492 -0.483261 0
M  V30 30 H 3.684722 0.623859 -1.315009 0
M  V30 31 H 3.879068 2.374226 -2.336131 0
M  V30 32 H 3.986676 4.558987 -3.561814 0
M  V30 33 H -0.181487 3.154099 -1.289960 0
M  V30 34 H -1.464026 -0.704616 1.270300 0
M  V30 35 H -0.814576 -3.378823 2.487955 0
M  V30 36 H -1.342177 -2.525108 4.506739 0
M  V30 37 H -1.627769 -0.965477 3.747789 0
M  V30 38 H -3.935393 -1.352093 3.484809 0
M  V30 39 H -3.450167 -1.987514 5.155478 0
M  V30 40 H -4.775050 -3.777542 4.107563 0
M  V30 41 H -2.986476 -4.191243 3.948606 0
M  V30 42 H -4.668545 -2.735174 1.982117 0
M  V30 43 H -2.916749 -2.562794 0.670151 0
M  V30 44 H -2.392333 -4.186763 1.093865 0
M  V30 END ATOM
M  V30 BEGIN BOND
M  V30 1 1 1 2
M  V30 2 2 2 3
M  V30 3 1 2 4
M  V30 4 1 4 5
M  V30 5 1 5 6
M  V30 6 2 6 7
M  V30 7 1 7 8
M  V30 8 2 8 9
M  V30 9 1 9 10
M  V30 10 2 10 11
M  V30 11 1 11 12
M  V30 12 1 11 13
M  V30 13 1 13 14
M  V30 14 2 13 15
M  V30 15 1 7 16
M  V30 16 1 16 17
M  V30 17 1 17 18
M  V30 18 2 18 19
M  V30 19 1 18 20
M  V30 20 1 20 21
M  V30 21 1 21 22
M  V30 22 1 22 23
M  V30 23 1 23 24
M  V30 24 1 24 25
M  V30 25 1 25 26
M  V30 26 2 17 5
M  V30 27 1 26 21
M  V30 28 1 15 8
M  V30 29 1 1 27
M  V30 30 1 1 28
M  V30 31 1 4 29
M  V30 32 1 6 30
M  V30 33 1 9 31
M  V30 34 1 10 32
M  V30 35 1 15 33
M  V30 36 1 20 34
M  V30 37 1 21 35 CFG=1
M  V30 38 1 22 36
M  V30 39 1 22 37
M  V30 40 1 23 38
M  V30 41 1 23 39
M  V30 42 1 24 40
M  V30 43 1 24 41
M  V30 44 1 25 42
M  V30 45 1 26 43
M  V30 46 1 26 44
M  V30 END BOND
M  V30 END CTAB
M  END
>  <Dataset>  (483) 
ChEMBL_Kinases

>  <Ligand_Instance>  (483) 
nan

>  <PDB_ID>  (483) 
nan

>  <Standardized_SMILES>  (483) 
NC(=O)Nc1cc(-c2ccc(Cl)c(Cl)c2)sc1C(=O)N[C@H]1CCCNC1

>  <Name>  (483) 
nan

>  <Pocket>  (483) 
nan

>  <ATP_Site>  (483) 
nan

>  <Peripheral>  (483) 
nan

>  <Num_H_Atoms_ProtBoundConf>  (483) 
nan

>  <Num_Resolved_Atoms>  (483) 
nan

>  <Num_Not_Resolved_Atoms>  (483) 
nan

$$$$
CHEMBL2070711
     RDKit          3D

  0  0  0  0  0  0  0  0  0  0999 V3000
M  V30 BEGIN CTAB
M  V30 COUNTS 44 46 0 0 0
M  V30 BEGIN ATOM
M  V30 1 N 4.827800 -4.248050 2.176797 0
M  V30 2 C 4.136122 -2.997536 2.041351 0
M  V30 3 O 4.026451 -2.256901 3.057814 0
M  V30 4 N 3.592807 -2.628674 0.761000 0
M  V30 5 C 2.908202 -1.443018 0.527243 0
M  V30 6 S 3.705326 0.145774 -0.010236 0
M  V30 7 C 2.236055 1.059170 -0.067126 0
M  V30 8 C 2.136163 2.501445 -0.447309 0
M  V30 9 C 0.892459 3.105192 -0.449448 0
M  V30 10 C 0.833381 4.438627 -0.805236 0
M  V30 11 C 1.991096 5.126627 -1.143999 0
M  V30 12 Cl 1.751896 6.813822 -1.572689 0
M  V30 13 C 3.230858 4.495074 -1.133763 0
M  V30 14 Cl 4.614493 5.439308 -1.571860 0
M  V30 15 C 3.297713 3.166861 -0.780421 0
M  V30 16 C 1.256740 0.232060 0.286495 0
M  V30 17 C 1.599767 -1.062385 0.594590 0
M  V30 18 C 0.618102 -2.094278 1.004370 0
M  V30 19 O 0.992942 -3.247023 1.269616 0
M  V30 20 N -0.773330 -1.810289 1.108990 0
M  V30 21 C -1.780551 -2.747002 1.496145 0 CFG=1
M  V30 22 C -2.631106 -2.259112 2.648957 0
M  V30 23 C -3.261510 -0.921248 2.329715 0
M  V30 24 C -3.918273 -0.883291 0.996997 0
M  V30 25 N -3.164901 -1.556561 -0.038790 0
M  V30 26 C -2.757776 -2.875490 0.319313 0
M  V30 27 H 4.069367 -4.982089 2.207463 0
M  V30 28 H 5.850803 -4.384345 2.231303 0
M  V30 29 H 3.744038 -3.324641 -0.017888 0
M  V30 30 H -0.012516 2.566794 -0.184466 0
M  V30 31 H -0.149167 4.892511 -0.800639 0
M  V30 32 H 4.261368 2.668616 -0.770462 0
M  V30 33 H 0.235177 0.588899 0.322805 0
M  V30 34 H -1.124640 -0.843745 0.891445 0
M  V30 35 H -1.374892 -3.741542 1.714121 0
M  V30 36 H -2.101476 -2.265265 3.601865 0
M  V30 37 H -3.478628 -2.991931 2.746953 0
M  V30 38 H -2.469091 -0.125588 2.350657 0
M  V30 39 H -4.009121 -0.622706 3.083363 0
M  V30 40 H -4.170768 0.150915 0.733243 0
M  V30 41 H -4.889375 -1.439991 1.088753 0
M  V30 42 H -3.581942 -1.461121 -0.971591 0
M  V30 43 H -3.588469 -3.553569 0.569719 0
M  V30 44 H -2.173709 -3.295124 -0.517570 0
M  V30 END ATOM
M  V30 BEGIN BOND
M  V30 1 1 1 2
M  V30 2 2 2 3
M  V30 3 1 2 4
M  V30 4 1 4 5
M  V30 5 1 5 6
M  V30 6 1 6 7
M  V30 7 1 7 8
M  V30 8 2 8 9
M  V30 9 1 9 10
M  V30 10 2 10 11
M  V30 11 1 11 12
M  V30 12 1 11 13
M  V30 13 1 13 14
M  V30 14 2 13 15
M  V30 15 2 7 16
M  V30 16 1 16 17
M  V30 17 1 17 18
M  V30 18 2 18 19
M  V30 19 1 18 20
M  V30 20 1 20 21
M  V30 21 1 21 22
M  V30 22 1 22 23
M  V30 23 1 23 24
M  V30 24 1 24 25
M  V30 25 1 25 26
M  V30 26 2 17 5
M  V30 27 1 26 21
M  V30 28 1 15 8
M  V30 29 1 1 27
M  V30 30 1 1 28
M  V30 31 1 4 29
M  V30 32 1 9 30
M  V30 33 1 10 31
M  V30 34 1 15 32
M  V30 35 1 16 33
M  V30 36 1 20 34
M  V30 37 1 21 35 CFG=1
M  V30 38 1 22 36
M  V30 39 1 22 37
M  V30 40 1 23 38
M  V30 41 1 23 39
M  V30 42 1 24 40
M  V30 43 1 24 41
M  V30 44 1 25 42
M  V30 45 1 26 43
M  V30 46 1 26 44
M  V30 END BOND
M  V30 END CTAB
M  END
>  <Dataset>  (484) 
ChEMBL_Kinases

>  <Ligand_Instance>  (484) 
nan

>  <PDB_ID>  (484) 
nan

>  <Standardized_SMILES>  (484) 
NC(=O)Nc1sc(-c2ccc(Cl)c(Cl)c2)cc1C(=O)N[C@H]1CCCNC1

>  <Name>  (484) 
nan

>  <Pocket>  (484) 
nan

>  <ATP_Site>  (484) 
nan

>  <Peripheral>  (484) 
nan

>  <Num_H_Atoms_ProtBoundConf>  (484) 
nan

>  <Num_Resolved_Atoms>  (484) 
nan

>  <Num_Not_Resolved_Atoms>  (484) 
nan

$$$$
CHEMBL2070710
     RDKit          3D

  0  0  0  0  0  0  0  0  0  0999 V3000
M  V30 BEGIN CTAB
M  V30 COUNTS 44 46 0 0 0
M  V30 BEGIN ATOM
M  V30 1 N 4.440787 -2.480895 3.414683 0
M  V30 2 C 3.602443 -1.544198 2.747034 0
M  V30 3 O 3.126328 -0.768599 3.632533 0
M  V30 4 N 3.382484 -1.533042 1.354027 0
M  V30 5 C 2.502662 -0.519641 0.810935 0
M  V30 6 C 3.026007 0.667706 0.424144 0
M  V30 7 C 2.147159 1.609816 -0.090535 0
M  V30 8 C 2.351020 3.007329 -0.611971 0
M  V30 9 C 3.627316 3.515692 -0.608631 0
M  V30 10 C 3.701648 4.798654 -1.105461 0
M  V30 11 C 2.599117 5.492309 -1.557567 0
M  V30 12 F 2.853608 6.754607 -2.017283 0
M  V30 13 C 1.338834 4.932373 -1.537884 0
M  V30 14 C 1.230048 3.646581 -1.045463 0
M  V30 15 F 0.021592 3.055557 -1.005123 0
M  V30 16 S 0.521925 0.704600 0.007466 0
M  V30 17 C 1.164315 -0.710483 0.671725 0
M  V30 18 C 0.425711 -1.970043 1.052562 0
M  V30 19 O 1.039970 -2.925816 1.530136 0
M  V30 20 N -0.969009 -1.960577 0.824900 0
M  V30 21 C -1.761128 -3.129827 1.161328 0 CFG=1
M  V30 22 C -2.706160 -2.729013 2.290100 0
M  V30 23 C -3.833795 -1.944298 1.659918 0
M  V30 24 C -4.645675 -2.811165 0.735704 0
M  V30 25 N -3.906848 -3.980759 0.304857 0
M  V30 26 C -2.534128 -3.657580 -0.032960 0
M  V30 27 H 4.611988 -3.451819 3.766504 0
M  V30 28 H 5.354164 -2.178196 3.776358 0
M  V30 29 H 3.902155 -2.292938 0.837381 0
M  V30 30 H 4.050313 1.013547 0.451465 0
M  V30 31 H 4.408606 2.890626 -0.235307 0
M  V30 32 H 4.711621 5.227166 -1.113229 0
M  V30 33 H 0.506964 5.493897 -1.894138 0
M  V30 34 H -1.498783 -1.156170 0.420909 0
M  V30 35 H -1.139670 -3.944720 1.584218 0
M  V30 36 H -3.100390 -3.634573 2.792791 0
M  V30 37 H -2.167063 -2.082179 2.993023 0
M  V30 38 H -4.475530 -1.542243 2.492221 0
M  V30 39 H -3.409995 -1.059569 1.141424 0
M  V30 40 H -4.923638 -2.190240 -0.145732 0
M  V30 41 H -5.560610 -3.148591 1.246268 0
M  V30 42 H -3.960206 -4.769894 0.971529 0
M  V30 43 H -2.583075 -2.806425 -0.756662 0
M  V30 44 H -2.075196 -4.557786 -0.460609 0
M  V30 END ATOM
M  V30 BEGIN BOND
M  V30 1 1 1 2
M  V30 2 2 2 3
M  V30 3 1 2 4
M  V30 4 1 4 5
M  V30 5 1 5 6
M  V30 6 2 6 7
M  V30 7 1 7 8
M  V30 8 2 8 9
M  V30 9 1 9 10
M  V30 10 2 10 11
M  V30 11 1 11 12
M  V30 12 1 11 13
M  V30 13 2 13 14
M  V30 14 1 14 15
M  V30 15 1 7 16
M  V30 16 1 16 17
M  V30 17 1 17 18
M  V30 18 2 18 19
M  V30 19 1 18 20
M  V30 20 1 20 21
M  V30 21 1 21 22
M  V30 22 1 22 23
M  V30 23 1 23 24
M  V30 24 1 24 25
M  V30 25 1 25 26
M  V30 26 2 17 5
M  V30 27 1 26 21
M  V30 28 1 14 8
M  V30 29 1 1 27
M  V30 30 1 1 28
M  V30 31 1 4 29
M  V30 32 1 6 30
M  V30 33 1 9 31
M  V30 34 1 10 32
M  V30 35 1 13 33
M  V30 36 1 20 34
M  V30 37 1 21 35 CFG=1
M  V30 38 1 22 36
M  V30 39 1 22 37
M  V30 40 1 23 38
M  V30 41 1 23 39
M  V30 42 1 24 40
M  V30 43 1 24 41
M  V30 44 1 25 42
M  V30 45 1 26 43
M  V30 46 1 26 44
M  V30 END BOND
M  V30 END CTAB
M  END
>  <Dataset>  (485) 
ChEMBL_Kinases

>  <Ligand_Instance>  (485) 
nan

>  <PDB_ID>  (485) 
nan

>  <Standardized_SMILES>  (485) 
NC(=O)Nc1cc(-c2ccc(F)cc2F)sc1C(=O)N[C@H]1CCCNC1

>  <Name>  (485) 
nan

>  <Pocket>  (485) 
nan

>  <ATP_Site>  (485) 
nan

>  <Peripheral>  (485) 
nan

>  <Num_H_Atoms_ProtBoundConf>  (485) 
nan

>  <Num_Resolved_Atoms>  (485) 
nan

>  <Num_Not_Resolved_Atoms>  (485) 
nan

$$$$
CHEMBL2063438
     RDKit          3D

  0  0  0  0  0  0  0  0  0  0999 V3000
M  V30 BEGIN CTAB
M  V30 COUNTS 46 49 0 0 0
M  V30 BEGIN ATOM
M  V30 1 N 2.272378 -1.669335 1.974398 0
M  V30 2 C 3.652578 -1.445435 1.890594 0
M  V30 3 N 4.564201 -2.423358 2.180488 0
M  V30 4 O 5.754650 -1.885839 2.008572 0
M  V30 5 C 5.608478 -0.639054 1.631622 0
M  V30 6 C 6.568841 0.321603 1.333055 0
M  V30 7 C 6.196029 1.604153 0.946646 0
M  V30 8 C 4.851544 1.985259 0.840794 0
M  V30 9 C 3.938343 1.002130 1.146139 0
M  V30 10 C 2.475513 1.236882 1.099950 0
M  V30 11 O 1.778113 0.419828 0.452094 0
M  V30 12 N 1.802757 2.337035 1.747727 0
M  V30 13 C 0.410079 2.121955 1.426682 0
M  V30 14 C -0.095542 1.342248 2.477596 0
M  V30 15 C -1.439249 0.942102 2.447751 0
M  V30 16 C -2.138951 1.388437 1.324129 0
M  V30 17 N -3.511725 0.916221 1.293029 0
M  V30 18 C -3.410029 -0.343255 0.663500 0
M  V30 19 O -2.131513 -0.345686 0.468817 0
M  V30 20 N -4.231175 -1.411210 0.263630 0
M  V30 21 C -3.851924 -2.616047 -0.365917 0
M  V30 22 C -2.530010 -2.919778 -0.568004 0
M  V30 23 C -2.105173 -4.080689 -1.190632 0
M  V30 24 C -3.077467 -4.980986 -1.632147 0
M  V30 25 F -2.693130 -6.127292 -2.241108 0
M  V30 26 C -4.393715 -4.638126 -1.409285 0
M  V30 27 C -4.832688 -3.473832 -0.783424 0
M  V30 28 C -1.652487 2.152701 0.291859 0
M  V30 29 C -0.331684 2.520596 0.366484 0
M  V30 30 C 4.272661 -0.269844 1.529908 0
M  V30 31 H 1.267762 -1.812701 2.060315 0
M  V30 32 H 1.430222 -2.161885 1.593157 0
M  V30 33 H 7.610459 0.057518 1.401775 0
M  V30 34 H 6.933426 2.384400 0.702964 0
M  V30 35 H 4.501507 2.958199 0.551305 0
M  V30 36 H 2.391727 3.013726 2.273469 0
M  V30 37 H 0.411576 0.967803 3.370737 0
M  V30 38 H -1.901067 0.342150 3.213919 0
M  V30 39 H -4.533165 1.084354 1.532615 0
M  V30 40 H -5.195408 -1.133927 0.525130 0
M  V30 41 H -1.677300 -2.326625 -0.280039 0
M  V30 42 H -1.057897 -4.341999 -1.359524 0
M  V30 43 H -5.087404 -5.375613 -1.779651 0
M  V30 44 H -5.900831 -3.296152 -0.660297 0
M  V30 45 H -2.243587 2.468910 -0.546704 0
M  V30 46 H 0.218571 3.103992 -0.326217 0
M  V30 END ATOM
M  V30 BEGIN BOND
M  V30 1 1 1 2
M  V30 2 2 2 3
M  V30 3 1 3 4
M  V30 4 1 4 5
M  V30 5 2 5 6
M  V30 6 1 6 7
M  V30 7 2 7 8
M  V30 8 1 8 9
M  V30 9 1 9 10
M  V30 10 2 10 11
M  V30 11 1 10 12
M  V30 12 1 12 13
M  V30 13 2 13 14
M  V30 14 1 14 15
M  V30 15 2 15 16
M  V30 16 1 16 17
M  V30 17 1 17 18
M  V30 18 2 18 19
M  V30 19 1 18 20
M  V30 20 1 20 21
M  V30 21 2 21 22
M  V30 22 1 22 23
M  V30 23 2 23 24
M  V30 24 1 24 25
M  V30 25 1 24 26
M  V30 26 2 26 27
M  V30 27 1 16 28
M  V30 28 2 28 29
M  V30 29 2 9 30
M  V30 30 1 30 2
M  V30 31 1 30 5
M  V30 32 1 29 13
M  V30 33 1 27 21
M  V30 34 1 1 31
M  V30 35 1 1 32
M  V30 36 1 6 33
M  V30 37 1 7 34
M  V30 38 1 8 35
M  V30 39 1 12 36
M  V30 40 1 14 37
M  V30 41 1 15 38
M  V30 42 1 17 39
M  V30 43 1 20 40
M  V30 44 1 22 41
M  V30 45 1 23 42
M  V30 46 1 26 43
M  V30 47 1 27 44
M  V30 48 1 28 45
M  V30 49 1 29 46
M  V30 END BOND
M  V30 END CTAB
M  END
>  <Dataset>  (486) 
ChEMBL_Kinases

>  <Ligand_Instance>  (486) 
nan

>  <PDB_ID>  (486) 
nan

>  <Standardized_SMILES>  (486) 
Nc1noc2cccc(C(=O)Nc3ccc(NC(=O)Nc4ccc(F)cc4)cc3)c12

>  <Name>  (486) 
nan

>  <Pocket>  (486) 
nan

>  <ATP_Site>  (486) 
nan

>  <Peripheral>  (486) 
nan

>  <Num_H_Atoms_ProtBoundConf>  (486) 
nan

>  <Num_Resolved_Atoms>  (486) 
nan

>  <Num_Not_Resolved_Atoms>  (486) 
nan

$$$$
CHEMBL2070491
     RDKit          3D

  0  0  0  0  0  0  0  0  0  0999 V3000
M  V30 BEGIN CTAB
M  V30 COUNTS 52 55 0 0 0
M  V30 BEGIN ATOM
M  V30 1 C 6.841654 -5.014459 2.071476 0
M  V30 2 C 7.442274 -3.711355 1.595162 0
M  V30 3 O 6.693332 -2.581628 1.938871 0
M  V30 4 C 5.387532 -2.326125 1.560389 0
M  V30 5 C 4.800934 -1.152967 1.995387 0
M  V30 6 C 3.500462 -0.869737 1.634785 0
M  V30 7 C 2.713357 -1.679703 0.855467 0
M  V30 8 C 1.344709 -1.374254 0.480099 0
M  V30 9 C 0.814831 -0.203566 0.938032 0
M  V30 10 C -0.466457 0.058044 0.572666 0
M  V30 11 C -1.231440 1.306590 0.980548 0
M  V30 12 C -0.864589 2.372955 1.738508 0
M  V30 13 N -1.756157 3.314880 1.919934 0
M  V30 14 C -2.855219 3.362378 1.505859 0
M  V30 15 N -4.021363 4.179575 1.503928 0
M  V30 16 C -5.252335 3.825475 0.815206 0
M  V30 17 C -6.304243 4.875814 0.973856 0
M  V30 18 C -5.763660 2.531392 1.350652 0
M  V30 19 S -2.933752 1.731139 0.540158 0
M  V30 20 N -1.162044 -0.797410 -0.197466 0
M  V30 21 C -0.642692 -1.952459 -0.650688 0
M  V30 22 C -1.489702 -2.796376 -1.475722 0
M  V30 23 C -1.127257 -4.005872 -2.023149 0
M  V30 24 N -1.969011 -4.737260 -2.781819 0
M  V30 25 C -3.226451 -4.304824 -3.040736 0
M  V30 26 C -3.595246 -3.098456 -2.497653 0
M  V30 27 N -2.740960 -2.381644 -1.742272 0
M  V30 28 N 0.619925 -2.207193 -0.288855 0
M  V30 29 C 3.333563 -2.831636 0.446094 0
M  V30 30 Cl 2.520810 -4.005086 -0.551105 0
M  V30 31 C 4.614471 -3.155418 0.775648 0
M  V30 32 H 6.704171 -5.693997 1.225140 0
M  V30 33 H 7.523320 -5.537217 2.791648 0
M  V30 34 H 5.871240 -4.871662 2.588334 0
M  V30 35 H 7.594329 -3.719038 0.492694 0
M  V30 36 H 8.447186 -3.621910 2.043399 0
M  V30 37 H 5.381040 -0.482408 2.611887 0
M  V30 38 H 3.123570 0.064855 2.017628 0
M  V30 39 H 1.245351 0.557933 1.547715 0
M  V30 40 H 0.143314 2.424770 2.172833 0
M  V30 41 H -3.855443 5.044921 2.058266 0
M  V30 42 H -4.974852 3.702515 -0.251288 0
M  V30 43 H -6.359641 5.181869 2.040893 0
M  V30 44 H -6.187495 5.729611 0.291153 0
M  V30 45 H -7.286771 4.414413 0.739273 0
M  V30 46 H -5.984419 1.852121 0.502431 0
M  V30 47 H -4.993030 2.065693 1.998712 0
M  V30 48 H -6.722580 2.680944 1.892221 0
M  V30 49 H -0.148233 -4.368787 -1.836582 0
M  V30 50 H -3.904714 -4.878042 -3.642799 0
M  V30 51 H -4.598970 -2.749494 -2.702139 0
M  V30 52 H 5.121690 -4.064445 0.459010 0
M  V30 END ATOM
M  V30 BEGIN BOND
M  V30 1 1 1 2
M  V30 2 1 2 3
M  V30 3 1 3 4
M  V30 4 2 4 5
M  V30 5 1 5 6
M  V30 6 2 6 7
M  V30 7 1 7 8
M  V30 8 2 8 9
M  V30 9 1 9 10
M  V30 10 1 10 11
M  V30 11 2 11 12
M  V30 12 1 12 13
M  V30 13 2 13 14
M  V30 14 1 14 15
M  V30 15 1 15 16
M  V30 16 1 16 17
M  V30 17 1 16 18
M  V30 18 1 14 19
M  V30 19 2 10 20
M  V30 20 1 20 21
M  V30 21 1 21 22
M  V30 22 2 22 23
M  V30 23 1 23 24
M  V30 24 2 24 25
M  V30 25 1 25 26
M  V30 26 2 26 27
M  V30 27 2 21 28
M  V30 28 1 7 29
M  V30 29 1 29 30
M  V30 30 2 29 31
M  V30 31 1 31 4
M  V30 32 1 28 8
M  V30 33 1 19 11
M  V30 34 1 27 22
M  V30 35 1 1 32
M  V30 36 1 1 33
M  V30 37 1 1 34
M  V30 38 1 2 35
M  V30 39 1 2 36
M  V30 40 1 5 37
M  V30 41 1 6 38
M  V30 42 1 9 39
M  V30 43 1 12 40
M  V30 44 1 15 41
M  V30 45 1 16 42
M  V30 46 1 17 43
M  V30 47 1 17 44
M  V30 48 1 17 45
M  V30 49 1 18 46
M  V30 50 1 18 47
M  V30 51 1 18 48
M  V30 52 1 23 49
M  V30 53 1 25 50
M  V30 54 1 26 51
M  V30 55 1 31 52
M  V30 END BOND
M  V30 END CTAB
M  END
>  <Dataset>  (487) 
ChEMBL_Kinases

>  <Ligand_Instance>  (487) 
nan

>  <PDB_ID>  (487) 
nan

>  <Standardized_SMILES>  (487) 
CCOc1ccc(-c2cc(-c3cnc(NC(C)C)s3)nc(-c3cnccn3)n2)c(Cl)c1

>  <Name>  (487) 
nan

>  <Pocket>  (487) 
nan

>  <ATP_Site>  (487) 
nan

>  <Peripheral>  (487) 
nan

>  <Num_H_Atoms_ProtBoundConf>  (487) 
nan

>  <Num_Resolved_Atoms>  (487) 
nan

>  <Num_Not_Resolved_Atoms>  (487) 
nan

$$$$
CHEMBL207050
     RDKit          3D

  0  0  0  0  0  0  0  0  0  0999 V3000
M  V30 BEGIN CTAB
M  V30 COUNTS 28 30 0 0 0
M  V30 BEGIN ATOM
M  V30 1 C 3.456516 -0.612109 2.420993 0
M  V30 2 N 2.718169 -0.855022 1.193467 0
M  V30 3 N 3.202923 -1.245504 0.026333 0
M  V30 4 C 2.218432 -1.366855 -0.883838 0
M  V30 5 C 2.219452 -1.765234 -2.312664 0
M  V30 6 F 3.529745 -2.049096 -2.699088 0
M  V30 7 F 1.814774 -0.734805 -3.136201 0
M  V30 8 F 1.486452 -2.914883 -2.525026 0
M  V30 9 C 1.021172 -1.030428 -0.254267 0
M  V30 10 C -0.316802 -0.952421 -0.619687 0
M  V30 11 O -0.595561 -1.247019 -1.811078 0
M  V30 12 C -1.266048 -0.567134 0.304817 0
M  V30 13 C -2.593094 -0.491350 -0.063167 0
M  V30 14 C -3.486725 -0.099533 0.911720 0
M  V30 15 Cl -5.187131 -0.006413 0.425932 0
M  V30 16 C -3.158095 0.218949 2.212849 0
M  V30 17 Cl -4.346504 0.709115 3.398545 0
M  V30 18 C -1.803647 0.122607 2.520282 0
M  V30 19 C -0.844362 -0.266553 1.586587 0
M  V30 20 N 0.457373 -0.330806 1.983862 0
M  V30 21 O 0.818692 -0.020039 3.273101 0
M  V30 22 C 1.370790 -0.714882 1.046420 0
M  V30 23 H 3.534685 0.491876 2.523764 0
M  V30 24 H 2.917998 -1.081645 3.267355 0
M  V30 25 H 4.474223 -0.998573 2.278233 0
M  V30 26 H -2.879232 -0.733228 -1.068951 0
M  V30 27 H -1.457009 0.358054 3.532171 0
M  V30 28 H 0.898418 0.929944 3.570146 0
M  V30 END ATOM
M  V30 BEGIN BOND
M  V30 1 1 1 2
M  V30 2 1 2 3
M  V30 3 2 3 4
M  V30 4 1 4 5
M  V30 5 1 5 6
M  V30 6 1 5 7
M  V30 7 1 5 8
M  V30 8 1 4 9
M  V30 9 1 9 10
M  V30 10 2 10 11
M  V30 11 1 10 12
M  V30 12 2 12 13
M  V30 13 1 13 14
M  V30 14 1 14 15
M  V30 15 2 14 16
M  V30 16 1 16 17
M  V30 17 1 16 18
M  V30 18 2 18 19
M  V30 19 1 19 20
M  V30 20 1 20 21
M  V30 21 1 20 22
M  V30 22 1 22 2
M  V30 23 2 22 9
M  V30 24 1 19 12
M  V30 25 1 1 23
M  V30 26 1 1 24
M  V30 27 1 1 25
M  V30 28 1 13 26
M  V30 29 1 18 27
M  V30 30 1 21 28
M  V30 END BOND
M  V30 END CTAB
M  END
>  <Dataset>  (488) 
ChEMBL_Kinases

>  <Ligand_Instance>  (488) 
nan

>  <PDB_ID>  (488) 
nan

>  <Standardized_SMILES>  (488) 
Cn1nc(C(F)(F)F)c2c(=O)c3cc(Cl)c(Cl)cc3n(O)c21

>  <Name>  (488) 
nan

>  <Pocket>  (488) 
nan

>  <ATP_Site>  (488) 
nan

>  <Peripheral>  (488) 
nan

>  <Num_H_Atoms_ProtBoundConf>  (488) 
nan

>  <Num_Resolved_Atoms>  (488) 
nan

>  <Num_Not_Resolved_Atoms>  (488) 
nan

$$$$
CHEMBL207051
     RDKit          3D

  0  0  0  0  0  0  0  0  0  0999 V3000
M  V30 BEGIN CTAB
M  V30 COUNTS 33 35 0 0 0
M  V30 BEGIN ATOM
M  V30 1 C -3.158406 -2.080206 1.675215 0
M  V30 2 N -1.739361 -1.835668 1.523350 0
M  V30 3 N -0.813004 -2.699745 1.901511 0
M  V30 4 C 0.425574 -2.194483 1.628539 0
M  V30 5 C 1.638164 -2.967425 1.903868 0
M  V30 6 C 2.142414 -3.785898 0.744210 0
M  V30 7 N 2.464001 -3.037400 -0.425144 0
M  V30 8 C 0.147534 -0.970713 1.064967 0
M  V30 9 C 1.060682 -0.025235 0.614638 0
M  V30 10 O 2.302415 -0.194736 0.665432 0
M  V30 11 C 0.540413 1.140468 0.098438 0
M  V30 12 C 1.353027 2.140039 -0.371787 0
M  V30 13 C 0.927591 3.357104 -0.911876 0
M  V30 14 Cl 1.970396 4.624680 -1.505716 0
M  V30 15 C -0.465569 3.483470 -0.935082 0
M  V30 16 C -1.392005 2.538308 -0.486424 0
M  V30 17 C -0.807469 1.401439 0.011690 0
M  V30 18 N -1.645968 0.429376 0.474184 0
M  V30 19 O -3.004584 0.621762 0.418299 0
M  V30 20 C -1.207817 -0.724203 0.988170 0
M  V30 21 H -3.798168 -1.490031 1.019544 0
M  V30 22 H -3.347757 -3.184953 1.603574 0
M  V30 23 H -3.457313 -1.825285 2.721873 0
M  V30 24 H 1.472199 -3.665788 2.776171 0
M  V30 25 H 2.503139 -2.312562 2.197151 0
M  V30 26 H 1.345269 -4.529581 0.454970 0
M  V30 27 H 3.019477 -4.408321 1.098334 0
M  V30 28 H 2.269824 -3.596364 -1.313400 0
M  V30 29 H 3.470718 -2.750190 -0.476549 0
M  V30 30 H 2.432704 2.007024 -0.335615 0
M  V30 31 H -0.821916 4.435085 -1.355456 0
M  V30 32 H -2.435929 2.750956 -0.559157 0
M  V30 33 H -3.449297 0.367005 -0.472818 0
M  V30 END ATOM
M  V30 BEGIN BOND
M  V30 1 1 1 2
M  V30 2 1 2 3
M  V30 3 2 3 4
M  V30 4 1 4 5
M  V30 5 1 5 6
M  V30 6 1 6 7
M  V30 7 1 4 8
M  V30 8 1 8 9
M  V30 9 2 9 10
M  V30 10 1 9 11
M  V30 11 2 11 12
M  V30 12 1 12 13
M  V30 13 1 13 14
M  V30 14 2 13 15
M  V30 15 1 15 16
M  V30 16 2 16 17
M  V30 17 1 17 18
M  V30 18 1 18 19
M  V30 19 1 18 20
M  V30 20 1 20 2
M  V30 21 2 20 8
M  V30 22 1 17 11
M  V30 23 1 1 21
M  V30 24 1 1 22
M  V30 25 1 1 23
M  V30 26 1 5 24
M  V30 27 1 5 25
M  V30 28 1 6 26
M  V30 29 1 6 27
M  V30 30 1 7 28
M  V30 31 1 7 29
M  V30 32 1 12 30
M  V30 33 1 15 31
M  V30 34 1 16 32
M  V30 35 1 19 33
M  V30 END BOND
M  V30 END CTAB
M  END
>  <Dataset>  (489) 
ChEMBL_Kinases

>  <Ligand_Instance>  (489) 
nan

>  <PDB_ID>  (489) 
nan

>  <Standardized_SMILES>  (489) 
Cn1nc(CCN)c2c(=O)c3cc(Cl)ccc3n(O)c21

>  <Name>  (489) 
nan

>  <Pocket>  (489) 
nan

>  <ATP_Site>  (489) 
nan

>  <Peripheral>  (489) 
nan

>  <Num_H_Atoms_ProtBoundConf>  (489) 
nan

>  <Num_Resolved_Atoms>  (489) 
nan

>  <Num_Not_Resolved_Atoms>  (489) 
nan

$$$$
CHEMBL207060
     RDKit          3D

  0  0  0  0  0  0  0  0  0  0999 V3000
M  V30 BEGIN CTAB
M  V30 COUNTS 49 50 0 0 0
M  V30 BEGIN ATOM
M  V30 1 C 3.847186 -2.703137 -2.654815 0
M  V30 2 O 5.013240 -2.491745 -1.932887 0
M  V30 3 C 4.685834 -2.206002 -0.570456 0
M  V30 4 C 5.926982 -1.975513 0.223070 0
M  V30 5 O 5.824213 -1.711759 1.546372 0
M  V30 6 C 5.069932 -0.670605 1.988144 0
M  V30 7 C 3.615607 -0.907153 1.797875 0
M  V30 8 O 2.519819 -1.480603 1.472847 0
M  V30 9 N 2.966646 0.292163 2.311832 0
M  V30 10 C 1.544202 0.540531 2.345292 0
M  V30 11 C 0.938080 1.152632 1.281827 0
M  V30 12 C -0.408277 1.445618 1.190188 0
M  V30 13 O -0.988509 2.068562 0.093419 0
M  V30 14 C -0.148528 2.428994 -1.005785 0
M  V30 15 C -1.207660 1.092990 2.256730 0
M  V30 16 N -2.611655 1.364678 2.233209 0
M  V30 17 C -3.364029 0.310140 1.680042 0
M  V30 18 O -2.707241 -0.711909 1.287947 0
M  V30 19 N -4.777968 0.351675 1.551815 0
M  V30 20 C -5.512645 -0.752171 0.978289 0
M  V30 21 C -6.889970 -0.733042 0.843775 0
M  V30 22 N -7.528476 -1.804739 0.294733 0
M  V30 23 C -6.777478 -2.857497 -0.101382 0
M  V30 24 C -7.429387 -3.993874 -0.680943 0
M  V30 25 N -7.948639 -4.928763 -1.168678 0
M  V30 26 C -5.407595 -2.910763 0.016984 0
M  V30 27 N -4.799400 -1.829555 0.567160 0
M  V30 28 C -0.621333 0.474606 3.341392 0
M  V30 29 C 0.730453 0.183725 3.426405 0
M  V30 30 Cl 1.467434 -0.597312 4.797769 0
M  V30 31 H 4.088940 -2.924278 -3.706762 0
M  V30 32 H 3.219718 -1.771571 -2.592733 0
M  V30 33 H 3.265193 -3.581864 -2.270263 0
M  V30 34 H 4.040116 -1.269911 -0.600352 0
M  V30 35 H 4.054574 -3.015993 -0.208201 0
M  V30 36 H 6.557020 -1.159202 -0.279758 0
M  V30 37 H 6.590441 -2.892301 0.081608 0
M  V30 38 H 5.221157 -0.531437 3.105322 0
M  V30 39 H 5.369563 0.297932 1.499630 0
M  V30 40 H 3.204858 1.225579 2.753954 0
M  V30 41 H 1.575193 1.432497 0.434303 0
M  V30 42 H 0.204242 1.536667 -1.559603 0
M  V30 43 H 0.769875 2.966579 -0.667498 0
M  V30 44 H -0.681175 3.142247 -1.682010 0
M  V30 45 H -3.111563 2.233366 2.572533 0
M  V30 46 H -5.316739 1.185637 1.871452 0
M  V30 47 H -7.391218 0.163692 1.195572 0
M  V30 48 H -4.838327 -3.773757 -0.312548 0
M  V30 49 H -1.249804 0.188501 4.198783 0
M  V30 END ATOM
M  V30 BEGIN BOND
M  V30 1 1 1 2
M  V30 2 1 2 3
M  V30 3 1 3 4
M  V30 4 1 4 5
M  V30 5 1 5 6
M  V30 6 1 6 7
M  V30 7 2 7 8
M  V30 8 1 7 9
M  V30 9 1 9 10
M  V30 10 2 10 11
M  V30 11 1 11 12
M  V30 12 1 12 13
M  V30 13 1 13 14
M  V30 14 2 12 15
M  V30 15 1 15 16
M  V30 16 1 16 17
M  V30 17 2 17 18
M  V30 18 1 17 19
M  V30 19 1 19 20
M  V30 20 2 20 21
M  V30 21 1 21 22
M  V30 22 2 22 23
M  V30 23 1 23 24
M  V30 24 3 24 25
M  V30 25 1 23 26
M  V30 26 2 26 27
M  V30 27 1 15 28
M  V30 28 2 28 29
M  V30 29 1 29 30
M  V30 30 1 29 10
M  V30 31 1 27 20
M  V30 32 1 1 31
M  V30 33 1 1 32
M  V30 34 1 1 33
M  V30 35 1 3 34
M  V30 36 1 3 35
M  V30 37 1 4 36
M  V30 38 1 4 37
M  V30 39 1 6 38
M  V30 40 1 6 39
M  V30 41 1 9 40
M  V30 42 1 11 41
M  V30 43 1 14 42
M  V30 44 1 14 43
M  V30 45 1 14 44
M  V30 46 1 16 45
M  V30 47 1 19 46
M  V30 48 1 21 47
M  V30 49 1 26 48
M  V30 50 1 28 49
M  V30 END BOND
M  V30 END CTAB
M  END
>  <Dataset>  (490) 
ChEMBL_Kinases

>  <Ligand_Instance>  (490) 
nan

>  <PDB_ID>  (490) 
nan

>  <Standardized_SMILES>  (490) 
COCCOCC(=O)Nc1cc(OC)c(NC(=O)Nc2cnc(C#N)cn2)cc1Cl

>  <Name>  (490) 
nan

>  <Pocket>  (490) 
nan

>  <ATP_Site>  (490) 
nan

>  <Peripheral>  (490) 
nan

>  <Num_H_Atoms_ProtBoundConf>  (490) 
nan

>  <Num_Resolved_Atoms>  (490) 
nan

>  <Num_Not_Resolved_Atoms>  (490) 
nan

$$$$
CHEMBL2070697
     RDKit          3D

  0  0  0  0  0  0  0  0  0  0999 V3000
M  V30 BEGIN CTAB
M  V30 COUNTS 44 46 0 0 0
M  V30 BEGIN ATOM
M  V30 1 N 1.854279 3.691089 3.570662 0
M  V30 2 C 1.580787 3.055107 2.328769 0
M  V30 3 O 0.893560 3.763705 1.578518 0
M  V30 4 N 2.119032 1.751496 2.147147 0
M  V30 5 C 2.031062 0.842034 1.023470 0
M  V30 6 C 2.955179 0.872790 0.043800 0
M  V30 7 C 2.796756 -0.010079 -0.965261 0
M  V30 8 C 3.566302 -0.319240 -2.229143 0
M  V30 9 C 3.071356 -1.324906 -3.025458 0
M  V30 10 C 3.842583 -1.534851 -4.159552 0
M  V30 11 C 4.993281 -0.810367 -4.464689 0
M  V30 12 C 5.378479 0.184810 -3.560959 0
M  V30 13 C 4.671189 0.464480 -2.404471 0
M  V30 14 S 1.300280 -0.909650 -0.518487 0
M  V30 15 C 1.023253 -0.013867 0.988878 0
M  V30 16 C -0.107708 -0.258878 1.908565 0
M  V30 17 O -0.157045 0.452252 2.914526 0
M  V30 18 N -1.042351 -1.275482 1.579147 0
M  V30 19 C -2.171846 -1.598077 2.392835 0 CFG=1
M  V30 20 C -3.397415 -1.155407 1.604112 0
M  V30 21 C -4.660548 -1.283396 2.431165 0
M  V30 22 C -4.634388 -2.608287 3.172212 0
M  V30 23 N -3.657930 -3.515187 2.551524 0
M  V30 24 C -2.327773 -2.976959 2.838350 0
M  V30 25 H 1.515970 3.888260 4.539974 0
M  V30 26 H 2.554440 4.280209 4.104154 0
M  V30 27 H 2.683638 1.304864 2.902753 0
M  V30 28 H 3.821093 1.515006 -0.051372 0
M  V30 29 H 2.193554 -1.881413 -2.797422 0
M  V30 30 H 3.555817 -2.307746 -4.875251 0
M  V30 31 H 5.563073 -1.006411 -5.357194 0
M  V30 32 H 6.276665 0.750360 -3.799255 0
M  V30 33 H 4.967592 1.231189 -1.707953 0
M  V30 34 H -0.916198 -1.832568 0.694820 0
M  V30 35 H -2.130930 -0.910423 3.263152 0
M  V30 36 H -3.484906 -1.672473 0.637203 0
M  V30 37 H -3.289657 -0.059516 1.389153 0
M  V30 38 H -5.513440 -1.239515 1.714545 0
M  V30 39 H -4.713302 -0.405050 3.100703 0
M  V30 40 H -5.609289 -3.118857 3.136652 0
M  V30 41 H -4.309718 -2.409315 4.210109 0
M  V30 42 H -3.881512 -3.578932 1.556178 0
M  V30 43 H -2.270590 -3.014011 3.948795 0
M  V30 44 H -1.534788 -3.687608 2.522180 0
M  V30 END ATOM
M  V30 BEGIN BOND
M  V30 1 1 1 2
M  V30 2 2 2 3
M  V30 3 1 2 4
M  V30 4 1 4 5
M  V30 5 1 5 6
M  V30 6 2 6 7
M  V30 7 1 7 8
M  V30 8 2 8 9
M  V30 9 1 9 10
M  V30 10 2 10 11
M  V30 11 1 11 12
M  V30 12 2 12 13
M  V30 13 1 7 14
M  V30 14 1 14 15
M  V30 15 1 15 16
M  V30 16 2 16 17
M  V30 17 1 16 18
M  V30 18 1 18 19
M  V30 19 1 19 20
M  V30 20 1 20 21
M  V30 21 1 21 22
M  V30 22 1 22 23
M  V30 23 1 23 24
M  V30 24 2 15 5
M  V30 25 1 24 19
M  V30 26 1 13 8
M  V30 27 1 1 25
M  V30 28 1 1 26
M  V30 29 1 4 27
M  V30 30 1 6 28
M  V30 31 1 9 29
M  V30 32 1 10 30
M  V30 33 1 11 31
M  V30 34 1 12 32
M  V30 35 1 13 33
M  V30 36 1 18 34
M  V30 37 1 19 35 CFG=1
M  V30 38 1 20 36
M  V30 39 1 20 37
M  V30 40 1 21 38
M  V30 41 1 21 39
M  V30 42 1 22 40
M  V30 43 1 22 41
M  V30 44 1 23 42
M  V30 45 1 24 43
M  V30 46 1 24 44
M  V30 END BOND
M  V30 END CTAB
M  END
>  <Dataset>  (491) 
ChEMBL_Kinases

>  <Ligand_Instance>  (491) 
nan

>  <PDB_ID>  (491) 
nan

>  <Standardized_SMILES>  (491) 
NC(=O)Nc1cc(-c2ccccc2)sc1C(=O)N[C@H]1CCCNC1

>  <Name>  (491) 
nan

>  <Pocket>  (491) 
nan

>  <ATP_Site>  (491) 
nan

>  <Peripheral>  (491) 
nan

>  <Num_H_Atoms_ProtBoundConf>  (491) 
nan

>  <Num_Resolved_Atoms>  (491) 
nan

>  <Num_Not_Resolved_Atoms>  (491) 
nan

$$$$
CHEMBL2070698
     RDKit          3D

  0  0  0  0  0  0  0  0  0  0999 V3000
M  V30 BEGIN CTAB
M  V30 COUNTS 44 46 0 0 0
M  V30 BEGIN ATOM
M  V30 1 N 4.119751 -4.213195 2.610691 0
M  V30 2 C 3.645375 -3.009816 1.979900 0
M  V30 3 O 3.985189 -2.044535 2.709344 0
M  V30 4 N 2.926985 -3.000007 0.749301 0
M  V30 5 C 2.491641 -1.789755 0.186465 0
M  V30 6 S 3.475624 -0.743299 -1.014571 0
M  V30 7 C 2.293099 0.463242 -1.182631 0
M  V30 8 C 2.533519 1.654472 -2.087869 0
M  V30 9 C 3.734221 1.721036 -2.761807 0
M  V30 10 C 4.003816 2.801181 -3.609727 0
M  V30 11 C 3.067429 3.799761 -3.771134 0
M  V30 12 C 1.867161 3.732534 -3.096992 0
M  V30 13 C 1.623406 2.659014 -2.266969 0
M  V30 14 F 0.436842 2.622612 -1.620212 0
M  V30 15 C 1.244148 0.143991 -0.423031 0
M  V30 16 C 1.336960 -1.019190 0.288894 0
M  V30 17 C 0.298038 -1.552895 1.183468 0
M  V30 18 O 0.451929 -2.612929 1.795944 0
M  V30 19 N -0.936644 -0.875924 1.389016 0
M  V30 20 C -2.019460 -1.283586 2.224189 0 CFG=1
M  V30 21 C -2.217973 -0.194987 3.284426 0
M  V30 22 C -3.362806 -0.468625 4.199974 0
M  V30 23 C -4.044053 -1.740237 3.740476 0
M  V30 24 N -4.413658 -1.654876 2.361939 0
M  V30 25 C -3.337721 -1.365711 1.462427 0
M  V30 26 H 3.926295 -4.874665 3.400460 0
M  V30 27 H 4.973985 -4.526971 2.062612 0
M  V30 28 H 2.737754 -3.925233 0.284240 0
M  V30 29 H 4.516463 0.987142 -2.692557 0
M  V30 30 H 4.940605 2.856808 -4.137940 0
M  V30 31 H 3.303102 4.622560 -4.432952 0
M  V30 32 H 1.115422 4.503535 -3.206520 0
M  V30 33 H 0.356706 0.756404 -0.357500 0
M  V30 34 H -1.118348 0.032857 0.890072 0
M  V30 35 H -1.782374 -2.246332 2.729501 0
M  V30 36 H -1.250178 -0.036627 3.828692 0
M  V30 37 H -2.404389 0.745646 2.729933 0
M  V30 38 H -4.127958 0.361281 4.163640 0
M  V30 39 H -3.008133 -0.603769 5.247680 0
M  V30 40 H -4.978929 -1.843308 4.327977 0
M  V30 41 H -3.396831 -2.619171 3.964140 0
M  V30 42 H -4.820760 -2.571155 2.066817 0
M  V30 43 H -3.513906 -0.312222 1.102702 0
M  V30 44 H -3.273458 -2.005873 0.575081 0
M  V30 END ATOM
M  V30 BEGIN BOND
M  V30 1 1 1 2
M  V30 2 2 2 3
M  V30 3 1 2 4
M  V30 4 1 4 5
M  V30 5 1 5 6
M  V30 6 1 6 7
M  V30 7 1 7 8
M  V30 8 2 8 9
M  V30 9 1 9 10
M  V30 10 2 10 11
M  V30 11 1 11 12
M  V30 12 2 12 13
M  V30 13 1 13 14
M  V30 14 2 7 15
M  V30 15 1 15 16
M  V30 16 1 16 17
M  V30 17 2 17 18
M  V30 18 1 17 19
M  V30 19 1 19 20
M  V30 20 1 20 21
M  V30 21 1 21 22
M  V30 22 1 22 23
M  V30 23 1 23 24
M  V30 24 1 24 25
M  V30 25 2 16 5
M  V30 26 1 25 20
M  V30 27 1 13 8
M  V30 28 1 1 26
M  V30 29 1 1 27
M  V30 30 1 4 28
M  V30 31 1 9 29
M  V30 32 1 10 30
M  V30 33 1 11 31
M  V30 34 1 12 32
M  V30 35 1 15 33
M  V30 36 1 19 34
M  V30 37 1 20 35 CFG=1
M  V30 38 1 21 36
M  V30 39 1 21 37
M  V30 40 1 22 38
M  V30 41 1 22 39
M  V30 42 1 23 40
M  V30 43 1 23 41
M  V30 44 1 24 42
M  V30 45 1 25 43
M  V30 46 1 25 44
M  V30 END BOND
M  V30 END CTAB
M  END
>  <Dataset>  (492) 
ChEMBL_Kinases

>  <Ligand_Instance>  (492) 
nan

>  <PDB_ID>  (492) 
nan

>  <Standardized_SMILES>  (492) 
NC(=O)Nc1sc(-c2ccccc2F)cc1C(=O)N[C@H]1CCCNC1

>  <Name>  (492) 
nan

>  <Pocket>  (492) 
nan

>  <ATP_Site>  (492) 
nan

>  <Peripheral>  (492) 
nan

>  <Num_H_Atoms_ProtBoundConf>  (492) 
nan

>  <Num_Resolved_Atoms>  (492) 
nan

>  <Num_Not_Resolved_Atoms>  (492) 
nan

$$$$
CHEMBL2070699
     RDKit          3D

  0  0  0  0  0  0  0  0  0  0999 V3000
M  V30 BEGIN CTAB
M  V30 COUNTS 44 46 0 0 0
M  V30 BEGIN ATOM
M  V30 1 N 4.353955 -3.100669 2.439729 0
M  V30 2 C 3.647062 -2.019509 1.836776 0
M  V30 3 O 3.668343 -1.196044 2.778032 0
M  V30 4 N 3.113779 -2.001734 0.521524 0
M  V30 5 C 2.457248 -0.783573 0.192360 0
M  V30 6 C 3.008770 0.326071 -0.371753 0
M  V30 7 C 2.307988 1.430779 -0.646028 0
M  V30 8 C 2.711764 2.687281 -1.234044 0
M  V30 9 C 4.034561 2.868290 -1.609577 0
M  V30 10 C 4.368316 4.097858 -2.170844 0
M  V30 11 C 3.385428 5.058300 -2.323271 0
M  V30 12 C 2.074500 4.861731 -1.944337 0
M  V30 13 C 1.729303 3.645191 -1.385574 0
M  V30 14 F 0.445164 3.395677 -0.991958 0
M  V30 15 S 0.646959 0.976898 -0.085289 0
M  V30 16 C 1.038927 -0.614913 0.451954 0
M  V30 17 C 0.137774 -1.656970 1.069794 0
M  V30 18 O 0.636730 -2.734777 1.379903 0
M  V30 19 N -1.194075 -1.240614 1.211823 0
M  V30 20 C -2.167811 -2.142271 1.790987 0 CFG=1
M  V30 21 C -2.882118 -1.552288 2.982859 0
M  V30 22 C -4.229424 -2.165007 3.210512 0
M  V30 23 C -4.441455 -3.462892 2.499521 0
M  V30 24 N -4.207795 -3.343554 1.073523 0
M  V30 25 C -3.219612 -2.370263 0.725245 0
M  V30 26 H 4.013139 -3.870459 3.059844 0
M  V30 27 H 5.338130 -3.483088 2.487065 0
M  V30 28 H 3.252505 -2.854420 -0.050875 0
M  V30 29 H 4.084224 0.325757 -0.618860 0
M  V30 30 H 4.736971 2.068360 -1.455879 0
M  V30 31 H 5.400791 4.205468 -2.450685 0
M  V30 32 H 3.697702 5.995051 -2.764222 0
M  V30 33 H 1.330151 5.644922 -2.081772 0
M  V30 34 H -1.573268 -0.307463 0.931221 0
M  V30 35 H -1.757717 -3.110463 2.078324 0
M  V30 36 H -3.009509 -0.471401 2.750106 0
M  V30 37 H -2.224300 -1.617148 3.867061 0
M  V30 38 H -5.043554 -1.442548 2.945361 0
M  V30 39 H -4.294467 -2.395166 4.307422 0
M  V30 40 H -5.535843 -3.705415 2.605118 0
M  V30 41 H -3.891405 -4.293843 2.961344 0
M  V30 42 H -4.080646 -4.246931 0.607013 0
M  V30 43 H -3.712705 -1.385766 0.533935 0
M  V30 44 H -2.756595 -2.689263 -0.235798 0
M  V30 END ATOM
M  V30 BEGIN BOND
M  V30 1 1 1 2
M  V30 2 2 2 3
M  V30 3 1 2 4
M  V30 4 1 4 5
M  V30 5 1 5 6
M  V30 6 2 6 7
M  V30 7 1 7 8
M  V30 8 2 8 9
M  V30 9 1 9 10
M  V30 10 2 10 11
M  V30 11 1 11 12
M  V30 12 2 12 13
M  V30 13 1 13 14
M  V30 14 1 7 15
M  V30 15 1 15 16
M  V30 16 1 16 17
M  V30 17 2 17 18
M  V30 18 1 17 19
M  V30 19 1 19 20
M  V30 20 1 20 21
M  V30 21 1 21 22
M  V30 22 1 22 23
M  V30 23 1 23 24
M  V30 24 1 24 25
M  V30 25 2 16 5
M  V30 26 1 25 20
M  V30 27 1 13 8
M  V30 28 1 1 26
M  V30 29 1 1 27
M  V30 30 1 4 28
M  V30 31 1 6 29
M  V30 32 1 9 30
M  V30 33 1 10 31
M  V30 34 1 11 32
M  V30 35 1 12 33
M  V30 36 1 19 34
M  V30 37 1 20 35 CFG=1
M  V30 38 1 21 36
M  V30 39 1 21 37
M  V30 40 1 22 38
M  V30 41 1 22 39
M  V30 42 1 23 40
M  V30 43 1 23 41
M  V30 44 1 24 42
M  V30 45 1 25 43
M  V30 46 1 25 44
M  V30 END BOND
M  V30 END CTAB
M  END
>  <Dataset>  (493) 
ChEMBL_Kinases

>  <Ligand_Instance>  (493) 
nan

>  <PDB_ID>  (493) 
nan

>  <Standardized_SMILES>  (493) 
NC(=O)Nc1cc(-c2ccccc2F)sc1C(=O)N[C@H]1CCCNC1

>  <Name>  (493) 
nan

>  <Pocket>  (493) 
nan

>  <ATP_Site>  (493) 
nan

>  <Peripheral>  (493) 
nan

>  <Num_H_Atoms_ProtBoundConf>  (493) 
nan

>  <Num_Resolved_Atoms>  (493) 
nan

>  <Num_Not_Resolved_Atoms>  (493) 
nan

$$$$
CHEMBL2070709
     RDKit          3D

  0  0  0  0  0  0  0  0  0  0999 V3000
M  V30 BEGIN CTAB
M  V30 COUNTS 44 46 0 0 0
M  V30 BEGIN ATOM
M  V30 1 N 4.904177 -3.663220 2.766416 0
M  V30 2 C 4.143032 -2.525511 2.357556 0
M  V30 3 O 3.857104 -1.728614 3.302661 0
M  V30 4 N 3.749624 -2.321055 1.005905 0
M  V30 5 C 3.001810 -1.178389 0.678988 0
M  V30 6 S 3.716553 0.441449 0.177814 0
M  V30 7 C 2.177418 1.226112 -0.024824 0
M  V30 8 C 1.978239 2.657696 -0.449994 0
M  V30 9 C 0.689763 3.168165 -0.576301 0
M  V30 10 C 0.547900 4.484471 -0.968056 0
M  V30 11 C 1.681868 5.232779 -1.215959 0
M  V30 12 F 1.549383 6.538380 -1.604646 0
M  V30 13 C 2.969052 4.727663 -1.091201 0
M  V30 14 C 3.112363 3.403038 -0.696988 0
M  V30 15 F 4.343073 2.869788 -0.562669 0
M  V30 16 C 1.245736 0.335440 0.262185 0
M  V30 17 C 1.648152 -0.923920 0.631426 0
M  V30 18 C 0.725009 -2.028484 0.982200 0
M  V30 19 O 1.173961 -3.140948 1.306003 0
M  V30 20 N -0.687172 -1.855475 0.960574 0
M  V30 21 C -1.612933 -2.925830 1.301023 0 CFG=1
M  V30 22 C -2.512033 -2.545060 2.448939 0
M  V30 23 C -3.416211 -1.397577 2.166711 0
M  V30 24 C -3.779368 -1.150334 0.757206 0
M  V30 25 N -3.014324 -1.813000 -0.246600 0
M  V30 26 C -2.528857 -3.100992 0.110812 0
M  V30 27 H 4.365740 -4.428795 3.244980 0
M  V30 28 H 5.841162 -4.133358 2.814841 0
M  V30 29 H 4.040170 -3.046471 0.295382 0
M  V30 30 H -0.165559 2.536279 -0.369039 0
M  V30 31 H -0.450491 4.859507 -1.059881 0
M  V30 32 H 3.859544 5.310711 -1.284637 0
M  V30 33 H 0.188296 0.602633 0.204601 0
M  V30 34 H -1.106837 -0.924092 0.690515 0
M  V30 35 H -1.074457 -3.844484 1.564616 0
M  V30 36 H -1.944887 -2.434215 3.400888 0
M  V30 37 H -3.171939 -3.447119 2.612935 0
M  V30 38 H -2.876983 -0.479740 2.548579 0
M  V30 39 H -4.352376 -1.428140 2.798174 0
M  V30 40 H -3.856273 -0.046394 0.568129 0
M  V30 41 H -4.843928 -1.499720 0.607128 0
M  V30 42 H -3.428570 -1.750228 -1.181405 0
M  V30 43 H -3.365123 -3.808714 0.376125 0
M  V30 44 H -1.922921 -3.495053 -0.733524 0
M  V30 END ATOM
M  V30 BEGIN BOND
M  V30 1 1 1 2
M  V30 2 2 2 3
M  V30 3 1 2 4
M  V30 4 1 4 5
M  V30 5 1 5 6
M  V30 6 1 6 7
M  V30 7 1 7 8
M  V30 8 2 8 9
M  V30 9 1 9 10
M  V30 10 2 10 11
M  V30 11 1 11 12
M  V30 12 1 11 13
M  V30 13 2 13 14
M  V30 14 1 14 15
M  V30 15 2 7 16
M  V30 16 1 16 17
M  V30 17 1 17 18
M  V30 18 2 18 19
M  V30 19 1 18 20
M  V30 20 1 20 21
M  V30 21 1 21 22
M  V30 22 1 22 23
M  V30 23 1 23 24
M  V30 24 1 24 25
M  V30 25 1 25 26
M  V30 26 2 17 5
M  V30 27 1 26 21
M  V30 28 1 14 8
M  V30 29 1 1 27
M  V30 30 1 1 28
M  V30 31 1 4 29
M  V30 32 1 9 30
M  V30 33 1 10 31
M  V30 34 1 13 32
M  V30 35 1 16 33
M  V30 36 1 20 34
M  V30 37 1 21 35 CFG=1
M  V30 38 1 22 36
M  V30 39 1 22 37
M  V30 40 1 23 38
M  V30 41 1 23 39
M  V30 42 1 24 40
M  V30 43 1 24 41
M  V30 44 1 25 42
M  V30 45 1 26 43
M  V30 46 1 26 44
M  V30 END BOND
M  V30 END CTAB
M  END
>  <Dataset>  (494) 
ChEMBL_Kinases

>  <Ligand_Instance>  (494) 
nan

>  <PDB_ID>  (494) 
nan

>  <Standardized_SMILES>  (494) 
NC(=O)Nc1sc(-c2ccc(F)cc2F)cc1C(=O)N[C@H]1CCCNC1

>  <Name>  (494) 
nan

>  <Pocket>  (494) 
nan

>  <ATP_Site>  (494) 
nan

>  <Peripheral>  (494) 
nan

>  <Num_H_Atoms_ProtBoundConf>  (494) 
nan

>  <Num_Resolved_Atoms>  (494) 
nan

>  <Num_Not_Resolved_Atoms>  (494) 
nan

$$$$
CHEMBL2070701
     RDKit          3D

  0  0  0  0  0  0  0  0  0  0999 V3000
M  V30 BEGIN CTAB
M  V30 COUNTS 44 46 0 0 0
M  V30 BEGIN ATOM
M  V30 1 N 4.055441 -4.253715 2.977754 0
M  V30 2 C 3.666710 -2.947392 2.578240 0
M  V30 3 O 3.727986 -1.902142 3.259476 0
M  V30 4 N 3.152487 -2.794221 1.271544 0
M  V30 5 C 2.705650 -1.633284 0.643993 0
M  V30 6 S 3.845246 -0.506731 -0.365579 0
M  V30 7 C 2.623722 0.615013 -0.770821 0
M  V30 8 C 2.780297 1.878745 -1.617673 0
M  V30 9 C 1.688482 2.701645 -1.865093 0
M  V30 10 C 1.934938 3.827772 -2.646981 0
M  V30 11 C 3.198191 4.088625 -3.135284 0
M  V30 12 F 3.356041 5.204004 -3.887754 0
M  V30 13 C 4.263208 3.251853 -2.872183 0
M  V30 14 C 4.053489 2.114962 -2.092775 0
M  V30 15 C 1.501387 0.205337 -0.223414 0
M  V30 16 C 1.517976 -0.953048 0.512061 0
M  V30 17 C 0.349160 -1.558584 1.196402 0
M  V30 18 O 0.500573 -2.625388 1.839094 0
M  V30 19 N -0.935373 -0.957013 1.139364 0
M  V30 20 C -2.135337 -1.421748 1.741748 0 CFG=1
M  V30 21 C -2.553122 -0.339907 2.740330 0
M  V30 22 C -3.740180 -0.774487 3.531692 0
M  V30 23 C -4.313681 -2.016778 2.917535 0
M  V30 24 N -4.477802 -1.914042 1.495588 0
M  V30 25 C -3.282125 -1.589299 0.779925 0
M  V30 26 H 3.415400 -4.856404 3.554087 0
M  V30 27 H 4.978987 -4.683834 2.728687 0
M  V30 28 H 3.069655 -3.636756 0.632516 0
M  V30 29 H 0.731391 2.455307 -1.464037 0
M  V30 30 H 1.048853 4.435771 -2.809567 0
M  V30 31 H 5.249516 3.472388 -3.264208 0
M  V30 32 H 4.860479 1.429627 -1.860657 0
M  V30 33 H 0.556785 0.762842 -0.338869 0
M  V30 34 H -1.086022 -0.054465 0.601348 0
M  V30 35 H -1.990877 -2.356183 2.301750 0
M  V30 36 H -2.691568 0.599767 2.171536 0
M  V30 37 H -1.643859 -0.176589 3.372010 0
M  V30 38 H -4.491817 0.046724 3.480203 0
M  V30 39 H -3.472369 -0.965413 4.581909 0
M  V30 40 H -5.351479 -2.114210 3.338462 0
M  V30 41 H -3.790794 -2.928133 3.229467 0
M  V30 42 H -4.961740 -2.776168 1.162262 0
M  V30 43 H -3.429093 -0.609273 0.261091 0
M  V30 44 H -3.086927 -2.415997 0.052408 0
M  V30 END ATOM
M  V30 BEGIN BOND
M  V30 1 1 1 2
M  V30 2 2 2 3
M  V30 3 1 2 4
M  V30 4 1 4 5
M  V30 5 1 5 6
M  V30 6 1 6 7
M  V30 7 1 7 8
M  V30 8 2 8 9
M  V30 9 1 9 10
M  V30 10 2 10 11
M  V30 11 1 11 12
M  V30 12 1 11 13
M  V30 13 2 13 14
M  V30 14 2 7 15
M  V30 15 1 15 16
M  V30 16 1 16 17
M  V30 17 2 17 18
M  V30 18 1 17 19
M  V30 19 1 19 20
M  V30 20 1 20 21
M  V30 21 1 21 22
M  V30 22 1 22 23
M  V30 23 1 23 24
M  V30 24 1 24 25
M  V30 25 2 16 5
M  V30 26 1 25 20
M  V30 27 1 14 8
M  V30 28 1 1 26
M  V30 29 1 1 27
M  V30 30 1 4 28
M  V30 31 1 9 29
M  V30 32 1 10 30
M  V30 33 1 13 31
M  V30 34 1 14 32
M  V30 35 1 15 33
M  V30 36 1 19 34
M  V30 37 1 20 35 CFG=1
M  V30 38 1 21 36
M  V30 39 1 21 37
M  V30 40 1 22 38
M  V30 41 1 22 39
M  V30 42 1 23 40
M  V30 43 1 23 41
M  V30 44 1 24 42
M  V30 45 1 25 43
M  V30 46 1 25 44
M  V30 END BOND
M  V30 END CTAB
M  END
>  <Dataset>  (495) 
ChEMBL_Kinases

>  <Ligand_Instance>  (495) 
nan

>  <PDB_ID>  (495) 
nan

>  <Standardized_SMILES>  (495) 
NC(=O)Nc1sc(-c2ccc(F)cc2)cc1C(=O)N[C@H]1CCCNC1

>  <Name>  (495) 
nan

>  <Pocket>  (495) 
nan

>  <ATP_Site>  (495) 
nan

>  <Peripheral>  (495) 
nan

>  <Num_H_Atoms_ProtBoundConf>  (495) 
nan

>  <Num_Resolved_Atoms>  (495) 
nan

>  <Num_Not_Resolved_Atoms>  (495) 
nan

$$$$
CHEMBL2070702
     RDKit          3D

  0  0  0  0  0  0  0  0  0  0999 V3000
M  V30 BEGIN CTAB
M  V30 COUNTS 44 46 0 0 0
M  V30 BEGIN ATOM
M  V30 1 N 4.018777 -3.865437 -0.414254 0
M  V30 2 C 3.453863 -2.605476 -0.102677 0
M  V30 3 O 3.699983 -2.152988 1.045314 0
M  V30 4 N 2.644389 -1.802440 -0.941219 0
M  V30 5 C 2.177798 -0.561025 -0.426624 0
M  V30 6 C 2.792489 0.644585 -0.512686 0
M  V30 7 C 2.243453 1.752846 0.019265 0
M  V30 8 C 2.721147 3.119245 0.041724 0
M  V30 9 C 3.934869 3.475826 -0.549571 0
M  V30 10 C 4.314893 4.802023 -0.482051 0
M  V30 11 C 3.537262 5.758472 0.143292 0
M  V30 12 F 3.939672 7.051668 0.191646 0
M  V30 13 C 2.343426 5.374646 0.718022 0
M  V30 14 C 1.921321 4.050058 0.673907 0
M  V30 15 S 0.698562 1.144956 0.740013 0
M  V30 16 C 0.938168 -0.537237 0.258250 0
M  V30 17 C 0.014447 -1.656538 0.531669 0
M  V30 18 O 0.327879 -2.767834 0.128257 0
M  V30 19 N -1.157199 -1.369687 1.233963 0
M  V30 20 C -2.156880 -2.324314 1.583241 0 CFG=1
M  V30 21 C -2.576169 -2.444877 2.974253 0
M  V30 22 C -4.040296 -2.837292 3.035509 0
M  V30 23 C -4.240691 -3.813667 1.867912 0
M  V30 24 N -4.232141 -3.098450 0.604663 0
M  V30 25 C -3.370298 -1.966777 0.733168 0
M  V30 26 H 3.794101 -4.845637 -0.706003 0
M  V30 27 H 5.061622 -4.022178 -0.380734 0
M  V30 28 H 2.451792 -2.206525 -1.903624 0
M  V30 29 H 3.764645 0.739176 -1.026212 0
M  V30 30 H 4.487922 2.677828 -1.018798 0
M  V30 31 H 5.258645 5.052573 -0.947375 0
M  V30 32 H 1.679994 6.085450 1.229641 0
M  V30 33 H 0.988141 3.763847 1.126031 0
M  V30 34 H -1.431135 -0.417477 1.582619 0
M  V30 35 H -1.822738 -3.310166 1.194623 0
M  V30 36 H -2.341113 -1.602538 3.647700 0
M  V30 37 H -2.029063 -3.296718 3.439722 0
M  V30 38 H -4.711955 -1.979178 2.948028 0
M  V30 39 H -4.218376 -3.421366 3.958304 0
M  V30 40 H -3.427112 -4.547029 1.832722 0
M  V30 41 H -5.203729 -4.343757 1.970255 0
M  V30 42 H -3.860626 -3.687647 -0.183774 0
M  V30 43 H -3.933311 -1.152084 1.253320 0
M  V30 44 H -3.058542 -1.527680 -0.233844 0
M  V30 END ATOM
M  V30 BEGIN BOND
M  V30 1 1 1 2
M  V30 2 2 2 3
M  V30 3 1 2 4
M  V30 4 1 4 5
M  V30 5 1 5 6
M  V30 6 2 6 7
M  V30 7 1 7 8
M  V30 8 2 8 9
M  V30 9 1 9 10
M  V30 10 2 10 11
M  V30 11 1 11 12
M  V30 12 1 11 13
M  V30 13 2 13 14
M  V30 14 1 7 15
M  V30 15 1 15 16
M  V30 16 1 16 17
M  V30 17 2 17 18
M  V30 18 1 17 19
M  V30 19 1 19 20
M  V30 20 1 20 21
M  V30 21 1 21 22
M  V30 22 1 22 23
M  V30 23 1 23 24
M  V30 24 1 24 25
M  V30 25 2 16 5
M  V30 26 1 25 20
M  V30 27 1 14 8
M  V30 28 1 1 26
M  V30 29 1 1 27
M  V30 30 1 4 28
M  V30 31 1 6 29
M  V30 32 1 9 30
M  V30 33 1 10 31
M  V30 34 1 13 32
M  V30 35 1 14 33
M  V30 36 1 19 34
M  V30 37 1 20 35 CFG=3
M  V30 38 1 21 36
M  V30 39 1 21 37
M  V30 40 1 22 38
M  V30 41 1 22 39
M  V30 42 1 23 40
M  V30 43 1 23 41
M  V30 44 1 24 42
M  V30 45 1 25 43
M  V30 46 1 25 44
M  V30 END BOND
M  V30 END CTAB
M  END
>  <Dataset>  (496) 
ChEMBL_Kinases

>  <Ligand_Instance>  (496) 
nan

>  <PDB_ID>  (496) 
nan

>  <Standardized_SMILES>  (496) 
NC(=O)Nc1cc(-c2ccc(F)cc2)sc1C(=O)N[C@H]1CCCNC1

>  <Name>  (496) 
nan

>  <Pocket>  (496) 
nan

>  <ATP_Site>  (496) 
nan

>  <Peripheral>  (496) 
nan

>  <Num_H_Atoms_ProtBoundConf>  (496) 
nan

>  <Num_Resolved_Atoms>  (496) 
nan

>  <Num_Not_Resolved_Atoms>  (496) 
nan

$$$$
CHEMBL2070703
     RDKit          3D

  0  0  0  0  0  0  0  0  0  0999 V3000
M  V30 BEGIN CTAB
M  V30 COUNTS 44 46 0 0 0
M  V30 BEGIN ATOM
M  V30 1 N 4.295042 -4.037548 2.714297 0
M  V30 2 C 3.800421 -2.769267 2.296852 0
M  V30 3 O 3.856011 -1.831494 3.109655 0
M  V30 4 N 3.266167 -2.643323 0.964047 0
M  V30 5 C 2.753049 -1.450844 0.443626 0
M  V30 6 S 3.805624 -0.219969 -0.462015 0
M  V30 7 C 2.436032 0.902339 -0.745307 0
M  V30 8 C 2.592037 2.174236 -1.464173 0
M  V30 9 C 1.462118 2.968091 -1.626882 0
M  V30 10 C 1.533124 4.169046 -2.287888 0
M  V30 11 C 2.747785 4.568954 -2.785527 0
M  V30 12 C 3.861859 3.764778 -2.613587 0
M  V30 13 Cl 5.436120 4.258490 -3.245354 0
M  V30 14 C 3.826665 2.548168 -1.952526 0
M  V30 15 C 1.375791 0.339904 -0.196578 0
M  V30 16 C 1.526431 -0.877903 0.421837 0
M  V30 17 C 0.408119 -1.603631 1.071747 0
M  V30 18 O 0.623145 -2.708260 1.614532 0
M  V30 19 N -0.893192 -1.092219 1.100293 0
M  V30 20 C -2.070033 -1.644068 1.670536 0 CFG=1
M  V30 21 C -2.515723 -0.664992 2.758279 0
M  V30 22 C -3.586668 -1.322956 3.563070 0
M  V30 23 C -4.073921 -2.546798 2.837796 0
M  V30 24 N -4.349172 -2.320060 1.456104 0
M  V30 25 C -3.225225 -1.787809 0.721049 0
M  V30 26 H 3.619251 -4.663678 3.221576 0
M  V30 27 H 5.139388 -4.664154 2.724117 0
M  V30 28 H 3.260057 -3.503194 0.338144 0
M  V30 29 H 0.498532 2.653049 -1.233290 0
M  V30 30 H 0.644862 4.774332 -2.405713 0
M  V30 31 H 2.839539 5.495131 -3.303909 0
M  V30 32 H 4.710273 1.941116 -1.832673 0
M  V30 33 H 0.421819 0.863362 -0.255307 0
M  V30 34 H -1.128097 -0.173171 0.661724 0
M  V30 35 H -1.802875 -2.623994 2.134392 0
M  V30 36 H -2.857126 0.238650 2.212276 0
M  V30 37 H -1.605963 -0.422721 3.349725 0
M  V30 38 H -4.395583 -0.569051 3.706085 0
M  V30 39 H -3.160972 -1.604332 4.540592 0
M  V30 40 H -5.074429 -2.783872 3.305070 0
M  V30 41 H -3.452953 -3.424327 3.066136 0
M  V30 42 H -4.655514 -3.199505 1.021445 0
M  V30 43 H -2.969151 -2.427968 -0.158885 0
M  V30 44 H -3.524774 -0.749361 0.422198 0
M  V30 END ATOM
M  V30 BEGIN BOND
M  V30 1 1 1 2
M  V30 2 2 2 3
M  V30 3 1 2 4
M  V30 4 1 4 5
M  V30 5 1 5 6
M  V30 6 1 6 7
M  V30 7 1 7 8
M  V30 8 2 8 9
M  V30 9 1 9 10
M  V30 10 2 10 11
M  V30 11 1 11 12
M  V30 12 1 12 13
M  V30 13 2 12 14
M  V30 14 2 7 15
M  V30 15 1 15 16
M  V30 16 1 16 17
M  V30 17 2 17 18
M  V30 18 1 17 19
M  V30 19 1 19 20
M  V30 20 1 20 21
M  V30 21 1 21 22
M  V30 22 1 22 23
M  V30 23 1 23 24
M  V30 24 1 24 25
M  V30 25 2 16 5
M  V30 26 1 25 20
M  V30 27 1 14 8
M  V30 28 1 1 26
M  V30 29 1 1 27
M  V30 30 1 4 28
M  V30 31 1 9 29
M  V30 32 1 10 30
M  V30 33 1 11 31
M  V30 34 1 14 32
M  V30 35 1 15 33
M  V30 36 1 19 34
M  V30 37 1 20 35 CFG=1
M  V30 38 1 21 36
M  V30 39 1 21 37
M  V30 40 1 22 38
M  V30 41 1 22 39
M  V30 42 1 23 40
M  V30 43 1 23 41
M  V30 44 1 24 42
M  V30 45 1 25 43
M  V30 46 1 25 44
M  V30 END BOND
M  V30 END CTAB
M  END
>  <Dataset>  (497) 
ChEMBL_Kinases

>  <Ligand_Instance>  (497) 
nan

>  <PDB_ID>  (497) 
nan

>  <Standardized_SMILES>  (497) 
NC(=O)Nc1sc(-c2cccc(Cl)c2)cc1C(=O)N[C@H]1CCCNC1

>  <Name>  (497) 
nan

>  <Pocket>  (497) 
nan

>  <ATP_Site>  (497) 
nan

>  <Peripheral>  (497) 
nan

>  <Num_H_Atoms_ProtBoundConf>  (497) 
nan

>  <Num_Resolved_Atoms>  (497) 
nan

>  <Num_Not_Resolved_Atoms>  (497) 
nan

$$$$
CHEMBL2070704
     RDKit          3D

  0  0  0  0  0  0  0  0  0  0999 V3000
M  V30 BEGIN CTAB
M  V30 COUNTS 44 46 0 0 0
M  V30 BEGIN ATOM
M  V30 1 N 4.166542 -3.222641 2.167869 0
M  V30 2 C 3.488674 -2.081556 1.683662 0
M  V30 3 O 3.255040 -1.162609 2.522310 0
M  V30 4 N 3.048269 -1.863255 0.368569 0
M  V30 5 C 2.398951 -0.604889 0.221151 0
M  V30 6 C 2.970089 0.577077 -0.103550 0
M  V30 7 C 2.283739 1.715094 -0.221221 0
M  V30 8 C 2.686381 3.061013 -0.551885 0
M  V30 9 C 4.015683 3.349595 -0.818740 0
M  V30 10 C 4.364177 4.646511 -1.131135 0
M  V30 11 C 3.365118 5.620235 -1.166934 0
M  V30 12 C 2.022542 5.334281 -0.898512 0
M  V30 13 Cl 0.826848 6.613696 -0.963992 0
M  V30 14 C 1.700922 4.027736 -0.588435 0
M  V30 15 S 0.595151 1.174596 0.152356 0
M  V30 16 C 0.990242 -0.507677 0.423998 0
M  V30 17 C 0.039613 -1.621294 0.794926 0
M  V30 18 O 0.532815 -2.736002 0.938280 0
M  V30 19 N -1.300234 -1.233113 0.929301 0
M  V30 20 C -2.260507 -2.247627 1.282088 0 CFG=1
M  V30 21 C -3.055902 -1.901555 2.519864 0
M  V30 22 C -3.885627 -3.127606 2.840870 0
M  V30 23 C -3.889095 -4.128793 1.728556 0
M  V30 24 N -4.044646 -3.577068 0.419908 0
M  V30 25 C -3.285070 -2.388418 0.174593 0
M  V30 26 H 3.870235 -3.862660 2.953541 0
M  V30 27 H 4.891401 -3.963938 2.266247 0
M  V30 28 H 3.236367 -2.615370 -0.330137 0
M  V30 29 H 4.058110 0.632908 -0.286220 0
M  V30 30 H 4.730975 2.527194 -0.768235 0
M  V30 31 H 5.389567 4.870628 -1.337283 0
M  V30 32 H 3.672046 6.634747 -1.416702 0
M  V30 33 H 0.662857 3.815298 -0.382605 0
M  V30 34 H -1.676327 -0.267550 0.797057 0
M  V30 35 H -1.796440 -3.251544 1.407838 0
M  V30 36 H -3.766765 -1.095389 2.229658 0
M  V30 37 H -2.461859 -1.532460 3.353652 0
M  V30 38 H -4.901291 -2.879975 3.206109 0
M  V30 39 H -3.374705 -3.608184 3.717257 0
M  V30 40 H -4.801322 -4.772250 1.899591 0
M  V30 41 H -3.038783 -4.812173 1.834812 0
M  V30 42 H -3.734277 -4.281959 -0.285563 0
M  V30 43 H -3.913407 -1.475197 0.068145 0
M  V30 44 H -2.678213 -2.448675 -0.773472 0
M  V30 END ATOM
M  V30 BEGIN BOND
M  V30 1 1 1 2
M  V30 2 2 2 3
M  V30 3 1 2 4
M  V30 4 1 4 5
M  V30 5 1 5 6
M  V30 6 2 6 7
M  V30 7 1 7 8
M  V30 8 2 8 9
M  V30 9 1 9 10
M  V30 10 2 10 11
M  V30 11 1 11 12
M  V30 12 1 12 13
M  V30 13 2 12 14
M  V30 14 1 7 15
M  V30 15 1 15 16
M  V30 16 1 16 17
M  V30 17 2 17 18
M  V30 18 1 17 19
M  V30 19 1 19 20
M  V30 20 1 20 21
M  V30 21 1 21 22
M  V30 22 1 22 23
M  V30 23 1 23 24
M  V30 24 1 24 25
M  V30 25 2 16 5
M  V30 26 1 25 20
M  V30 27 1 14 8
M  V30 28 1 1 26
M  V30 29 1 1 27
M  V30 30 1 4 28
M  V30 31 1 6 29
M  V30 32 1 9 30
M  V30 33 1 10 31
M  V30 34 1 11 32
M  V30 35 1 14 33
M  V30 36 1 19 34
M  V30 37 1 20 35 CFG=1
M  V30 38 1 21 36
M  V30 39 1 21 37
M  V30 40 1 22 38
M  V30 41 1 22 39
M  V30 42 1 23 40
M  V30 43 1 23 41
M  V30 44 1 24 42
M  V30 45 1 25 43
M  V30 46 1 25 44
M  V30 END BOND
M  V30 END CTAB
M  END
>  <Dataset>  (498) 
ChEMBL_Kinases

>  <Ligand_Instance>  (498) 
nan

>  <PDB_ID>  (498) 
nan

>  <Standardized_SMILES>  (498) 
NC(=O)Nc1cc(-c2cccc(Cl)c2)sc1C(=O)N[C@H]1CCCNC1

>  <Name>  (498) 
nan

>  <Pocket>  (498) 
nan

>  <ATP_Site>  (498) 
nan

>  <Peripheral>  (498) 
nan

>  <Num_H_Atoms_ProtBoundConf>  (498) 
nan

>  <Num_Resolved_Atoms>  (498) 
nan

>  <Num_Not_Resolved_Atoms>  (498) 
nan

$$$$
CHEMBL2070705
     RDKit          3D

  0  0  0  0  0  0  0  0  0  0999 V3000
M  V30 BEGIN CTAB
M  V30 COUNTS 44 46 0 0 0
M  V30 BEGIN ATOM
M  V30 1 N 4.668577 -4.241064 2.491260 0
M  V30 2 C 4.001255 -3.015699 2.228146 0
M  V30 3 O 3.753791 -2.190108 3.154344 0
M  V30 4 N 3.573485 -2.649659 0.902624 0
M  V30 5 C 2.911841 -1.432273 0.648441 0
M  V30 6 S 3.772100 0.162411 0.210396 0
M  V30 7 C 2.325721 1.073843 0.077930 0
M  V30 8 C 2.213091 2.550345 -0.272424 0
M  V30 9 C 0.983243 3.158072 -0.344868 0
M  V30 10 C 0.949701 4.499043 -0.667304 0
M  V30 11 F -0.293323 5.072161 -0.730608 0
M  V30 12 C 2.118336 5.175353 -0.901836 0
M  V30 13 C 3.352399 4.551337 -0.825705 0
M  V30 14 F 4.462285 5.284063 -1.070355 0
M  V30 15 C 3.404740 3.204858 -0.503085 0
M  V30 16 C 1.314081 0.265712 0.334938 0
M  V30 17 C 1.594505 -1.043927 0.634652 0
M  V30 18 C 0.585859 -2.083130 0.947377 0
M  V30 19 O 0.938041 -3.243960 1.206642 0
M  V30 20 N -0.805608 -1.785877 0.960255 0
M  V30 21 C -1.850207 -2.729496 1.252116 0 CFG=1
M  V30 22 C -2.762369 -2.273339 2.355661 0
M  V30 23 C -3.395778 -0.930985 2.022290 0
M  V30 24 C -4.007940 -0.933517 0.661529 0
M  V30 25 N -3.208995 -1.567618 -0.361624 0
M  V30 26 C -2.724838 -2.856247 0.009273 0
M  V30 27 H 4.049759 -5.022176 2.820440 0
M  V30 28 H 5.647281 -4.642948 2.460038 0
M  V30 29 H 3.784671 -3.343351 0.142122 0
M  V30 30 H 0.078854 2.600362 -0.155066 0
M  V30 31 H 1.973813 6.227222 -1.147576 0
M  V30 32 H 4.374328 2.729222 -0.446799 0
M  V30 33 H 0.270406 0.620748 0.312550 0
M  V30 34 H -1.119255 -0.812808 0.744006 0
M  V30 35 H -1.460639 -3.736803 1.470816 0
M  V30 36 H -2.305377 -2.282076 3.345318 0
M  V30 37 H -3.615137 -3.003259 2.378563 0
M  V30 38 H -2.645062 -0.102570 2.054100 0
M  V30 39 H -4.202978 -0.677527 2.739351 0
M  V30 40 H -4.312006 0.085858 0.398895 0
M  V30 41 H -4.961741 -1.532520 0.737548 0
M  V30 42 H -2.474906 -0.985647 -0.775327 0
M  V30 43 H -3.512830 -3.604167 0.181249 0
M  V30 44 H -2.045287 -3.208674 -0.802705 0
M  V30 END ATOM
M  V30 BEGIN BOND
M  V30 1 1 1 2
M  V30 2 2 2 3
M  V30 3 1 2 4
M  V30 4 1 4 5
M  V30 5 1 5 6
M  V30 6 1 6 7
M  V30 7 1 7 8
M  V30 8 2 8 9
M  V30 9 1 9 10
M  V30 10 1 10 11
M  V30 11 2 10 12
M  V30 12 1 12 13
M  V30 13 1 13 14
M  V30 14 2 13 15
M  V30 15 2 7 16
M  V30 16 1 16 17
M  V30 17 1 17 18
M  V30 18 2 18 19
M  V30 19 1 18 20
M  V30 20 1 20 21
M  V30 21 1 21 22
M  V30 22 1 22 23
M  V30 23 1 23 24
M  V30 24 1 24 25
M  V30 25 1 25 26
M  V30 26 2 17 5
M  V30 27 1 26 21
M  V30 28 1 15 8
M  V30 29 1 1 27
M  V30 30 1 1 28
M  V30 31 1 4 29
M  V30 32 1 9 30
M  V30 33 1 12 31
M  V30 34 1 15 32
M  V30 35 1 16 33
M  V30 36 1 20 34
M  V30 37 1 21 35 CFG=1
M  V30 38 1 22 36
M  V30 39 1 22 37
M  V30 40 1 23 38
M  V30 41 1 23 39
M  V30 42 1 24 40
M  V30 43 1 24 41
M  V30 44 1 25 42
M  V30 45 1 26 43
M  V30 46 1 26 44
M  V30 END BOND
M  V30 END CTAB
M  END
>  <Dataset>  (499) 
ChEMBL_Kinases

>  <Ligand_Instance>  (499) 
nan

>  <PDB_ID>  (499) 
nan

>  <Standardized_SMILES>  (499) 
NC(=O)Nc1sc(-c2cc(F)cc(F)c2)cc1C(=O)N[C@H]1CCCNC1

>  <Name>  (499) 
nan

>  <Pocket>  (499) 
nan

>  <ATP_Site>  (499) 
nan

>  <Peripheral>  (499) 
nan

>  <Num_H_Atoms_ProtBoundConf>  (499) 
nan

>  <Num_Resolved_Atoms>  (499) 
nan

>  <Num_Not_Resolved_Atoms>  (499) 
nan

$$$$
CHEMBL2070706
     RDKit          3D

  0  0  0  0  0  0  0  0  0  0999 V3000
M  V30 BEGIN CTAB
M  V30 COUNTS 44 46 0 0 0
M  V30 BEGIN ATOM
M  V30 1 N 3.213734 -4.748629 2.467072 0
M  V30 2 C 2.859232 -3.453754 2.029926 0
M  V30 3 O 3.036226 -2.598945 2.928676 0
M  V30 4 N 2.358678 -3.131730 0.729827 0
M  V30 5 C 2.039009 -1.749366 0.432972 0
M  V30 6 C 3.003632 -0.971449 -0.079447 0
M  V30 7 C 2.673549 0.336228 -0.351725 0
M  V30 8 C 3.376063 1.545687 -0.907874 0
M  V30 9 C 2.651909 2.705696 -1.019520 0
M  V30 10 C 3.385317 3.769084 -1.543478 0
M  V30 11 F 2.748128 4.966165 -1.692148 0
M  V30 12 C 4.720311 3.622348 -1.904537 0
M  V30 13 C 5.345317 2.405451 -1.746750 0
M  V30 14 F 6.664003 2.236156 -2.096577 0
M  V30 15 C 4.683383 1.285042 -1.228148 0
M  V30 16 S 0.890629 0.387293 0.171925 0
M  V30 17 C 0.824990 -1.265106 0.661681 0
M  V30 18 C -0.375361 -1.988699 1.229659 0
M  V30 19 O -0.250803 -3.170474 1.527827 0
M  V30 20 N -1.560590 -1.216861 1.368190 0
M  V30 21 C -2.777875 -1.741818 1.884788 0 CFG=1
M  V30 22 C -3.402161 -0.939320 2.985069 0
M  V30 23 C -3.758301 0.456745 2.557640 0
M  V30 24 C -4.506616 0.528579 1.257467 0
M  V30 25 N -3.991874 -0.374610 0.248125 0
M  V30 26 C -3.791365 -1.709391 0.747750 0
M  V30 27 H 2.635574 -5.589050 2.687758 0
M  V30 28 H 4.263845 -4.858738 2.583786 0
M  V30 29 H 2.288192 -4.003383 0.130988 0
M  V30 30 H 4.033816 -1.182425 -0.330379 0
M  V30 31 H 1.618643 2.753394 -0.721310 0
M  V30 32 H 5.258602 4.486496 -2.312942 0
M  V30 33 H 5.159838 0.330512 -1.100304 0
M  V30 34 H -1.575376 -0.199969 1.083707 0
M  V30 35 H -2.666707 -2.804894 2.152886 0
M  V30 36 H -2.825180 -0.884247 3.903494 0
M  V30 37 H -4.374284 -1.434752 3.228812 0
M  V30 38 H -4.385187 0.978512 3.306377 0
M  V30 39 H -2.839215 1.071613 2.459898 0
M  V30 40 H -4.479175 1.572570 0.894188 0
M  V30 41 H -5.579577 0.314654 1.503103 0
M  V30 42 H -3.162189 0.042172 -0.183530 0
M  V30 43 H -3.298874 -2.263070 -0.105811 0
M  V30 44 H -4.734024 -2.184541 1.038474 0
M  V30 END ATOM
M  V30 BEGIN BOND
M  V30 1 1 1 2
M  V30 2 2 2 3
M  V30 3 1 2 4
M  V30 4 1 4 5
M  V30 5 1 5 6
M  V30 6 2 6 7
M  V30 7 1 7 8
M  V30 8 2 8 9
M  V30 9 1 9 10
M  V30 10 1 10 11
M  V30 11 2 10 12
M  V30 12 1 12 13
M  V30 13 1 13 14
M  V30 14 2 13 15
M  V30 15 1 7 16
M  V30 16 1 16 17
M  V30 17 1 17 18
M  V30 18 2 18 19
M  V30 19 1 18 20
M  V30 20 1 20 21
M  V30 21 1 21 22
M  V30 22 1 22 23
M  V30 23 1 23 24
M  V30 24 1 24 25
M  V30 25 1 25 26
M  V30 26 2 17 5
M  V30 27 1 26 21
M  V30 28 1 15 8
M  V30 29 1 1 27
M  V30 30 1 1 28
M  V30 31 1 4 29
M  V30 32 1 6 30
M  V30 33 1 9 31
M  V30 34 1 12 32
M  V30 35 1 15 33
M  V30 36 1 20 34
M  V30 37 1 21 35 CFG=1
M  V30 38 1 22 36
M  V30 39 1 22 37
M  V30 40 1 23 38
M  V30 41 1 23 39
M  V30 42 1 24 40
M  V30 43 1 24 41
M  V30 44 1 25 42
M  V30 45 1 26 43
M  V30 46 1 26 44
M  V30 END BOND
M  V30 END CTAB
M  END
>  <Dataset>  (500) 
ChEMBL_Kinases

>  <Ligand_Instance>  (500) 
nan

>  <PDB_ID>  (500) 
nan

>  <Standardized_SMILES>  (500) 
NC(=O)Nc1cc(-c2cc(F)cc(F)c2)sc1C(=O)N[C@H]1CCCNC1

>  <Name>  (500) 
nan

>  <Pocket>  (500) 
nan

>  <ATP_Site>  (500) 
nan

>  <Peripheral>  (500) 
nan

>  <Num_H_Atoms_ProtBoundConf>  (500) 
nan

>  <Num_Resolved_Atoms>  (500) 
nan

>  <Num_Not_Resolved_Atoms>  (500) 
nan

$$$$
CHEMBL2070707
     RDKit          3D

  0  0  0  0  0  0  0  0  0  0999 V3000
M  V30 BEGIN CTAB
M  V30 COUNTS 44 46 0 0 0
M  V30 BEGIN ATOM
M  V30 1 N 4.685414 -3.588145 3.227065 0
M  V30 2 C 3.979129 -2.477745 2.638271 0
M  V30 3 O 4.010826 -1.870948 3.756382 0
M  V30 4 N 3.554982 -2.418561 1.274441 0
M  V30 5 C 2.879278 -1.315752 0.778509 0
M  V30 6 S 3.714072 0.155966 0.018664 0
M  V30 7 C 2.229161 1.016113 -0.314068 0
M  V30 8 C 2.155502 2.353444 -0.957517 0
M  V30 9 C 0.952576 2.958495 -1.182427 0
M  V30 10 C 0.872565 4.202160 -1.780193 0
M  V30 11 C 2.073136 4.820230 -2.147495 0
M  V30 12 C 3.301954 4.215317 -1.924120 0
M  V30 13 F 4.462843 4.813255 -2.279446 0
M  V30 14 C 3.332217 2.972847 -1.324115 0
M  V30 15 F 4.558129 2.402324 -1.117239 0
M  V30 16 C 1.228522 0.242611 0.117007 0
M  V30 17 C 1.560916 -0.964508 0.682825 0
M  V30 18 C 0.555358 -1.922330 1.203404 0
M  V30 19 O 0.933640 -3.002284 1.705065 0
M  V30 20 N -0.840856 -1.649744 1.150149 0
M  V30 21 C -1.814888 -2.597251 1.663934 0 CFG=1
M  V30 22 C -2.592723 -1.908830 2.765604 0
M  V30 23 C -3.203332 -0.661187 2.191028 0
M  V30 24 C -3.860553 -0.888668 0.861378 0
M  V30 25 N -3.968279 -2.262541 0.495270 0
M  V30 26 C -2.783822 -3.047436 0.620594 0
M  V30 27 H 4.965843 -4.604367 3.115707 0
M  V30 28 H 5.016893 -4.576423 3.223177 0
M  V30 29 H 3.828659 -3.289926 0.769233 0
M  V30 30 H 0.044813 2.424538 -0.872446 0
M  V30 31 H -0.086081 4.677817 -1.956260 0
M  V30 32 H 2.008016 5.781817 -2.609488 0
M  V30 33 H 0.206149 0.582822 0.009960 0
M  V30 34 H -1.187325 -0.756151 0.736923 0
M  V30 35 H -1.290915 -3.496251 2.069606 0
M  V30 36 H -1.838318 -1.561975 3.527918 0
M  V30 37 H -3.337438 -2.559422 3.232162 0
M  V30 38 H -2.448936 0.142027 2.064220 0
M  V30 39 H -3.918851 -0.249282 2.952488 0
M  V30 40 H -3.431999 -0.285044 0.031831 0
M  V30 41 H -4.919236 -0.504232 0.948961 0
M  V30 42 H -4.806265 -2.671967 0.956440 0
M  V30 43 H -3.129445 -4.083210 0.907069 0
M  V30 44 H -2.253447 -3.218421 -0.352888 0
M  V30 END ATOM
M  V30 BEGIN BOND
M  V30 1 1 1 2
M  V30 2 2 2 3
M  V30 3 1 2 4
M  V30 4 1 4 5
M  V30 5 1 5 6
M  V30 6 1 6 7
M  V30 7 1 7 8
M  V30 8 2 8 9
M  V30 9 1 9 10
M  V30 10 2 10 11
M  V30 11 1 11 12
M  V30 12 1 12 13
M  V30 13 2 12 14
M  V30 14 1 14 15
M  V30 15 2 7 16
M  V30 16 1 16 17
M  V30 17 1 17 18
M  V30 18 2 18 19
M  V30 19 1 18 20
M  V30 20 1 20 21
M  V30 21 1 21 22
M  V30 22 1 22 23
M  V30 23 1 23 24
M  V30 24 1 24 25
M  V30 25 1 25 26
M  V30 26 2 17 5
M  V30 27 1 26 21
M  V30 28 1 14 8
M  V30 29 1 1 27
M  V30 30 1 1 28
M  V30 31 1 4 29
M  V30 32 1 9 30
M  V30 33 1 10 31
M  V30 34 1 11 32
M  V30 35 1 16 33
M  V30 36 1 20 34
M  V30 37 1 21 35 CFG=1
M  V30 38 1 22 36
M  V30 39 1 22 37
M  V30 40 1 23 38
M  V30 41 1 23 39
M  V30 42 1 24 40
M  V30 43 1 24 41
M  V30 44 1 25 42
M  V30 45 1 26 43
M  V30 46 1 26 44
M  V30 END BOND
M  V30 END CTAB
M  END
>  <Dataset>  (501) 
ChEMBL_Kinases

>  <Ligand_Instance>  (501) 
nan

>  <PDB_ID>  (501) 
nan

>  <Standardized_SMILES>  (501) 
NC(=O)Nc1sc(-c2cccc(F)c2F)cc1C(=O)N[C@H]1CCCNC1

>  <Name>  (501) 
nan

>  <Pocket>  (501) 
nan

>  <ATP_Site>  (501) 
nan

>  <Peripheral>  (501) 
nan

>  <Num_H_Atoms_ProtBoundConf>  (501) 
nan

>  <Num_Resolved_Atoms>  (501) 
nan

>  <Num_Not_Resolved_Atoms>  (501) 
nan

$$$$
CHEMBL2070708
     RDKit          3D

  0  0  0  0  0  0  0  0  0  0999 V3000
M  V30 BEGIN CTAB
M  V30 COUNTS 44 46 0 0 0
M  V30 BEGIN ATOM
M  V30 1 N 0.661715 -3.042313 5.310327 0
M  V30 2 C 0.885632 -2.046923 4.300061 0
M  V30 3 O 0.547018 -0.842603 4.496267 0
M  V30 4 N 1.501686 -2.478674 3.078560 0
M  V30 5 C 1.674181 -1.390578 2.142463 0
M  V30 6 C 2.810633 -0.667327 2.166737 0
M  V30 7 C 2.898895 0.351555 1.243916 0
M  V30 8 C 3.878325 1.415359 0.841670 0
M  V30 9 C 3.556645 2.265666 -0.178640 0
M  V30 10 C 4.476299 3.218798 -0.512429 0
M  V30 11 C 5.673345 3.346125 0.122546 0
M  V30 12 C 5.996224 2.488168 1.150980 0
M  V30 13 F 7.159672 2.549884 1.827721 0
M  V30 14 C 5.061929 1.527355 1.482878 0
M  V30 15 F 5.360780 0.680468 2.485444 0
M  V30 16 S 1.304322 0.226579 0.355141 0
M  V30 17 C 0.709537 -1.117960 1.270329 0
M  V30 18 C -0.622470 -1.789928 1.072910 0
M  V30 19 O -0.901052 -2.739672 1.808294 0
M  V30 20 N -1.456073 -1.288545 0.064488 0
M  V30 21 C -2.726179 -1.975639 -0.079317 0 CFG=1
M  V30 22 C -3.884368 -1.041771 0.196178 0
M  V30 23 C -3.757540 0.138325 -0.708259 0
M  V30 24 C -3.447198 -0.247769 -2.112705 0
M  V30 25 N -3.547514 -1.653634 -2.372394 0
M  V30 26 C -2.807321 -2.487818 -1.477572 0
M  V30 27 H -0.194393 -3.560899 4.957151 0
M  V30 28 H 1.460550 -2.791050 5.938196 0
M  V30 29 H 1.768310 -3.483051 2.951589 0
M  V30 30 H 3.667705 -0.777874 2.815112 0
M  V30 31 H 2.639614 2.227083 -0.721683 0
M  V30 32 H 4.249645 3.906158 -1.316047 0
M  V30 33 H 6.402044 4.094021 -0.134881 0
M  V30 34 H -1.252801 -0.498959 -0.564744 0
M  V30 35 H -2.833537 -2.806035 0.648852 0
M  V30 36 H -4.816103 -1.589267 -0.021584 0
M  V30 37 H -3.892772 -0.729014 1.252600 0
M  V30 38 H -4.620912 0.846323 -0.600035 0
M  V30 39 H -2.877749 0.737107 -0.329838 0
M  V30 40 H -2.500951 0.185870 -2.496287 0
M  V30 41 H -4.251858 0.229549 -2.747422 0
M  V30 42 H -3.509963 -1.919343 -3.354031 0
M  V30 43 H -1.769683 -2.646014 -1.895142 0
M  V30 44 H -3.276382 -3.492552 -1.479812 0
M  V30 END ATOM
M  V30 BEGIN BOND
M  V30 1 1 1 2
M  V30 2 2 2 3
M  V30 3 1 2 4
M  V30 4 1 4 5
M  V30 5 1 5 6
M  V30 6 2 6 7
M  V30 7 1 7 8
M  V30 8 2 8 9
M  V30 9 1 9 10
M  V30 10 2 10 11
M  V30 11 1 11 12
M  V30 12 1 12 13
M  V30 13 2 12 14
M  V30 14 1 14 15
M  V30 15 1 7 16
M  V30 16 1 16 17
M  V30 17 1 17 18
M  V30 18 2 18 19
M  V30 19 1 18 20
M  V30 20 1 20 21
M  V30 21 1 21 22
M  V30 22 1 22 23
M  V30 23 1 23 24
M  V30 24 1 24 25
M  V30 25 1 25 26
M  V30 26 2 17 5
M  V30 27 1 26 21
M  V30 28 1 14 8
M  V30 29 1 1 27
M  V30 30 1 1 28
M  V30 31 1 4 29
M  V30 32 1 6 30
M  V30 33 1 9 31
M  V30 34 1 10 32
M  V30 35 1 11 33
M  V30 36 1 20 34
M  V30 37 1 21 35 CFG=1
M  V30 38 1 22 36
M  V30 39 1 22 37
M  V30 40 1 23 38
M  V30 41 1 23 39
M  V30 42 1 24 40
M  V30 43 1 24 41
M  V30 44 1 25 42
M  V30 45 1 26 43
M  V30 46 1 26 44
M  V30 END BOND
M  V30 END CTAB
M  END
>  <Dataset>  (502) 
ChEMBL_Kinases

>  <Ligand_Instance>  (502) 
nan

>  <PDB_ID>  (502) 
nan

>  <Standardized_SMILES>  (502) 
NC(=O)Nc1cc(-c2cccc(F)c2F)sc1C(=O)N[C@H]1CCCNC1

>  <Name>  (502) 
nan

>  <Pocket>  (502) 
nan

>  <ATP_Site>  (502) 
nan

>  <Peripheral>  (502) 
nan

>  <Num_H_Atoms_ProtBoundConf>  (502) 
nan

>  <Num_Resolved_Atoms>  (502) 
nan

>  <Num_Not_Resolved_Atoms>  (502) 
nan

$$$$
CHEMBL2070700
     RDKit          3D

  0  0  0  0  0  0  0  0  0  0999 V3000
M  V30 BEGIN CTAB
M  V30 COUNTS 44 46 0 0 0
M  V30 BEGIN ATOM
M  V30 1 N 4.329395 -4.243057 2.187853 0
M  V30 2 C 3.830553 -2.964957 1.847032 0
M  V30 3 O 3.982561 -2.005165 2.637473 0
M  V30 4 N 3.167051 -2.860033 0.582046 0
M  V30 5 C 2.648501 -1.625538 0.179868 0
M  V30 6 S 3.706010 -0.442644 -0.794668 0
M  V30 7 C 2.396343 0.797507 -0.899716 0
M  V30 8 C 2.565818 2.067506 -1.579892 0
M  V30 9 C 1.504844 2.966191 -1.613699 0
M  V30 10 C 1.665042 4.158332 -2.252590 0
M  V30 11 C 2.850626 4.471258 -2.853630 0
M  V30 12 C 3.906069 3.590272 -2.826310 0
M  V30 13 F 5.050704 3.946376 -3.432774 0
M  V30 14 C 3.763977 2.377038 -2.184051 0
M  V30 15 C 1.359026 0.279405 -0.255252 0
M  V30 16 C 1.470752 -0.969382 0.308053 0
M  V30 17 C 0.401406 -1.646968 1.042000 0
M  V30 18 O 0.611535 -2.790422 1.516893 0
M  V30 19 N -0.865670 -1.038946 1.227411 0
M  V30 20 C -2.035779 -1.495323 1.892267 0 CFG=1
M  V30 21 C -2.351861 -0.509340 2.998661 0
M  V30 22 C -3.560258 -0.994924 3.730176 0
M  V30 23 C -4.066629 -2.301627 3.177387 0
M  V30 24 N -4.294080 -2.256974 1.756260 0
M  V30 25 C -3.252044 -1.604715 1.019191 0
M  V30 26 H 3.614604 -4.651856 2.844328 0
M  V30 27 H 4.719504 -5.165526 2.415014 0
M  V30 28 H 3.061463 -3.702468 -0.056429 0
M  V30 29 H 0.572714 2.693837 -1.128385 0
M  V30 30 H 0.813678 4.824338 -2.252990 0
M  V30 31 H 2.897231 5.443542 -3.342838 0
M  V30 32 H 4.578287 1.675343 -2.152314 0
M  V30 33 H 0.436988 0.872029 -0.193177 0
M  V30 34 H -1.051326 -0.076766 0.831161 0
M  V30 35 H -1.798744 -2.512852 2.296005 0
M  V30 36 H -2.515399 0.467190 2.487652 0
M  V30 37 H -1.469961 -0.403153 3.691848 0
M  V30 38 H -4.340468 -0.206582 3.728811 0
M  V30 39 H -3.303328 -1.165885 4.799644 0
M  V30 40 H -5.063900 -2.470373 3.641308 0
M  V30 41 H -3.436314 -3.137390 3.505276 0
M  V30 42 H -4.439780 -3.256370 1.462732 0
M  V30 43 H -3.055531 -2.223228 0.112882 0
M  V30 44 H -3.605725 -0.578517 0.777070 0
M  V30 END ATOM
M  V30 BEGIN BOND
M  V30 1 1 1 2
M  V30 2 2 2 3
M  V30 3 1 2 4
M  V30 4 1 4 5
M  V30 5 1 5 6
M  V30 6 1 6 7
M  V30 7 1 7 8
M  V30 8 2 8 9
M  V30 9 1 9 10
M  V30 10 2 10 11
M  V30 11 1 11 12
M  V30 12 1 12 13
M  V30 13 2 12 14
M  V30 14 2 7 15
M  V30 15 1 15 16
M  V30 16 1 16 17
M  V30 17 2 17 18
M  V30 18 1 17 19
M  V30 19 1 19 20
M  V30 20 1 20 21
M  V30 21 1 21 22
M  V30 22 1 22 23
M  V30 23 1 23 24
M  V30 24 1 24 25
M  V30 25 2 16 5
M  V30 26 1 25 20
M  V30 27 1 14 8
M  V30 28 1 1 26
M  V30 29 1 1 27
M  V30 30 1 4 28
M  V30 31 1 9 29
M  V30 32 1 10 30
M  V30 33 1 11 31
M  V30 34 1 14 32
M  V30 35 1 15 33
M  V30 36 1 19 34
M  V30 37 1 20 35 CFG=1
M  V30 38 1 21 36
M  V30 39 1 21 37
M  V30 40 1 22 38
M  V30 41 1 22 39
M  V30 42 1 23 40
M  V30 43 1 23 41
M  V30 44 1 24 42
M  V30 45 1 25 43
M  V30 46 1 25 44
M  V30 END BOND
M  V30 END CTAB
M  END
>  <Dataset>  (503) 
ChEMBL_Kinases

>  <Ligand_Instance>  (503) 
nan

>  <PDB_ID>  (503) 
nan

>  <Standardized_SMILES>  (503) 
NC(=O)Nc1sc(-c2cccc(F)c2)cc1C(=O)N[C@H]1CCCNC1

>  <Name>  (503) 
nan

>  <Pocket>  (503) 
nan

>  <ATP_Site>  (503) 
nan

>  <Peripheral>  (503) 
nan

>  <Num_H_Atoms_ProtBoundConf>  (503) 
nan

>  <Num_Resolved_Atoms>  (503) 
nan

>  <Num_Not_Resolved_Atoms>  (503) 
nan

$$$$
CHEMBL207238
     RDKit          3D

  0  0  0  0  0  0  0  0  0  0999 V3000
M  V30 BEGIN CTAB
M  V30 COUNTS 41 43 0 0 0
M  V30 BEGIN ATOM
M  V30 1 C -0.527917 -5.828211 0.329772 0
M  V30 2 C -0.761578 -4.467588 0.836388 0
M  V30 3 C 0.184012 -3.688927 1.446624 0
M  V30 4 C 0.014254 -2.411382 1.935846 0
M  V30 5 C 1.156502 -1.660914 2.557719 0
M  V30 6 O 1.661010 -0.818108 1.690728 0
M  V30 7 C 2.148792 -0.002248 0.851658 0
M  V30 8 C 1.518228 1.033793 0.201124 0
M  V30 9 C 2.126637 1.875570 -0.698803 0
M  V30 10 C 3.462960 1.635115 -0.942392 0
M  V30 11 C 4.233485 2.449466 -1.876104 0
M  V30 12 N 3.566148 3.506939 -2.534730 0
M  V30 13 O 5.415179 2.451427 -2.270305 0
M  V30 14 C 4.196521 0.627936 -0.349997 0
M  V30 15 C 3.505985 -0.188454 0.556285 0
M  V30 16 C -1.229307 -1.816452 1.818451 0
M  V30 17 C -1.655229 -0.602295 2.212111 0
M  V30 18 N -0.849111 0.368119 2.876454 0
M  V30 19 C -2.983254 -0.260860 1.966653 0
M  V30 20 C -3.701653 0.985792 2.288139 0
M  V30 21 N -5.059329 1.095269 1.931280 0
M  V30 22 O -3.107287 1.907031 2.860445 0
M  V30 23 S -3.694014 -1.634373 1.170672 0
M  V30 24 C -2.130382 -2.633815 1.204786 0
M  V30 25 N -1.960503 -3.894929 0.721876 0
M  V30 26 H -1.489235 -6.406826 0.374326 0
M  V30 27 H -0.149883 -5.794425 -0.724677 0
M  V30 28 H 0.192173 -6.335316 1.013343 0
M  V30 29 H 1.196013 -4.120855 1.565252 0
M  V30 30 H 1.920652 -2.464480 2.817457 0
M  V30 31 H 0.864760 -1.285955 3.570212 0
M  V30 32 H 0.470599 1.226334 0.384107 0
M  V30 33 H 1.627136 2.683138 -1.203088 0
M  V30 34 H 3.224240 4.496937 -2.699135 0
M  V30 35 H 3.105186 4.337342 -2.952682 0
M  V30 36 H 5.237689 0.510438 -0.596456 0
M  V30 37 H 4.117258 -0.984973 1.014406 0
M  V30 38 H -0.921216 0.327183 3.896830 0
M  V30 39 H -0.185516 1.134379 2.662898 0
M  V30 40 H -5.562715 1.791742 1.318998 0
M  V30 41 H -5.624454 1.761384 1.328610 0
M  V30 END ATOM
M  V30 BEGIN BOND
M  V30 1 1 1 2
M  V30 2 2 2 3
M  V30 3 1 3 4
M  V30 4 1 4 5
M  V30 5 1 5 6
M  V30 6 1 6 7
M  V30 7 2 7 8
M  V30 8 1 8 9
M  V30 9 2 9 10
M  V30 10 1 10 11
M  V30 11 1 11 12
M  V30 12 2 11 13
M  V30 13 1 10 14
M  V30 14 2 14 15
M  V30 15 2 4 16
M  V30 16 1 16 17
M  V30 17 1 17 18
M  V30 18 2 17 19
M  V30 19 1 19 20
M  V30 20 1 20 21
M  V30 21 2 20 22
M  V30 22 1 19 23
M  V30 23 1 23 24
M  V30 24 2 24 25
M  V30 25 1 25 2
M  V30 26 1 15 7
M  V30 27 1 24 16
M  V30 28 1 1 26
M  V30 29 1 1 27
M  V30 30 1 1 28
M  V30 31 1 3 29
M  V30 32 1 5 30
M  V30 33 1 5 31
M  V30 34 1 8 32
M  V30 35 1 9 33
M  V30 36 1 12 34
M  V30 37 1 12 35
M  V30 38 1 14 36
M  V30 39 1 15 37
M  V30 40 1 18 38
M  V30 41 1 18 39
M  V30 42 1 21 40
M  V30 43 1 21 41
M  V30 END BOND
M  V30 END CTAB
M  END
>  <Dataset>  (504) 
ChEMBL_Kinases

>  <Ligand_Instance>  (504) 
nan

>  <PDB_ID>  (504) 
nan

>  <Standardized_SMILES>  (504) 
Cc1cc(COc2ccc(C(N)=O)cc2)c2c(N)c(C(N)=O)sc2n1

>  <Name>  (504) 
nan

>  <Pocket>  (504) 
nan

>  <ATP_Site>  (504) 
nan

>  <Peripheral>  (504) 
nan

>  <Num_H_Atoms_ProtBoundConf>  (504) 
nan

>  <Num_Resolved_Atoms>  (504) 
nan

>  <Num_Not_Resolved_Atoms>  (504) 
nan

$$$$
CHEMBL207217
     RDKit          3D

  0  0  0  0  0  0  0  0  0  0999 V3000
M  V30 BEGIN CTAB
M  V30 COUNTS 59 65 0 0 0
M  V30 BEGIN ATOM
M  V30 1 C 2.987184 -3.691170 5.805109 0
M  V30 2 C 1.923846 -2.799147 5.706589 0
M  V30 3 C 1.295429 -2.692638 4.500231 0
M  V30 4 C 1.693301 -3.434135 3.423650 0
M  V30 5 C 1.123020 -3.403721 2.172537 0
M  V30 6 C 0.057202 -2.699735 1.463923 0
M  V30 7 C 0.400059 -1.328325 0.951693 0 CFG=1
M  V30 8 C 0.795767 -0.347250 2.023567 0
M  V30 9 O 1.065546 0.910293 1.509768 0
M  V30 10 C 0.250005 1.782780 0.853493 0
M  V30 11 C 1.048989 2.897971 0.542371 0
M  V30 12 N 0.568444 3.993093 -0.124675 0
M  V30 13 C -0.715397 4.052204 -0.520318 0
M  V30 14 C -1.550396 2.964551 -0.232249 0
M  V30 15 C -2.974813 2.838758 -0.576019 0
M  V30 16 C -3.560662 1.597041 -0.847746 0
M  V30 17 C -4.903110 1.533206 -1.162795 0
M  V30 18 C -5.664966 2.672499 -1.211849 0
M  V30 19 N -6.989263 2.829557 -1.497933 0
M  V30 20 O -7.209605 4.097533 -1.408081 0
M  V30 21 N -6.153371 4.771819 -1.091408 0
M  V30 22 C -5.121256 3.911719 -0.950103 0
M  V30 23 C -3.766542 3.990936 -0.630433 0
M  V30 24 C -1.055742 1.871521 0.438117 0
M  V30 25 N 1.537730 -1.401127 0.012993 0
M  V30 26 C 1.662303 -1.949021 -1.289485 0
M  V30 27 C 2.866632 -1.953723 -2.004915 0
M  V30 28 C 2.890063 -2.492161 -3.265968 0
M  V30 29 C 1.807951 -3.041217 -3.904540 0
M  V30 30 N 1.587026 -3.616733 -5.107189 0
M  V30 31 O 0.316923 -3.962672 -5.165636 0
M  V30 32 N -0.258430 -3.626510 -4.051607 0
M  V30 33 C 0.616706 -3.044047 -3.214893 0
M  V30 34 C 0.577710 -2.501410 -1.935723 0
M  V30 35 C 1.880473 -4.336807 1.451422 0
M  V30 36 N 2.829506 -4.866416 2.251076 0
M  V30 37 C 2.752382 -4.341559 3.472001 0
M  V30 38 C 3.382317 -4.436440 4.713042 0
M  V30 39 H 3.563340 -3.864835 6.704695 0
M  V30 40 H 1.657117 -2.244102 6.585521 0
M  V30 41 H 0.470001 -1.998281 4.452114 0
M  V30 42 H -0.776245 -2.554809 2.232946 0
M  V30 43 H -0.434936 -3.305885 0.685777 0
M  V30 44 H -0.505275 -0.996971 0.390896 0
M  V30 45 H 0.042689 -0.331694 2.848254 0
M  V30 46 H 1.742728 -0.725974 2.467906 0
M  V30 47 H 2.110813 3.116440 0.739866 0
M  V30 48 H -1.197478 4.857906 -1.048292 0
M  V30 49 H -2.963126 0.705742 -0.808978 0
M  V30 50 H -5.329962 0.548799 -1.370810 0
M  V30 51 H -3.355649 4.956141 -0.429502 0
M  V30 52 H -1.596067 1.006899 0.715071 0
M  V30 53 H 2.455340 -0.974951 0.339820 0
M  V30 54 H 3.745609 -1.527659 -1.532369 0
M  V30 55 H 3.856866 -2.455335 -3.745899 0
M  V30 56 H -0.415614 -2.559020 -1.514779 0
M  V30 57 H 1.837618 -4.680737 0.431015 0
M  V30 58 H 3.562144 -5.578395 2.058257 0
M  V30 59 H 4.205992 -5.157734 4.710021 0
M  V30 END ATOM
M  V30 BEGIN BOND
M  V30 1 2 1 2
M  V30 2 1 2 3
M  V30 3 2 3 4
M  V30 4 1 4 5
M  V30 5 1 5 6
M  V30 6 1 6 7
M  V30 7 1 7 8
M  V30 8 1 8 9
M  V30 9 1 9 10
M  V30 10 2 10 11
M  V30 11 1 11 12
M  V30 12 2 12 13
M  V30 13 1 13 14
M  V30 14 1 14 15
M  V30 15 1 15 16
M  V30 16 2 16 17
M  V30 17 1 17 18
M  V30 18 2 18 19
M  V30 19 1 19 20
M  V30 20 1 20 21
M  V30 21 2 21 22
M  V30 22 1 22 23
M  V30 23 2 14 24
M  V30 24 1 7 25
M  V30 25 1 25 26
M  V30 26 1 26 27
M  V30 27 2 27 28
M  V30 28 1 28 29
M  V30 29 2 29 30
M  V30 30 1 30 31
M  V30 31 1 31 32
M  V30 32 2 32 33
M  V30 33 1 33 34
M  V30 34 2 5 35
M  V30 35 1 35 36
M  V30 36 1 36 37
M  V30 37 2 37 38
M  V30 38 1 38 1
M  V30 39 1 37 4
M  V30 40 1 24 10
M  V30 41 2 34 26
M  V30 42 2 23 15
M  V30 43 1 33 29
M  V30 44 1 22 18
M  V30 45 1 1 39
M  V30 46 1 2 40
M  V30 47 1 3 41
M  V30 48 1 6 42
M  V30 49 1 6 43
M  V30 50 1 7 44 CFG=3
M  V30 51 1 8 45
M  V30 52 1 8 46
M  V30 53 1 11 47
M  V30 54 1 13 48
M  V30 55 1 16 49
M  V30 56 1 17 50
M  V30 57 1 23 51
M  V30 58 1 24 52
M  V30 59 1 25 53
M  V30 60 1 27 54
M  V30 61 1 28 55
M  V30 62 1 34 56
M  V30 63 1 35 57
M  V30 64 1 36 58
M  V30 65 1 38 59
M  V30 END BOND
M  V30 END CTAB
M  END
>  <Dataset>  (505) 
ChEMBL_Kinases

>  <Ligand_Instance>  (505) 
nan

>  <PDB_ID>  (505) 
nan

>  <Standardized_SMILES>  (505) 
c1ccc2c(C[C@@H](COc3cncc(-c4ccc5nonc5c4)c3)Nc3ccc4nonc4c3)c[nH]c2c1

>  <Name>  (505) 
nan

>  <Pocket>  (505) 
nan

>  <ATP_Site>  (505) 
nan

>  <Peripheral>  (505) 
nan

>  <Num_H_Atoms_ProtBoundConf>  (505) 
nan

>  <Num_Resolved_Atoms>  (505) 
nan

>  <Num_Not_Resolved_Atoms>  (505) 
nan

$$$$
CHEMBL207215
     RDKit          3D

  0  0  0  0  0  0  0  0  0  0999 V3000
M  V30 BEGIN CTAB
M  V30 COUNTS 53 57 0 0 0
M  V30 BEGIN ATOM
M  V30 1 N -4.316287 -1.564298 2.503772 0
M  V30 2 C -3.326018 -2.653353 2.398544 0 CFG=2
M  V30 3 C -1.978349 -2.141877 2.765730 0
M  V30 4 O -1.645959 -1.062971 1.905395 0
M  V30 5 C -0.441056 -0.379647 2.013973 0
M  V30 6 C 0.379048 -0.844874 3.020410 0
M  V30 7 N 1.571140 -0.236634 3.196000 0
M  V30 8 C 1.927020 0.788741 2.402799 0
M  V30 9 C 1.078673 1.230389 1.401326 0
M  V30 10 C 1.546332 2.347827 0.589123 0
M  V30 11 C 2.366033 3.280044 1.223703 0
M  V30 12 C 2.822114 4.345565 0.468634 0
M  V30 13 C 2.450001 4.432281 -0.852975 0
M  V30 14 C 2.894541 5.492066 -1.634020 0
M  V30 15 O 3.721344 6.436020 -1.001072 0
M  V30 16 N 2.549292 5.613632 -2.944764 0
M  V30 17 C 1.754153 4.701605 -3.544688 0
M  V30 18 C 1.287372 3.627626 -2.803669 0
M  V30 19 C 1.635131 3.501362 -1.475216 0
M  V30 20 C 1.165591 2.422516 -0.734244 0
M  V30 21 C -0.154062 0.661481 1.159490 0
M  V30 22 C -3.479902 -3.321015 1.089336 0
M  V30 23 C -2.593770 -4.447861 0.799756 0
M  V30 24 C -3.064563 -5.756326 1.004736 0
M  V30 25 N -2.114302 -6.663313 0.717192 0
M  V30 26 C -1.006996 -6.034103 0.321610 0
M  V30 27 C 0.279517 -6.362809 -0.106747 0
M  V30 28 C 1.206793 -5.403085 -0.461013 0
M  V30 29 C 0.865090 -4.048361 -0.395575 0
M  V30 30 C -0.403596 -3.717411 0.026861 0
M  V30 31 C -1.312846 -4.691803 0.376319 0
M  V30 32 H -4.069539 -0.759986 1.912926 0
M  V30 33 H -4.537472 -1.320981 3.479113 0
M  V30 34 H -3.628130 -3.342291 3.252546 0
M  V30 35 H -1.965988 -1.710031 3.788288 0
M  V30 36 H -1.191414 -2.919827 2.769827 0
M  V30 37 H 0.138499 -1.651609 3.670357 0
M  V30 38 H 2.889913 1.228797 2.596702 0
M  V30 39 H 2.664631 3.230259 2.244250 0
M  V30 40 H 3.465964 5.089558 0.944112 0
M  V30 41 H 4.729291 6.309328 -1.156920 0
M  V30 42 H 1.514034 4.856799 -4.601395 0
M  V30 43 H 0.644778 2.889798 -3.284943 0
M  V30 44 H 0.532586 1.662592 -1.142954 0
M  V30 45 H -0.823164 0.998012 0.381614 0
M  V30 46 H -3.357148 -2.583752 0.234806 0
M  V30 47 H -4.570708 -3.602778 0.993114 0
M  V30 48 H -4.052695 -6.100139 1.349189 0
M  V30 49 H -2.176117 -7.702565 0.775236 0
M  V30 50 H 0.513513 -7.419444 -0.147388 0
M  V30 51 H 2.206008 -5.721012 -0.791353 0
M  V30 52 H 1.616090 -3.320873 -0.680797 0
M  V30 53 H -0.618341 -2.675252 0.050545 0
M  V30 END ATOM
M  V30 BEGIN BOND
M  V30 1 1 1 2
M  V30 2 1 2 3
M  V30 3 1 3 4
M  V30 4 1 4 5
M  V30 5 2 5 6
M  V30 6 1 6 7
M  V30 7 2 7 8
M  V30 8 1 8 9
M  V30 9 1 9 10
M  V30 10 2 10 11
M  V30 11 1 11 12
M  V30 12 2 12 13
M  V30 13 1 13 14
M  V30 14 1 14 15
M  V30 15 2 14 16
M  V30 16 1 16 17
M  V30 17 2 17 18
M  V30 18 1 18 19
M  V30 19 2 19 20
M  V30 20 2 9 21
M  V30 21 1 2 22
M  V30 22 1 22 23
M  V30 23 2 23 24
M  V30 24 1 24 25
M  V30 25 1 25 26
M  V30 26 2 26 27
M  V30 27 1 27 28
M  V30 28 2 28 29
M  V30 29 1 29 30
M  V30 30 2 30 31
M  V30 31 1 21 5
M  V30 32 1 31 23
M  V30 33 1 20 10
M  V30 34 1 31 26
M  V30 35 1 19 13
M  V30 36 1 1 32
M  V30 37 1 1 33
M  V30 38 1 2 34 CFG=1
M  V30 39 1 3 35
M  V30 40 1 3 36
M  V30 41 1 6 37
M  V30 42 1 8 38
M  V30 43 1 11 39
M  V30 44 1 12 40
M  V30 45 1 15 41
M  V30 46 1 17 42
M  V30 47 1 18 43
M  V30 48 1 20 44
M  V30 49 1 21 45
M  V30 50 1 22 46
M  V30 51 1 22 47
M  V30 52 1 24 48
M  V30 53 1 25 49
M  V30 54 1 27 50
M  V30 55 1 28 51
M  V30 56 1 29 52
M  V30 57 1 30 53
M  V30 END BOND
M  V30 END CTAB
M  END
>  <Dataset>  (506) 
ChEMBL_Kinases

>  <Ligand_Instance>  (506) 
nan

>  <PDB_ID>  (506) 
nan

>  <Standardized_SMILES>  (506) 
N[C@H](COc1cncc(-c2ccc3c(O)nccc3c2)c1)Cc1c[nH]c2ccccc12

>  <Name>  (506) 
nan

>  <Pocket>  (506) 
nan

>  <ATP_Site>  (506) 
nan

>  <Peripheral>  (506) 
nan

>  <Num_H_Atoms_ProtBoundConf>  (506) 
nan

>  <Num_Resolved_Atoms>  (506) 
nan

>  <Num_Not_Resolved_Atoms>  (506) 
nan

$$$$
CHEMBL207204
     RDKit          3D

  0  0  0  0  0  0  0  0  0  0999 V3000
M  V30 BEGIN CTAB
M  V30 COUNTS 23 24 0 0 0
M  V30 BEGIN ATOM
M  V30 1 C 0.893205 -0.074850 4.698022 0
M  V30 2 C 1.176341 -0.222357 3.232570 0
M  V30 3 C 2.434362 -0.688811 2.916701 0
M  V30 4 N 2.654109 -0.808818 1.594574 0
M  V30 5 C 1.721243 -0.497703 0.685764 0
M  V30 6 S 1.737482 -0.559166 -1.153722 0
M  V30 7 C 0.071142 0.040576 -1.333374 0
M  V30 8 C -0.531759 0.220037 -2.649654 0
M  V30 9 N 0.178986 -0.073812 -3.844198 0
M  V30 10 O -1.713747 0.647974 -2.690613 0
M  V30 11 C -0.373069 0.239163 -0.099560 0
M  V30 12 N -1.722093 0.733566 0.041315 0
M  V30 13 C 0.442089 -0.024587 0.969236 0
M  V30 14 C 0.198537 0.104999 2.322243 0
M  V30 15 H 0.688570 -1.055565 5.181858 0
M  V30 16 H 1.784775 0.426913 5.155791 0
M  V30 17 H -0.008430 0.544093 4.817996 0
M  V30 18 H 3.234872 -0.959627 3.572197 0
M  V30 19 H 0.347089 0.905257 -4.222000 0
M  V30 20 H 0.602077 -0.731226 -4.511289 0
M  V30 21 H -2.043608 1.690334 -0.225204 0
M  V30 22 H -2.515008 0.161707 0.432742 0
M  V30 23 H -0.742518 0.458745 2.717717 0
M  V30 END ATOM
M  V30 BEGIN BOND
M  V30 1 1 1 2
M  V30 2 2 2 3
M  V30 3 1 3 4
M  V30 4 2 4 5
M  V30 5 1 5 6
M  V30 6 1 6 7
M  V30 7 1 7 8
M  V30 8 1 8 9
M  V30 9 2 8 10
M  V30 10 2 7 11
M  V30 11 1 11 12
M  V30 12 1 11 13
M  V30 13 2 13 14
M  V30 14 1 14 2
M  V30 15 1 13 5
M  V30 16 1 1 15
M  V30 17 1 1 16
M  V30 18 1 1 17
M  V30 19 1 3 18
M  V30 20 1 9 19
M  V30 21 1 9 20
M  V30 22 1 12 21
M  V30 23 1 12 22
M  V30 24 1 14 23
M  V30 END BOND
M  V30 END CTAB
M  END
>  <Dataset>  (507) 
ChEMBL_Kinases

>  <Ligand_Instance>  (507) 
nan

>  <PDB_ID>  (507) 
nan

>  <Standardized_SMILES>  (507) 
Cc1cnc2sc(C(N)=O)c(N)c2c1

>  <Name>  (507) 
nan

>  <Pocket>  (507) 
nan

>  <ATP_Site>  (507) 
nan

>  <Peripheral>  (507) 
nan

>  <Num_H_Atoms_ProtBoundConf>  (507) 
nan

>  <Num_Resolved_Atoms>  (507) 
nan

>  <Num_Not_Resolved_Atoms>  (507) 
nan

$$$$
CHEMBL207173
     RDKit          3D

  0  0  0  0  0  0  0  0  0  0999 V3000
M  V30 BEGIN CTAB
M  V30 COUNTS 33 34 0 0 0
M  V30 BEGIN ATOM
M  V30 1 C -2.090345 -3.487750 4.297751 0
M  V30 2 C -1.481751 -3.790162 2.944548 0
M  V30 3 C -1.235826 -2.550708 2.167579 0
M  V30 4 O -1.546784 -1.427933 2.695158 0
M  V30 5 N -0.663862 -2.703704 0.873826 0
M  V30 6 C -0.447172 -1.462581 0.163989 0
M  V30 7 C 0.687131 -0.690066 0.203409 0
M  V30 8 C 0.741657 0.419918 -0.498491 0
M  V30 9 C 1.904188 1.384880 -0.571673 0
M  V30 10 C 3.056258 1.143192 0.141632 0
M  V30 11 C 4.076006 2.089181 0.012207 0
M  V30 12 C 3.883001 3.184657 -0.799266 0
M  V30 13 C 2.720745 3.418391 -1.512261 0
M  V30 14 C 1.713287 2.483073 -1.383916 0
M  V30 15 S -0.789384 0.577386 -1.339027 0
M  V30 16 C -1.481869 -1.022768 -0.622766 0
M  V30 17 C -2.816362 -1.488364 -0.959904 0
M  V30 18 N -3.624995 -0.729250 -1.847371 0
M  V30 19 O -3.072253 -2.559164 -0.380564 0
M  V30 20 H -1.603273 -2.561934 4.702085 0
M  V30 21 H -3.162843 -3.221710 4.088064 0
M  V30 22 H -1.973329 -4.341810 4.967549 0
M  V30 23 H -2.049951 -4.548473 2.401459 0
M  V30 24 H -0.487048 -4.272113 3.170124 0
M  V30 25 H -0.431245 -3.633826 0.494418 0
M  V30 26 H 1.537173 -1.016350 0.826767 0
M  V30 27 H 3.125617 0.261056 0.753643 0
M  V30 28 H 4.982877 1.916752 0.562010 0
M  V30 29 H 4.666544 3.932444 -0.912437 0
M  V30 30 H 2.621974 4.292472 -2.133140 0
M  V30 31 H 0.771368 2.620277 -1.927493 0
M  V30 32 H -3.598726 -1.389388 -2.680198 0
M  V30 33 H -3.989831 0.192306 -1.462605 0
M  V30 END ATOM
M  V30 BEGIN BOND
M  V30 1 1 1 2
M  V30 2 1 2 3
M  V30 3 2 3 4
M  V30 4 1 3 5
M  V30 5 1 5 6
M  V30 6 1 6 7
M  V30 7 2 7 8
M  V30 8 1 8 9
M  V30 9 2 9 10
M  V30 10 1 10 11
M  V30 11 2 11 12
M  V30 12 1 12 13
M  V30 13 2 13 14
M  V30 14 1 8 15
M  V30 15 1 15 16
M  V30 16 1 16 17
M  V30 17 1 17 18
M  V30 18 2 17 19
M  V30 19 2 16 6
M  V30 20 1 14 9
M  V30 21 1 1 20
M  V30 22 1 1 21
M  V30 23 1 1 22
M  V30 24 1 2 23
M  V30 25 1 2 24
M  V30 26 1 5 25
M  V30 27 1 7 26
M  V30 28 1 10 27
M  V30 29 1 11 28
M  V30 30 1 12 29
M  V30 31 1 13 30
M  V30 32 1 14 31
M  V30 33 1 18 32
M  V30 34 1 18 33
M  V30 END BOND
M  V30 END CTAB
M  END
>  <Dataset>  (508) 
ChEMBL_Kinases

>  <Ligand_Instance>  (508) 
nan

>  <PDB_ID>  (508) 
nan

>  <Standardized_SMILES>  (508) 
CCC(=O)Nc1cc(-c2ccccc2)sc1C(N)=O

>  <Name>  (508) 
nan

>  <Pocket>  (508) 
nan

>  <ATP_Site>  (508) 
nan

>  <Peripheral>  (508) 
nan

>  <Num_H_Atoms_ProtBoundConf>  (508) 
nan

>  <Num_Resolved_Atoms>  (508) 
nan

>  <Num_Not_Resolved_Atoms>  (508) 
nan

$$$$
CHEMBL2071622
     RDKit          3D

  0  0  0  0  0  0  0  0  0  0999 V3000
M  V30 BEGIN CTAB
M  V30 COUNTS 43 45 0 0 0
M  V30 BEGIN ATOM
M  V30 1 C -2.586942 -6.414286 2.555324 0
M  V30 2 C -1.700432 -5.522316 1.785322 0
M  V30 3 C -0.700287 -4.757143 2.353129 0
M  V30 4 C 0.103961 -3.936835 1.589612 0
M  V30 5 N 1.120982 -3.118742 1.929585 0
M  V30 6 C 1.603403 -2.516618 0.816277 0
M  V30 7 N 2.626610 -1.582645 0.488383 0
M  V30 8 C 2.268966 -0.184462 0.525279 0
M  V30 9 C 0.957945 0.130450 0.894916 0
M  V30 10 C 0.542702 1.463791 0.952331 0
M  V30 11 C 1.462391 2.437753 0.634980 0
M  V30 12 C 1.065398 3.856260 0.683421 0
M  V30 13 C 0.511351 4.343976 -0.638202 0
M  V30 14 C 2.251117 4.754469 1.043900 0
M  V30 15 C 0.003323 4.087091 1.737384 0
M  V30 16 C 2.756541 2.142690 0.269129 0
M  V30 17 C 3.160017 0.810200 0.215295 0
M  V30 18 N 0.864331 -2.977684 -0.225241 0
M  V30 19 C -0.062998 -3.849350 0.213916 0
M  V30 20 C -1.069420 -4.624322 -0.327975 0
M  V30 21 C -1.883791 -5.450482 0.418682 0
M  V30 22 C -2.914383 -6.225960 -0.249275 0
M  V30 23 N -3.743389 -6.843701 -0.796840 0
M  V30 24 H -2.123868 -6.703122 3.529482 0
M  V30 25 H -2.830146 -7.301532 1.930685 0
M  V30 26 H -3.559437 -5.906806 2.810446 0
M  V30 27 H -0.542913 -4.801382 3.423054 0
M  V30 28 H 3.630337 -1.802137 0.217431 0
M  V30 29 H 0.215146 -0.621711 1.149365 0
M  V30 30 H -0.463793 1.765713 1.233939 0
M  V30 31 H 1.125367 4.082338 -1.501276 0
M  V30 32 H -0.520192 3.908769 -0.774952 0
M  V30 33 H 0.365629 5.441459 -0.545204 0
M  V30 34 H 2.849461 4.323949 1.861364 0
M  V30 35 H 2.848139 4.903293 0.101641 0
M  V30 36 H 1.829982 5.746861 1.282453 0
M  V30 37 H -1.003433 3.801973 1.378528 0
M  V30 38 H -0.052084 5.195206 1.913039 0
M  V30 39 H 0.255697 3.589417 2.702287 0
M  V30 40 H 3.504412 2.880152 0.013517 0
M  V30 41 H 4.155901 0.468358 -0.060704 0
M  V30 42 H 0.875984 -2.795061 -1.253554 0
M  V30 43 H -1.222619 -4.577255 -1.392083 0
M  V30 END ATOM
M  V30 BEGIN BOND
M  V30 1 1 1 2
M  V30 2 2 2 3
M  V30 3 1 3 4
M  V30 4 1 4 5
M  V30 5 2 5 6
M  V30 6 1 6 7
M  V30 7 1 7 8
M  V30 8 2 8 9
M  V30 9 1 9 10
M  V30 10 2 10 11
M  V30 11 1 11 12
M  V30 12 1 12 13
M  V30 13 1 12 14
M  V30 14 1 12 15
M  V30 15 1 11 16
M  V30 16 2 16 17
M  V30 17 1 6 18
M  V30 18 1 18 19
M  V30 19 1 19 20
M  V30 20 2 20 21
M  V30 21 1 21 22
M  V30 22 3 22 23
M  V30 23 1 21 2
M  V30 24 2 19 4
M  V30 25 1 17 8
M  V30 26 1 1 24
M  V30 27 1 1 25
M  V30 28 1 1 26
M  V30 29 1 3 27
M  V30 30 1 7 28
M  V30 31 1 9 29
M  V30 32 1 10 30
M  V30 33 1 13 31
M  V30 34 1 13 32
M  V30 35 1 13 33
M  V30 36 1 14 34
M  V30 37 1 14 35
M  V30 38 1 14 36
M  V30 39 1 15 37
M  V30 40 1 15 38
M  V30 41 1 15 39
M  V30 42 1 16 40
M  V30 43 1 17 41
M  V30 44 1 18 42
M  V30 45 1 20 43
M  V30 END BOND
M  V30 END CTAB
M  END
>  <Dataset>  (509) 
ChEMBL_Kinases

>  <Ligand_Instance>  (509) 
nan

>  <PDB_ID>  (509) 
nan

>  <Standardized_SMILES>  (509) 
Cc1cc2nc(Nc3ccc(C(C)(C)C)cc3)[nH]c2cc1C#N

>  <Name>  (509) 
nan

>  <Pocket>  (509) 
nan

>  <ATP_Site>  (509) 
nan

>  <Peripheral>  (509) 
nan

>  <Num_H_Atoms_ProtBoundConf>  (509) 
nan

>  <Num_Resolved_Atoms>  (509) 
nan

>  <Num_Not_Resolved_Atoms>  (509) 
nan

$$$$
CHEMBL2071616
     RDKit          3D

  0  0  0  0  0  0  0  0  0  0999 V3000
M  V30 BEGIN CTAB
M  V30 COUNTS 43 45 0 0 0
M  V30 BEGIN ATOM
M  V30 1 C -0.871497 -1.728873 4.072371 0
M  V30 2 C 0.127687 -1.489956 2.971848 0
M  V30 3 C 1.312992 -2.192076 2.976363 0
M  V30 4 C 2.196307 -1.936342 1.951850 0
M  V30 5 C 3.502682 -2.607770 1.788844 0
M  V30 6 C 3.632722 -3.653699 2.873471 0
M  V30 7 C 3.664366 -3.292434 0.449615 0
M  V30 8 C 4.650058 -1.596928 1.932001 0
M  V30 9 C 1.884683 -1.011373 0.975583 0
M  V30 10 C 0.676690 -0.338513 1.027361 0
M  V30 11 C -0.246431 -0.555045 2.029020 0
M  V30 12 N -1.499149 0.119346 2.071205 0
M  V30 13 C -1.799660 1.047927 1.030456 0
M  V30 14 N -1.813309 2.372100 0.841155 0
M  V30 15 C -2.188298 2.658884 -0.430497 0
M  V30 16 C -2.370537 3.815442 -1.160177 0
M  V30 17 C -2.771336 3.733466 -2.482496 0
M  V30 18 C -2.984675 2.500631 -3.060661 0
M  V30 19 C -3.397833 2.401977 -4.435404 0
M  V30 20 N -3.745558 2.339062 -5.559129 0
M  V30 21 C -2.819047 1.294045 -2.381542 0
M  V30 22 C -2.413633 1.426038 -1.045029 0
M  V30 23 N -2.171712 0.427787 -0.136364 0
M  V30 24 H -0.504301 -2.428620 4.828551 0
M  V30 25 H -1.182040 -0.792964 4.548836 0
M  V30 26 H -1.793464 -2.205385 3.641469 0
M  V30 27 H 1.569881 -2.917187 3.735113 0
M  V30 28 H 4.588506 -4.179019 2.683327 0
M  V30 29 H 3.567188 -3.244605 3.891569 0
M  V30 30 H 2.836275 -4.413391 2.642262 0
M  V30 31 H 3.975160 -2.594856 -0.362447 0
M  V30 32 H 2.758084 -3.867737 0.180293 0
M  V30 33 H 4.495528 -4.020081 0.557019 0
M  V30 34 H 4.505669 -0.958055 2.823271 0
M  V30 35 H 4.659616 -1.047403 0.973450 0
M  V30 36 H 5.553936 -2.202421 2.090902 0
M  V30 37 H 2.492700 -0.710310 0.110682 0
M  V30 38 H 0.378912 0.410745 0.276186 0
M  V30 39 H -2.129184 -0.099198 2.858152 0
M  V30 40 H -2.170364 4.716570 -0.597684 0
M  V30 41 H -2.902095 4.665008 -3.011591 0
M  V30 42 H -2.996766 0.367295 -2.874723 0
M  V30 43 H -2.283785 -0.591462 -0.405690 0
M  V30 END ATOM
M  V30 BEGIN BOND
M  V30 1 1 1 2
M  V30 2 2 2 3
M  V30 3 1 3 4
M  V30 4 1 4 5
M  V30 5 1 5 6
M  V30 6 1 5 7
M  V30 7 1 5 8
M  V30 8 2 4 9
M  V30 9 1 9 10
M  V30 10 2 10 11
M  V30 11 1 11 12
M  V30 12 1 12 13
M  V30 13 2 13 14
M  V30 14 1 14 15
M  V30 15 2 15 16
M  V30 16 1 16 17
M  V30 17 2 17 18
M  V30 18 1 18 19
M  V30 19 3 19 20
M  V30 20 1 18 21
M  V30 21 2 21 22
M  V30 22 1 22 23
M  V30 23 1 11 2
M  V30 24 1 23 13
M  V30 25 1 22 15
M  V30 26 1 1 24
M  V30 27 1 1 25
M  V30 28 1 1 26
M  V30 29 1 3 27
M  V30 30 1 6 28
M  V30 31 1 6 29
M  V30 32 1 6 30
M  V30 33 1 7 31
M  V30 34 1 7 32
M  V30 35 1 7 33
M  V30 36 1 8 34
M  V30 37 1 8 35
M  V30 38 1 8 36
M  V30 39 1 9 37
M  V30 40 1 10 38
M  V30 41 1 12 39
M  V30 42 1 16 40
M  V30 43 1 17 41
M  V30 44 1 21 42
M  V30 45 1 23 43
M  V30 END BOND
M  V30 END CTAB
M  END
>  <Dataset>  (510) 
ChEMBL_Kinases

>  <Ligand_Instance>  (510) 
nan

>  <PDB_ID>  (510) 
nan

>  <Standardized_SMILES>  (510) 
Cc1cc(C(C)(C)C)ccc1Nc1nc2ccc(C#N)cc2[nH]1

>  <Name>  (510) 
nan

>  <Pocket>  (510) 
nan

>  <ATP_Site>  (510) 
nan

>  <Peripheral>  (510) 
nan

>  <Num_H_Atoms_ProtBoundConf>  (510) 
nan

>  <Num_Resolved_Atoms>  (510) 
nan

>  <Num_Not_Resolved_Atoms>  (510) 
nan

$$$$
CHEMBL207139
     RDKit          3D

  0  0  0  0  0  0  0  0  0  0999 V3000
M  V30 BEGIN CTAB
M  V30 COUNTS 76 81 0 0 0
M  V30 BEGIN ATOM
M  V30 1 C 3.965748 -3.199162 1.017091 0
M  V30 2 C 2.875468 -2.637440 1.867278 0
M  V30 3 C 3.093804 -3.212812 3.288959 0
M  V30 4 C 1.488821 -2.956607 1.505987 0
M  V30 5 C 0.925240 -2.553513 0.207833 0
M  V30 6 C 1.568744 -3.079426 -1.036017 0
M  V30 7 C 1.078659 -4.519953 -1.152367 0
M  V30 8 C -0.272662 -4.430249 -0.478445 0
M  V30 9 N -0.434924 -3.078933 0.018239 0
M  V30 10 C 3.185277 -1.153509 2.029464 0
M  V30 11 C 4.529078 -1.009246 2.694486 0
M  V30 12 O 5.693827 -1.353749 2.295316 0
M  V30 13 N 4.432219 -0.384271 3.966900 0
M  V30 14 C 3.035497 -0.062225 4.080875 0
M  V30 15 C 2.424848 0.615711 5.145470 0
M  V30 16 C 1.076435 0.917159 5.125676 0
M  V30 17 C 0.297273 0.555536 4.050784 0
M  V30 18 C -1.135301 0.821886 3.917930 0
M  V30 19 C -2.051419 0.870344 4.945631 0
M  V30 20 N -3.342971 1.140080 4.618348 0
M  V30 21 C -3.742143 1.356180 3.340902 0
M  V30 22 C -2.848838 1.317834 2.254528 0
M  V30 23 O -3.528841 1.571724 1.095937 0
M  V30 24 C -2.970115 1.588054 -0.189055 0
M  V30 25 C -2.415814 0.276157 -0.663949 0 CFG=1
M  V30 26 N -3.499314 -0.727025 -0.705418 0
M  V30 27 C -1.783891 0.388652 -2.020473 0
M  V30 28 C -2.652716 0.817572 -3.107939 0
M  V30 29 C -4.000480 0.969198 -3.350566 0
M  V30 30 N -4.280517 1.413544 -4.585827 0
M  V30 31 C -3.085254 1.557516 -5.171966 0
M  V30 32 C -2.795411 1.989690 -6.456401 0
M  V30 33 C -1.499814 2.083634 -6.915903 0
M  V30 34 C -0.471125 1.739563 -6.077572 0
M  V30 35 C -0.782730 1.312686 -4.804091 0
M  V30 36 C -2.068223 1.209791 -4.319748 0
M  V30 37 C -1.560895 1.043718 2.638601 0
M  V30 38 C 0.976871 -0.117417 3.031001 0
M  V30 39 C 2.305196 -0.455644 2.970441 0
M  V30 40 H 4.413862 -2.483460 0.299120 0
M  V30 41 H 4.840596 -3.426657 1.712944 0
M  V30 42 H 3.746162 -4.203480 0.588911 0
M  V30 43 H 4.103087 -2.880474 3.618299 0
M  V30 44 H 2.346746 -2.768206 3.970312 0
M  V30 45 H 3.029312 -4.307170 3.222905 0
M  V30 46 H 1.414776 -4.106850 1.521018 0
M  V30 47 H 0.833271 -2.683256 2.376963 0
M  V30 48 H 0.788189 -1.442929 0.108247 0
M  V30 49 H 2.638665 -3.059353 -1.102853 0
M  V30 50 H 1.076768 -2.547760 -1.896104 0
M  V30 51 H 1.709943 -5.190614 -0.568099 0
M  V30 52 H 0.955365 -4.815473 -2.202089 0
M  V30 53 H -0.439885 -5.196252 0.297435 0
M  V30 54 H -1.071540 -4.599223 -1.249987 0
M  V30 55 H -1.033654 -2.477801 -0.551189 0
M  V30 56 H 3.184175 -0.655641 1.046443 0
M  V30 57 H 5.161848 -0.186765 4.675830 0
M  V30 58 H 2.978235 0.936710 6.034329 0
M  V30 59 H 0.590610 1.439587 5.937726 0
M  V30 60 H -1.672480 0.689764 5.939085 0
M  V30 61 H -4.813684 1.544576 3.376117 0
M  V30 62 H -3.695354 2.014913 -0.905522 0
M  V30 63 H -2.075375 2.294702 -0.199412 0
M  V30 64 H -1.661761 -0.150254 0.027326 0
M  V30 65 H -3.562477 -1.161041 -1.652523 0
M  V30 66 H -4.375406 -0.242773 -0.441720 0
M  V30 67 H -0.937894 1.130115 -1.929180 0
M  V30 68 H -1.280652 -0.549546 -2.334996 0
M  V30 69 H -4.727774 0.734082 -2.590019 0
M  V30 70 H -5.267820 1.576820 -4.913611 0
M  V30 71 H -3.587838 2.267631 -7.140614 0
M  V30 72 H -1.194323 2.412624 -7.906159 0
M  V30 73 H 0.586399 1.789746 -6.374535 0
M  V30 74 H 0.047343 1.045167 -4.155061 0
M  V30 75 H -0.911477 1.052620 1.787664 0
M  V30 76 H 0.367037 -0.398958 2.188511 0
M  V30 END ATOM
M  V30 BEGIN BOND
M  V30 1 1 1 2
M  V30 2 1 2 3
M  V30 3 1 2 4
M  V30 4 1 4 5
M  V30 5 1 5 6
M  V30 6 1 6 7
M  V30 7 1 7 8
M  V30 8 1 8 9
M  V30 9 1 2 10
M  V30 10 1 10 11
M  V30 11 2 11 12
M  V30 12 1 11 13
M  V30 13 1 13 14
M  V30 14 2 14 15
M  V30 15 1 15 16
M  V30 16 2 16 17
M  V30 17 1 17 18
M  V30 18 2 18 19
M  V30 19 1 19 20
M  V30 20 2 20 21
M  V30 21 1 21 22
M  V30 22 1 22 23
M  V30 23 1 23 24
M  V30 24 1 24 25
M  V30 25 1 25 26
M  V30 26 1 25 27
M  V30 27 1 27 28
M  V30 28 2 28 29
M  V30 29 1 29 30
M  V30 30 1 30 31
M  V30 31 2 31 32
M  V30 32 1 32 33
M  V30 33 2 33 34
M  V30 34 1 34 35
M  V30 35 2 35 36
M  V30 36 2 22 37
M  V30 37 1 17 38
M  V30 38 2 38 39
M  V30 39 1 9 5
M  V30 40 1 39 10
M  V30 41 1 39 14
M  V30 42 1 37 18
M  V30 43 1 36 28
M  V30 44 1 36 31
M  V30 45 1 1 40
M  V30 46 1 1 41
M  V30 47 1 1 42
M  V30 48 1 3 43
M  V30 49 1 3 44
M  V30 50 1 3 45
M  V30 51 1 4 46
M  V30 52 1 4 47
M  V30 53 1 5 48
M  V30 54 1 6 49
M  V30 55 1 6 50
M  V30 56 1 7 51
M  V30 57 1 7 52
M  V30 58 1 8 53
M  V30 59 1 8 54
M  V30 60 1 9 55
M  V30 61 1 10 56
M  V30 62 1 13 57
M  V30 63 1 15 58
M  V30 64 1 16 59
M  V30 65 1 19 60
M  V30 66 1 21 61
M  V30 67 1 24 62
M  V30 68 1 24 63
M  V30 69 1 25 64 CFG=1
M  V30 70 1 26 65
M  V30 71 1 26 66
M  V30 72 1 27 67
M  V30 73 1 27 68
M  V30 74 1 29 69
M  V30 75 1 30 70
M  V30 76 1 32 71
M  V30 77 1 33 72
M  V30 78 1 34 73
M  V30 79 1 35 74
M  V30 80 1 37 75
M  V30 81 1 38 76
M  V30 END BOND
M  V30 END CTAB
M  END
>  <Dataset>  (511) 
ChEMBL_Kinases

>  <Ligand_Instance>  (511) 
nan

>  <PDB_ID>  (511) 
nan

>  <Standardized_SMILES>  (511) 
CC(C)(CC1CCCN1)C1C(=O)Nc2ccc(-c3cncc(OC[C@@H](N)Cc4c[nH]c5ccccc45)c3)cc21

>  <Name>  (511) 
nan

>  <Pocket>  (511) 
nan

>  <ATP_Site>  (511) 
nan

>  <Peripheral>  (511) 
nan

>  <Num_H_Atoms_ProtBoundConf>  (511) 
nan

>  <Num_Resolved_Atoms>  (511) 
nan

>  <Num_Not_Resolved_Atoms>  (511) 
nan

$$$$
CHEMBL207138
     RDKit          3D

  0  0  0  0  0  0  0  0  0  0999 V3000
M  V30 BEGIN CTAB
M  V30 COUNTS 31 33 0 0 0
M  V30 BEGIN ATOM
M  V30 1 C 1.406386 -1.988054 4.045940 0
M  V30 2 C 2.120656 -2.391438 2.766008 0
M  V30 3 C 1.158037 -2.412460 1.630599 0
M  V30 4 N 0.557060 -3.438091 0.985796 0
M  V30 5 N -0.232486 -2.980572 0.025736 0
M  V30 6 C -1.025787 -3.804210 -0.860873 0
M  V30 7 C -0.162998 -1.635499 0.023551 0
M  V30 8 C 0.706412 -1.255243 1.025430 0
M  V30 9 C 0.981530 0.095505 1.265217 0
M  V30 10 O 1.781457 0.427354 2.187890 0
M  V30 11 C 0.353415 1.049469 0.464475 0
M  V30 12 C 0.671447 2.358391 0.756854 0
M  V30 13 C 0.050231 3.327294 -0.037135 0
M  V30 14 Cl 0.395603 5.003909 0.264363 0
M  V30 15 C -0.816636 2.927904 -1.034483 0
M  V30 16 C -1.103533 1.602007 -1.288999 0
M  V30 17 C -0.503984 0.604721 -0.518686 0
M  V30 18 N -0.763016 -0.696351 -0.742775 0
M  V30 19 O -1.637880 -1.032004 -1.753524 0
M  V30 20 H 1.995668 -1.221979 4.623892 0
M  V30 21 H 0.408708 -1.514856 3.822393 0
M  V30 22 H 1.238170 -2.822447 4.736699 0
M  V30 23 H 2.904256 -1.624333 2.553232 0
M  V30 24 H 2.621955 -3.367575 2.860963 0
M  V30 25 H -2.066656 -3.779652 -0.496744 0
M  V30 26 H -0.952671 -3.435249 -1.903395 0
M  V30 27 H -0.630193 -4.839296 -0.859471 0
M  V30 28 H 1.351399 2.615669 1.543080 0
M  V30 29 H -1.288006 3.717719 -1.641078 0
M  V30 30 H -1.788095 1.322420 -2.078520 0
M  V30 31 H -2.575812 -1.337367 -1.450969 0
M  V30 END ATOM
M  V30 BEGIN BOND
M  V30 1 1 1 2
M  V30 2 1 2 3
M  V30 3 2 3 4
M  V30 4 1 4 5
M  V30 5 1 5 6
M  V30 6 1 5 7
M  V30 7 2 7 8
M  V30 8 1 8 9
M  V30 9 2 9 10
M  V30 10 1 9 11
M  V30 11 2 11 12
M  V30 12 1 12 13
M  V30 13 1 13 14
M  V30 14 2 13 15
M  V30 15 1 15 16
M  V30 16 2 16 17
M  V30 17 1 17 18
M  V30 18 1 18 19
M  V30 19 1 8 3
M  V30 20 1 17 11
M  V30 21 1 18 7
M  V30 22 1 1 20
M  V30 23 1 1 21
M  V30 24 1 1 22
M  V30 25 1 2 23
M  V30 26 1 2 24
M  V30 27 1 6 25
M  V30 28 1 6 26
M  V30 29 1 6 27
M  V30 30 1 12 28
M  V30 31 1 15 29
M  V30 32 1 16 30
M  V30 33 1 19 31
M  V30 END BOND
M  V30 END CTAB
M  END
>  <Dataset>  (512) 
ChEMBL_Kinases

>  <Ligand_Instance>  (512) 
nan

>  <PDB_ID>  (512) 
nan

>  <Standardized_SMILES>  (512) 
CCc1nn(C)c2c1c(=O)c1cc(Cl)ccc1n2O

>  <Name>  (512) 
nan

>  <Pocket>  (512) 
nan

>  <ATP_Site>  (512) 
nan

>  <Peripheral>  (512) 
nan

>  <Num_H_Atoms_ProtBoundConf>  (512) 
nan

>  <Num_Resolved_Atoms>  (512) 
nan

>  <Num_Not_Resolved_Atoms>  (512) 
nan

$$$$
CHEMBL2071277
     RDKit          3D

  0  0  0  0  0  0  0  0  0  0999 V3000
M  V30 BEGIN CTAB
M  V30 COUNTS 55 59 0 0 0
M  V30 BEGIN ATOM
M  V30 1 N -4.366237 -1.321276 -2.589586 0
M  V30 2 C -3.994954 -1.415417 -1.217841 0
M  V30 3 O -2.976136 -2.157256 -1.028455 0
M  V30 4 C -4.858104 -0.644447 -0.316266 0 CFG=2
M  V30 5 C -4.843856 0.857604 -0.576914 0 CFG=2
M  V30 6 N -4.460283 1.239770 -1.884506 0
M  V30 7 C -3.293497 1.247284 -2.689959 0
M  V30 8 N -2.048628 0.866032 -2.343026 0
M  V30 9 C -0.984697 0.873508 -3.149921 0
M  V30 10 N 0.335126 0.495221 -2.813033 0
M  V30 11 C 0.834755 0.179657 -1.521310 0
M  V30 12 C 0.313516 0.474972 -0.267666 0
M  V30 13 N 1.110339 -0.051305 0.677959 0
M  V30 14 N 2.134231 -0.679426 0.090462 0
M  V30 15 C 3.212712 -1.379747 0.755667 0
M  V30 16 C 4.318335 -0.374978 1.004525 0 CFG=1
M  V30 17 C 5.451090 -1.072141 1.692301 0
M  V30 18 C 6.574219 -1.012077 0.711181 0
M  V30 19 C 5.864837 -0.893928 -0.614437 0
M  V30 20 N 4.802868 0.050907 -0.292219 0
M  V30 21 C 1.994040 -0.555784 -1.239370 0
M  V30 22 N -1.179405 1.297200 -4.410353 0
M  V30 23 C -2.355668 1.703229 -4.888866 0
M  V30 24 C -3.419868 1.677063 -4.018366 0
M  V30 25 Cl -4.956044 2.225524 -4.708774 0
M  V30 26 C -3.983505 1.390639 0.536335 0 CFG=1
M  V30 27 C -4.883323 1.459382 1.741638 0
M  V30 28 C -5.217195 0.161617 1.932053 0
M  V30 29 C -4.374957 -0.732076 1.120301 0 CFG=2
M  V30 30 C -3.152070 0.202340 0.939995 0
M  V30 31 H -5.300999 -1.038845 -2.990121 0
M  V30 32 H -3.832199 -1.499433 -3.464485 0
M  V30 33 H -5.915258 -1.032542 -0.323169 0
M  V30 34 H -5.912894 1.214731 -0.398365 0
M  V30 35 H -5.311675 1.627695 -2.386608 0
M  V30 36 H 1.052155 0.428150 -3.562947 0
M  V30 37 H -0.593002 1.056629 -0.237987 0
M  V30 38 H 2.933041 -1.827777 1.719009 0
M  V30 39 H 3.553815 -2.184467 0.067768 0
M  V30 40 H 3.888579 0.462030 1.589940 0
M  V30 41 H 5.203246 -2.135674 1.972370 0
M  V30 42 H 5.749504 -0.501012 2.619819 0
M  V30 43 H 7.095940 -0.023788 0.860379 0
M  V30 44 H 7.265934 -1.871971 0.750372 0
M  V30 45 H 5.419567 -1.853147 -0.958339 0
M  V30 46 H 6.535464 -0.425051 -1.354946 0
M  V30 47 H 5.121144 1.025902 -0.337031 0
M  V30 48 H 2.683082 -0.969429 -1.962406 0
M  V30 49 H -2.461508 2.035195 -5.910329 0
M  V30 50 H -3.444042 2.306079 0.321001 0
M  V30 51 H -5.248997 2.279093 2.384844 0
M  V30 52 H -5.996660 -0.269274 2.583593 0
M  V30 53 H -4.141785 -1.698952 1.496662 0
M  V30 54 H -2.640889 0.358208 1.912478 0
M  V30 55 H -2.500062 -0.205563 0.165988 0
M  V30 END ATOM
M  V30 BEGIN BOND
M  V30 1 1 1 2
M  V30 2 2 2 3
M  V30 3 1 2 4
M  V30 4 1 4 5
M  V30 5 1 5 6
M  V30 6 1 6 7
M  V30 7 2 7 8
M  V30 8 1 8 9
M  V30 9 1 9 10
M  V30 10 1 10 11
M  V30 11 1 11 12
M  V30 12 2 12 13
M  V30 13 1 13 14
M  V30 14 1 14 15
M  V30 15 1 15 16
M  V30 16 1 16 17
M  V30 17 1 17 18
M  V30 18 1 18 19
M  V30 19 1 19 20
M  V30 20 1 14 21
M  V30 21 2 9 22
M  V30 22 1 22 23
M  V30 23 2 23 24
M  V30 24 1 24 25
M  V30 25 1 5 26
M  V30 26 1 26 27
M  V30 27 2 27 28
M  V30 28 1 28 29
M  V30 29 1 29 30
M  V30 30 1 29 4
M  V30 31 1 24 7
M  V30 32 1 30 26
M  V30 33 2 21 11
M  V30 34 1 20 16
M  V30 35 1 1 31
M  V30 36 1 1 32
M  V30 37 1 4 33 CFG=1
M  V30 38 1 5 34 CFG=1
M  V30 39 1 6 35
M  V30 40 1 10 36
M  V30 41 1 12 37
M  V30 42 1 15 38
M  V30 43 1 15 39
M  V30 44 1 16 40 CFG=1
M  V30 45 1 17 41
M  V30 46 1 17 42
M  V30 47 1 18 43
M  V30 48 1 18 44
M  V30 49 1 19 45
M  V30 50 1 19 46
M  V30 51 1 20 47
M  V30 52 1 21 48
M  V30 53 1 23 49
M  V30 54 1 26 50 CFG=3
M  V30 55 1 27 51
M  V30 56 1 28 52
M  V30 57 1 29 53 CFG=1
M  V30 58 1 30 54
M  V30 59 1 30 55
M  V30 END BOND
M  V30 END CTAB
M  END
>  <Dataset>  (513) 
ChEMBL_Kinases

>  <Ligand_Instance>  (513) 
nan

>  <PDB_ID>  (513) 
nan

>  <Standardized_SMILES>  (513) 
NC(=O)[C@@H]1[C@H](Nc2nc(Nc3cnn(C[C@H]4CCCN4)c3)ncc2Cl)[C@H]2C=C[C@@H]1C2

>  <Name>  (513) 
nan

>  <Pocket>  (513) 
nan

>  <ATP_Site>  (513) 
nan

>  <Peripheral>  (513) 
nan

>  <Num_H_Atoms_ProtBoundConf>  (513) 
nan

>  <Num_Resolved_Atoms>  (513) 
nan

>  <Num_Not_Resolved_Atoms>  (513) 
nan

$$$$
CHEMBL2071276
     RDKit          3D

  0  0  0  0  0  0  0  0  0  0999 V3000
M  V30 BEGIN CTAB
M  V30 COUNTS 55 59 0 0 0
M  V30 BEGIN ATOM
M  V30 1 N 1.445163 -1.063799 2.609024 0
M  V30 2 C 1.351975 -2.471617 2.649791 0
M  V30 3 O 2.407752 -2.525394 3.376886 0
M  V30 4 C 0.666275 -3.700472 2.272055 0 CFG=2
M  V30 5 C 0.614653 -3.939818 0.750517 0 CFG=2
M  V30 6 N 0.578192 -2.699325 0.056737 0
M  V30 7 C 0.707859 -2.336562 -1.312292 0
M  V30 8 N 0.583572 -1.074291 -1.772829 0
M  V30 9 C 0.724704 -0.744143 -3.052963 0
M  V30 10 N 0.573519 0.605456 -3.463221 0
M  V30 11 C 0.249900 1.715385 -2.640900 0
M  V30 12 C 0.116823 3.046637 -3.040373 0
M  V30 13 N -0.198988 3.792816 -1.978461 0
M  V30 14 N -0.287203 3.059551 -0.897285 0
M  V30 15 C -0.613349 3.541064 0.429379 0 CFG=2
M  V30 16 C 0.473421 3.206421 1.418164 0
M  V30 17 C 0.045364 2.171117 2.417835 0
M  V30 18 C -1.285688 2.415402 3.047028 0
M  V30 19 N -2.050740 3.372392 2.307569 0
M  V30 20 C -1.946972 2.990935 0.894081 0
M  V30 21 C -0.016972 1.797219 -1.285626 0
M  V30 22 N 1.006008 -1.671761 -3.982754 0
M  V30 23 C 1.148301 -2.948665 -3.626303 0
M  V30 24 C 0.996432 -3.249772 -2.302837 0
M  V30 25 Cl 1.231583 -4.951136 -1.972691 0
M  V30 26 C -0.720213 -4.667400 0.693885 0 CFG=1
M  V30 27 C -0.667766 -5.759923 1.689838 0
M  V30 28 C -0.985425 -5.327248 2.932511 0
M  V30 29 C -0.727474 -3.861495 2.760609 0 CFG=2
M  V30 30 C -1.543503 -3.636299 1.501144 0
M  V30 31 H 1.964734 -0.495173 1.875925 0
M  V30 32 H 0.998092 -0.404599 3.316071 0
M  V30 33 H 1.252088 -4.568664 2.708276 0
M  V30 34 H 1.474700 -4.555035 0.479198 0
M  V30 35 H 0.419910 -1.860010 0.650876 0
M  V30 36 H 0.712190 0.827957 -4.483616 0
M  V30 37 H 0.242498 3.450775 -4.046412 0
M  V30 38 H -0.671687 4.647563 0.400069 0
M  V30 39 H 0.822502 4.091075 1.989500 0
M  V30 40 H 1.326376 2.786289 0.847545 0
M  V30 41 H 0.876882 2.050426 3.133832 0
M  V30 42 H -0.016632 1.207986 1.863300 0
M  V30 43 H -1.140591 2.692355 4.109625 0
M  V30 44 H -1.892576 1.465538 3.087363 0
M  V30 45 H -3.029331 3.451679 2.626319 0
M  V30 46 H -1.977594 1.903854 0.796528 0
M  V30 47 H -2.785271 3.525994 0.396048 0
M  V30 48 H -0.005460 0.927400 -0.621168 0
M  V30 49 H 1.372253 -3.630832 -4.423988 0
M  V30 50 H -1.135789 -4.871755 -0.260066 0
M  V30 51 H -0.379965 -6.727236 1.239090 0
M  V30 52 H -1.310792 -6.101623 3.644750 0
M  V30 53 H -1.021204 -3.258991 3.613783 0
M  V30 54 H -2.591669 -3.962771 1.602613 0
M  V30 55 H -1.435787 -2.618415 1.083268 0
M  V30 END ATOM
M  V30 BEGIN BOND
M  V30 1 1 1 2
M  V30 2 2 2 3
M  V30 3 1 2 4
M  V30 4 1 4 5
M  V30 5 1 5 6
M  V30 6 1 6 7
M  V30 7 2 7 8
M  V30 8 1 8 9
M  V30 9 1 9 10
M  V30 10 1 10 11
M  V30 11 1 11 12
M  V30 12 2 12 13
M  V30 13 1 13 14
M  V30 14 1 14 15
M  V30 15 1 15 16
M  V30 16 1 16 17
M  V30 17 1 17 18
M  V30 18 1 18 19
M  V30 19 1 19 20
M  V30 20 1 14 21
M  V30 21 2 9 22
M  V30 22 1 22 23
M  V30 23 2 23 24
M  V30 24 1 24 25
M  V30 25 1 5 26
M  V30 26 1 26 27
M  V30 27 2 27 28
M  V30 28 1 28 29
M  V30 29 1 29 30
M  V30 30 1 29 4
M  V30 31 1 24 7
M  V30 32 1 30 26
M  V30 33 2 21 11
M  V30 34 1 20 15
M  V30 35 1 1 31
M  V30 36 1 1 32
M  V30 37 1 4 33 CFG=1
M  V30 38 1 5 34 CFG=3
M  V30 39 1 6 35
M  V30 40 1 10 36
M  V30 41 1 12 37
M  V30 42 1 15 38 CFG=3
M  V30 43 1 16 39
M  V30 44 1 16 40
M  V30 45 1 17 41
M  V30 46 1 17 42
M  V30 47 1 18 43
M  V30 48 1 18 44
M  V30 49 1 19 45
M  V30 50 1 20 46
M  V30 51 1 20 47
M  V30 52 1 21 48
M  V30 53 1 23 49
M  V30 54 1 26 50 CFG=3
M  V30 55 1 27 51
M  V30 56 1 28 52
M  V30 57 1 29 53 CFG=1
M  V30 58 1 30 54
M  V30 59 1 30 55
M  V30 END BOND
M  V30 END CTAB
M  END
>  <Dataset>  (514) 
ChEMBL_Kinases

>  <Ligand_Instance>  (514) 
nan

>  <PDB_ID>  (514) 
nan

>  <Standardized_SMILES>  (514) 
NC(=O)[C@@H]1[C@H](Nc2nc(Nc3cnn([C@@H]4CCCNC4)c3)ncc2Cl)[C@H]2C=C[C@@H]1C2

>  <Name>  (514) 
nan

>  <Pocket>  (514) 
nan

>  <ATP_Site>  (514) 
nan

>  <Peripheral>  (514) 
nan

>  <Num_H_Atoms_ProtBoundConf>  (514) 
nan

>  <Num_Resolved_Atoms>  (514) 
nan

>  <Num_Not_Resolved_Atoms>  (514) 
nan

$$$$
CHEMBL2071275
     RDKit          3D

  0  0  0  0  0  0  0  0  0  0999 V3000
M  V30 BEGIN CTAB
M  V30 COUNTS 55 59 0 0 0
M  V30 BEGIN ATOM
M  V30 1 N -0.662208 -4.154320 2.788827 0
M  V30 2 C 0.744303 -4.266371 2.602369 0
M  V30 3 O 1.212748 -5.399701 2.886756 0
M  V30 4 C 1.241270 -2.955347 2.112068 0 CFG=2
M  V30 5 C 0.719015 -2.557354 0.756547 0 CFG=2
M  V30 6 N -0.360698 -3.331880 0.240087 0
M  V30 7 C -0.830428 -2.760947 -1.007134 0
M  V30 8 N -0.290908 -1.660347 -1.575615 0
M  V30 9 C -0.732006 -1.108960 -2.732506 0
M  V30 10 N 0.114919 0.029035 -2.980091 0
M  V30 11 C -0.057890 1.142074 -2.112541 0
M  V30 12 C 0.610245 2.372552 -2.087291 0
M  V30 13 N 0.134977 3.129325 -1.076986 0
M  V30 14 N -0.820989 2.438507 -0.439912 0
M  V30 15 C -1.431852 3.118780 0.683265 0
M  V30 16 C -0.445927 3.511280 1.731244 0
M  V30 17 C -0.114813 2.471313 2.747666 0
M  V30 18 N -1.303457 1.788007 3.244325 0
M  V30 19 C -2.038103 1.208132 2.104529 0
M  V30 20 C -2.551689 2.327483 1.277860 0
M  V30 21 C -0.935887 1.256590 -1.057350 0
M  V30 22 N -1.761967 -1.660081 -3.380687 0
M  V30 23 C -2.364969 -2.753950 -2.899999 0
M  V30 24 C -1.877585 -3.262955 -1.732596 0
M  V30 25 Cl -2.690703 -4.701041 -1.120644 0
M  V30 26 C 1.925093 -2.520873 -0.146139 0 CFG=1
M  V30 27 C 2.714161 -1.319698 0.257712 0
M  V30 28 C 3.100120 -1.532663 1.523021 0
M  V30 29 C 2.727026 -2.935397 1.874469 0 CFG=2
M  V30 30 C 2.805579 -3.595488 0.518101 0
M  V30 31 H -1.712353 -4.082410 2.817538 0
M  V30 32 H -1.655629 -4.052875 3.086135 0
M  V30 33 H 0.982439 -2.158870 2.886325 0
M  V30 34 H 0.358973 -1.501073 0.845040 0
M  V30 35 H -0.916708 -4.189980 0.483131 0
M  V30 36 H 0.821964 0.063000 -3.742836 0
M  V30 37 H 1.388303 2.581552 -2.829618 0
M  V30 38 H -1.858318 4.090096 0.291134 0
M  V30 39 H -0.845519 4.415412 2.273615 0
M  V30 40 H 0.532665 3.786131 1.235972 0
M  V30 41 H 0.374858 2.945291 3.609490 0
M  V30 42 H 0.579807 1.719640 2.306519 0
M  V30 43 H -0.973468 0.973777 3.805035 0
M  V30 44 H -1.398980 0.476052 1.620771 0
M  V30 45 H -2.897199 0.670455 2.562716 0
M  V30 46 H -3.124420 3.008895 1.968885 0
M  V30 47 H -3.304934 2.013923 0.519969 0
M  V30 48 H -1.647513 0.540854 -0.719809 0
M  V30 49 H -3.175050 -3.143540 -3.458794 0
M  V30 50 H 1.780447 -2.679819 -1.190536 0
M  V30 51 H 2.837686 -0.518821 -0.494083 0
M  V30 52 H 3.584672 -0.676642 2.012400 0
M  V30 53 H 3.340396 -3.376744 2.650432 0
M  V30 54 H 3.824693 -3.604394 0.113152 0
M  V30 55 H 2.270892 -4.556551 0.455310 0
M  V30 END ATOM
M  V30 BEGIN BOND
M  V30 1 1 1 2
M  V30 2 2 2 3
M  V30 3 1 2 4
M  V30 4 1 4 5
M  V30 5 1 5 6
M  V30 6 1 6 7
M  V30 7 2 7 8
M  V30 8 1 8 9
M  V30 9 1 9 10
M  V30 10 1 10 11
M  V30 11 1 11 12
M  V30 12 2 12 13
M  V30 13 1 13 14
M  V30 14 1 14 15
M  V30 15 1 15 16
M  V30 16 1 16 17
M  V30 17 1 17 18
M  V30 18 1 18 19
M  V30 19 1 19 20
M  V30 20 1 14 21
M  V30 21 2 9 22
M  V30 22 1 22 23
M  V30 23 2 23 24
M  V30 24 1 24 25
M  V30 25 1 5 26
M  V30 26 1 26 27
M  V30 27 2 27 28
M  V30 28 1 28 29
M  V30 29 1 29 30
M  V30 30 1 29 4
M  V30 31 1 24 7
M  V30 32 1 30 26
M  V30 33 2 21 11
M  V30 34 1 20 15
M  V30 35 1 1 31
M  V30 36 1 1 32
M  V30 37 1 4 33 CFG=1
M  V30 38 1 5 34 CFG=1
M  V30 39 1 6 35
M  V30 40 1 10 36
M  V30 41 1 12 37
M  V30 42 1 15 38
M  V30 43 1 16 39
M  V30 44 1 16 40
M  V30 45 1 17 41
M  V30 46 1 17 42
M  V30 47 1 18 43
M  V30 48 1 19 44
M  V30 49 1 19 45
M  V30 50 1 20 46
M  V30 51 1 20 47
M  V30 52 1 21 48
M  V30 53 1 23 49
M  V30 54 1 26 50 CFG=3
M  V30 55 1 27 51
M  V30 56 1 28 52
M  V30 57 1 29 53 CFG=1
M  V30 58 1 30 54
M  V30 59 1 30 55
M  V30 END BOND
M  V30 END CTAB
M  END
>  <Dataset>  (515) 
ChEMBL_Kinases

>  <Ligand_Instance>  (515) 
nan

>  <PDB_ID>  (515) 
nan

>  <Standardized_SMILES>  (515) 
NC(=O)[C@@H]1[C@H](Nc2nc(Nc3cnn(C4CCNCC4)c3)ncc2Cl)[C@H]2C=C[C@@H]1C2

>  <Name>  (515) 
nan

>  <Pocket>  (515) 
nan

>  <ATP_Site>  (515) 
nan

>  <Peripheral>  (515) 
nan

>  <Num_H_Atoms_ProtBoundConf>  (515) 
nan

>  <Num_Resolved_Atoms>  (515) 
nan

>  <Num_Not_Resolved_Atoms>  (515) 
nan

$$$$
CHEMBL2071274
     RDKit          3D

  0  0  0  0  0  0  0  0  0  0999 V3000
M  V30 BEGIN CTAB
M  V30 COUNTS 59 63 0 0 0
M  V30 BEGIN ATOM
M  V30 1 N 3.274359 -1.753146 -3.343560 0
M  V30 2 C 3.939599 -2.815403 -2.682961 0
M  V30 3 O 4.337080 -3.249278 -3.827558 0
M  V30 4 C 4.339643 -3.553774 -1.503748 0 CFG=2
M  V30 5 C 3.305945 -4.174481 -0.645282 0 CFG=2
M  V30 6 N 2.024104 -4.439108 -1.163901 0
M  V30 7 C 0.912538 -3.621850 -1.512767 0
M  V30 8 N 0.904839 -2.290910 -1.366601 0
M  V30 9 C -0.159804 -1.557489 -1.694431 0
M  V30 10 N -0.239225 -0.138475 -1.579063 0
M  V30 11 C -0.555444 0.706345 -0.479681 0
M  V30 12 C -0.720424 2.072162 -0.389112 0
M  V30 13 N -0.999347 2.325342 0.899562 0
M  V30 14 N -1.020614 1.240468 1.609429 0
M  V30 15 C -1.289548 1.146214 3.021602 0
M  V30 16 C -2.708568 0.943942 3.388760 0
M  V30 17 N -3.673273 1.881522 3.029659 0
M  V30 18 C -5.027734 1.556273 3.437906 0
M  V30 19 C -5.948315 2.519995 2.729078 0
M  V30 20 O -5.321464 3.224736 1.701966 0
M  V30 21 C -4.277453 4.005435 2.150868 0
M  V30 22 C -3.384244 3.269868 3.128924 0
M  V30 23 C -0.746584 0.184712 0.787695 0
M  V30 24 N -1.315442 -2.077105 -2.196887 0
M  V30 25 C -1.356591 -3.434673 -2.365587 0
M  V30 26 C -0.248897 -4.179628 -2.023245 0
M  V30 27 Cl -0.384474 -5.915979 -2.270871 0
M  V30 28 C 3.288884 -3.361675 0.631979 0 CFG=1
M  V30 29 C 4.435279 -3.870126 1.472364 0
M  V30 30 C 5.461452 -3.676330 0.610444 0
M  V30 31 C 5.099584 -2.716651 -0.489508 0 CFG=2
M  V30 32 C 3.911678 -2.053825 0.206943 0
M  V30 33 H 2.293022 -1.761255 -3.723227 0
M  V30 34 H 3.696613 -0.795101 -3.537253 0
M  V30 35 H 5.122843 -4.322290 -1.816698 0
M  V30 36 H 3.731964 -5.178391 -0.307992 0
M  V30 37 H 1.823318 -5.477646 -1.344593 0
M  V30 38 H 0.002853 0.197561 -2.551149 0
M  V30 39 H -0.624668 2.733721 -1.242021 0
M  V30 40 H -0.738865 0.234876 3.383483 0
M  V30 41 H -0.790525 1.973748 3.574223 0
M  V30 42 H -3.002101 -0.067369 2.979765 0
M  V30 43 H -2.743761 0.786204 4.499035 0
M  V30 44 H -5.300372 0.515711 3.144694 0
M  V30 45 H -5.172407 1.688366 4.527598 0
M  V30 46 H -6.858570 2.009573 2.345215 0
M  V30 47 H -6.297396 3.266412 3.467555 0
M  V30 48 H -3.702960 4.304940 1.237952 0
M  V30 49 H -4.609247 4.944165 2.624383 0
M  V30 50 H -2.362318 3.589323 2.990588 0
M  V30 51 H -3.701008 3.593213 4.164930 0
M  V30 52 H -0.698016 -0.852287 1.112440 0
M  V30 53 H -2.245819 -3.903985 -2.761487 0
M  V30 54 H 2.343610 -3.301856 1.126648 0
M  V30 55 H 4.708748 -4.299598 2.440263 0
M  V30 56 H 6.474403 -4.107602 0.609553 0
M  V30 57 H 5.865131 -2.081245 -0.842696 0
M  V30 58 H 3.332489 -1.432520 -0.458787 0
M  V30 59 H 4.264368 -1.468713 1.094712 0
M  V30 END ATOM
M  V30 BEGIN BOND
M  V30 1 1 1 2
M  V30 2 2 2 3
M  V30 3 1 2 4
M  V30 4 1 4 5
M  V30 5 1 5 6
M  V30 6 1 6 7
M  V30 7 2 7 8
M  V30 8 1 8 9
M  V30 9 1 9 10
M  V30 10 1 10 11
M  V30 11 1 11 12
M  V30 12 2 12 13
M  V30 13 1 13 14
M  V30 14 1 14 15
M  V30 15 1 15 16
M  V30 16 1 16 17
M  V30 17 1 17 18
M  V30 18 1 18 19
M  V30 19 1 19 20
M  V30 20 1 20 21
M  V30 21 1 21 22
M  V30 22 1 14 23
M  V30 23 2 9 24
M  V30 24 1 24 25
M  V30 25 2 25 26
M  V30 26 1 26 27
M  V30 27 1 5 28
M  V30 28 1 28 29
M  V30 29 2 29 30
M  V30 30 1 30 31
M  V30 31 1 31 32
M  V30 32 1 31 4
M  V30 33 1 26 7
M  V30 34 1 32 28
M  V30 35 2 23 11
M  V30 36 1 22 17
M  V30 37 1 1 33
M  V30 38 1 1 34
M  V30 39 1 4 35 CFG=3
M  V30 40 1 5 36 CFG=1
M  V30 41 1 6 37
M  V30 42 1 10 38
M  V30 43 1 12 39
M  V30 44 1 15 40
M  V30 45 1 15 41
M  V30 46 1 16 42
M  V30 47 1 16 43
M  V30 48 1 18 44
M  V30 49 1 18 45
M  V30 50 1 19 46
M  V30 51 1 19 47
M  V30 52 1 21 48
M  V30 53 1 21 49
M  V30 54 1 22 50
M  V30 55 1 22 51
M  V30 56 1 23 52
M  V30 57 1 25 53
M  V30 58 1 28 54 CFG=1
M  V30 59 1 29 55
M  V30 60 1 30 56
M  V30 61 1 31 57 CFG=3
M  V30 62 1 32 58
M  V30 63 1 32 59
M  V30 END BOND
M  V30 END CTAB
M  END
>  <Dataset>  (516) 
ChEMBL_Kinases

>  <Ligand_Instance>  (516) 
nan

>  <PDB_ID>  (516) 
nan

>  <Standardized_SMILES>  (516) 
NC(=O)[C@@H]1[C@H](Nc2nc(Nc3cnn(CCN4CCOCC4)c3)ncc2Cl)[C@H]2C=C[C@@H]1C2

>  <Name>  (516) 
nan

>  <Pocket>  (516) 
nan

>  <ATP_Site>  (516) 
nan

>  <Peripheral>  (516) 
nan

>  <Num_H_Atoms_ProtBoundConf>  (516) 
nan

>  <Num_Resolved_Atoms>  (516) 
nan

>  <Num_Not_Resolved_Atoms>  (516) 
nan

$$$$
CHEMBL2071273
     RDKit          3D

  0  0  0  0  0  0  0  0  0  0999 V3000
M  V30 BEGIN CTAB
M  V30 COUNTS 50 53 0 0 0
M  V30 BEGIN ATOM
M  V30 1 C 1.221384 -3.374997 3.694170 0
M  V30 2 N 2.095607 -2.281345 3.307291 0
M  V30 3 C 2.895912 -1.557152 4.220798 0
M  V30 4 O 2.841033 -1.888278 5.435597 0
M  V30 5 C 3.749637 -0.463347 3.742485 0
M  V30 6 N 3.652148 -0.285309 2.303410 0
M  V30 7 C 2.789047 0.488602 1.610107 0
M  V30 8 C 3.006570 0.413488 0.245051 0
M  V30 9 N 2.246913 1.119905 -0.743840 0
M  V30 10 C 1.105720 1.835027 -0.220026 0
M  V30 11 N 1.066963 3.035826 0.359339 0
M  V30 12 C -0.095957 3.546219 0.780123 0
M  V30 13 C -1.209742 2.776807 0.582643 0
M  V30 14 Cl -2.699404 3.534402 1.173939 0
M  V30 15 C -1.184916 1.514794 -0.024110 0
M  V30 16 N -2.465837 0.868372 -0.179295 0
M  V30 17 C -3.033371 -0.329635 -0.644386 0 CFG=1
M  V30 18 C -2.159112 -1.103123 -1.648672 0 CFG=1
M  V30 19 C -1.541588 -0.292674 -2.672031 0
M  V30 20 N -0.583928 -1.050376 -3.410639 0
M  V30 21 O -2.021625 0.897211 -2.640958 0
M  V30 22 C -1.384390 -2.051000 -0.846779 0 CFG=2
M  V30 23 C -2.268285 -3.302299 -0.736498 0
M  V30 24 C -3.390207 -2.736848 -0.198271 0
M  V30 25 C -3.096421 -1.385865 0.421699 0 CFG=1
M  V30 26 C -1.583391 -1.627905 0.595303 0
M  V30 27 N 0.028033 1.094457 -0.409055 0
M  V30 28 C 4.064812 -0.462623 0.154263 0
M  V30 29 N 4.431689 -0.864619 1.386167 0
M  V30 30 H 1.611063 -4.357294 3.355065 0
M  V30 31 H 0.215635 -3.152024 3.229960 0
M  V30 32 H 1.017118 -3.383313 4.793376 0
M  V30 33 H 2.140243 -2.009536 2.308433 0
M  V30 34 H 4.829406 -0.671480 4.001608 0
M  V30 35 H 3.446994 0.492629 4.212598 0
M  V30 36 H 2.040078 1.068988 2.170434 0
M  V30 37 H 2.645614 1.003969 -1.708939 0
M  V30 38 H -0.101740 4.510933 1.243261 0
M  V30 39 H -3.307680 1.427694 0.160595 0
M  V30 40 H -4.056641 -0.195104 -1.098523 0
M  V30 41 H -2.953730 -1.711868 -2.219536 0
M  V30 42 H 0.454709 -0.828617 -3.423056 0
M  V30 43 H -0.951105 -1.858370 -3.959574 0
M  V30 44 H -0.370300 -2.272351 -1.114981 0
M  V30 45 H -2.197784 -4.364495 -0.960419 0
M  V30 46 H -4.383800 -3.178889 -0.199611 0
M  V30 47 H -3.623910 -1.165715 1.320346 0
M  V30 48 H -1.478108 -2.531781 1.266059 0
M  V30 49 H -1.054565 -0.778830 0.954095 0
M  V30 50 H 4.502728 -0.753697 -0.799753 0
M  V30 END ATOM
M  V30 BEGIN BOND
M  V30 1 1 1 2
M  V30 2 1 2 3
M  V30 3 2 3 4
M  V30 4 1 3 5
M  V30 5 1 5 6
M  V30 6 1 6 7
M  V30 7 2 7 8
M  V30 8 1 8 9
M  V30 9 1 9 10
M  V30 10 2 10 11
M  V30 11 1 11 12
M  V30 12 2 12 13
M  V30 13 1 13 14
M  V30 14 1 13 15
M  V30 15 1 15 16
M  V30 16 1 16 17
M  V30 17 1 17 18
M  V30 18 1 18 19
M  V30 19 1 19 20
M  V30 20 2 19 21
M  V30 21 1 18 22
M  V30 22 1 22 23
M  V30 23 2 23 24
M  V30 24 1 24 25
M  V30 25 1 25 26
M  V30 26 2 15 27
M  V30 27 1 8 28
M  V30 28 2 28 29
M  V30 29 1 29 6
M  V30 30 1 27 10
M  V30 31 1 25 17
M  V30 32 1 26 22
M  V30 33 1 1 30
M  V30 34 1 1 31
M  V30 35 1 1 32
M  V30 36 1 2 33
M  V30 37 1 5 34
M  V30 38 1 5 35
M  V30 39 1 7 36
M  V30 40 1 9 37
M  V30 41 1 12 38
M  V30 42 1 16 39
M  V30 43 1 17 40 CFG=3
M  V30 44 1 18 41 CFG=3
M  V30 45 1 20 42
M  V30 46 1 20 43
M  V30 47 1 22 44 CFG=3
M  V30 48 1 23 45
M  V30 49 1 24 46
M  V30 50 1 25 47 CFG=1
M  V30 51 1 26 48
M  V30 52 1 26 49
M  V30 53 1 28 50
M  V30 END BOND
M  V30 END CTAB
M  END
>  <Dataset>  (517) 
ChEMBL_Kinases

>  <Ligand_Instance>  (517) 
nan

>  <PDB_ID>  (517) 
nan

>  <Standardized_SMILES>  (517) 
CNC(=O)Cn1cc(Nc2ncc(Cl)c(N[C@H]3[C@@H](C(N)=O)[C@@H]4C=C[C@H]3C4)n2)cn1

>  <Name>  (517) 
nan

>  <Pocket>  (517) 
nan

>  <ATP_Site>  (517) 
nan

>  <Peripheral>  (517) 
nan

>  <Num_H_Atoms_ProtBoundConf>  (517) 
nan

>  <Num_Resolved_Atoms>  (517) 
nan

>  <Num_Not_Resolved_Atoms>  (517) 
nan

$$$$
CHEMBL2071272
     RDKit          3D

  0  0  0  0  0  0  0  0  0  0999 V3000
M  V30 BEGIN CTAB
M  V30 COUNTS 47 50 0 0 0
M  V30 BEGIN ATOM
M  V30 1 N 2.411537 -0.693694 -4.007968 0
M  V30 2 C 3.197490 -1.829747 -3.684579 0
M  V30 3 O 3.164445 -2.645537 -4.630571 0
M  V30 4 C 3.894147 -1.887533 -2.373197 0
M  V30 5 N 3.625815 -0.694231 -1.613177 0
M  V30 6 C 2.600305 -0.556327 -0.766957 0
M  V30 7 C 2.626487 0.688426 -0.207355 0
M  V30 8 N 1.706567 1.207161 0.736606 0
M  V30 9 C 0.622664 0.382933 1.177328 0
M  V30 10 N 0.955037 -0.363125 2.269161 0
M  V30 11 C 0.068216 -1.187904 2.815285 0
M  V30 12 C -1.171461 -1.228240 2.211715 0
M  V30 13 Cl -2.385652 -2.303982 2.893694 0
M  V30 14 C -1.524658 -0.470581 1.094723 0
M  V30 15 N -2.827888 -0.575226 0.537351 0
M  V30 16 C -3.170111 0.214375 -0.611535 0 CFG=1
M  V30 17 C -2.297603 -0.061881 -1.826019 0 CFG=1
M  V30 18 C -1.685284 -1.410231 -1.762114 0
M  V30 19 N -0.900469 -1.552406 -2.939820 0
M  V30 20 O -1.712835 -2.354450 -0.966912 0
M  V30 21 C -3.354622 -0.158856 -2.910668 0 CFG=2
M  V30 22 C -4.147193 1.072900 -3.051664 0
M  V30 23 C -4.913132 1.192904 -1.956283 0
M  V30 24 C -4.576609 0.041842 -1.074096 0 CFG=1
M  V30 25 C -4.369813 -1.018859 -2.169466 0
M  V30 26 N -0.599791 0.352762 0.570321 0
M  V30 27 C 3.720907 1.307704 -0.753680 0
M  V30 28 N 4.306834 0.443274 -1.602996 0
M  V30 29 H 1.822116 0.132503 -4.253687 0
M  V30 30 H 2.715285 0.278755 -3.707896 0
M  V30 31 H 3.540449 -2.777517 -1.783013 0
M  V30 32 H 4.969093 -2.006521 -2.543144 0
M  V30 33 H 1.848589 -1.299285 -0.539565 0
M  V30 34 H 1.841019 2.180105 1.089076 0
M  V30 35 H 0.269839 -1.800292 3.673918 0
M  V30 36 H -3.513421 -1.226620 0.975673 0
M  V30 37 H -3.047362 1.297646 -0.351127 0
M  V30 38 H -1.571028 0.750282 -1.998769 0
M  V30 39 H -0.589470 -2.267582 -3.611932 0
M  V30 40 H -0.344093 -0.912661 -3.544004 0
M  V30 41 H -3.002267 -0.601984 -3.836252 0
M  V30 42 H -4.202036 1.827016 -3.831431 0
M  V30 43 H -5.654428 1.976380 -1.724388 0
M  V30 44 H -5.314580 -0.220729 -0.350248 0
M  V30 45 H -3.880809 -1.916694 -1.747037 0
M  V30 46 H -5.289000 -1.201090 -2.724046 0
M  V30 47 H 4.066942 2.312152 -0.549846 0
M  V30 END ATOM
M  V30 BEGIN BOND
M  V30 1 1 1 2
M  V30 2 2 2 3
M  V30 3 1 2 4
M  V30 4 1 4 5
M  V30 5 1 5 6
M  V30 6 2 6 7
M  V30 7 1 7 8
M  V30 8 1 8 9
M  V30 9 2 9 10
M  V30 10 1 10 11
M  V30 11 2 11 12
M  V30 12 1 12 13
M  V30 13 1 12 14
M  V30 14 1 14 15
M  V30 15 1 15 16
M  V30 16 1 16 17
M  V30 17 1 17 18
M  V30 18 1 18 19
M  V30 19 2 18 20
M  V30 20 1 17 21
M  V30 21 1 21 22
M  V30 22 2 22 23
M  V30 23 1 23 24
M  V30 24 1 24 25
M  V30 25 2 14 26
M  V30 26 1 7 27
M  V30 27 2 27 28
M  V30 28 1 28 5
M  V30 29 1 26 9
M  V30 30 1 24 16
M  V30 31 1 25 21
M  V30 32 1 1 29
M  V30 33 1 1 30
M  V30 34 1 4 31
M  V30 35 1 4 32
M  V30 36 1 6 33
M  V30 37 1 8 34
M  V30 38 1 11 35
M  V30 39 1 15 36
M  V30 40 1 16 37 CFG=1
M  V30 41 1 17 38 CFG=3
M  V30 42 1 19 39
M  V30 43 1 19 40
M  V30 44 1 21 41 CFG=3
M  V30 45 1 22 42
M  V30 46 1 23 43
M  V30 47 1 24 44 CFG=1
M  V30 48 1 25 45
M  V30 49 1 25 46
M  V30 50 1 27 47
M  V30 END BOND
M  V30 END CTAB
M  END
>  <Dataset>  (518) 
ChEMBL_Kinases

>  <Ligand_Instance>  (518) 
nan

>  <PDB_ID>  (518) 
nan

>  <Standardized_SMILES>  (518) 
NC(=O)Cn1cc(Nc2ncc(Cl)c(N[C@H]3[C@@H](C(N)=O)[C@@H]4C=C[C@H]3C4)n2)cn1

>  <Name>  (518) 
nan

>  <Pocket>  (518) 
nan

>  <ATP_Site>  (518) 
nan

>  <Peripheral>  (518) 
nan

>  <Num_H_Atoms_ProtBoundConf>  (518) 
nan

>  <Num_Resolved_Atoms>  (518) 
nan

>  <Num_Not_Resolved_Atoms>  (518) 
nan

$$$$
CHEMBL2071202
     RDKit          3D

  0  0  0  0  0  0  0  0  0  0999 V3000
M  V30 BEGIN CTAB
M  V30 COUNTS 43 46 0 0 0
M  V30 BEGIN ATOM
M  V30 1 C -0.462283 -3.804335 4.447364 0
M  V30 2 N 0.101995 -2.515727 4.731131 0
M  V30 3 C 0.028417 -1.348452 4.081294 0
M  V30 4 C 0.733269 -0.325588 4.707836 0
M  V30 5 N 0.844865 1.003525 4.237778 0
M  V30 6 C 0.737116 1.576759 2.961035 0
M  V30 7 N 0.499767 2.882141 2.958780 0
M  V30 8 C 0.377984 3.606955 1.855815 0
M  V30 9 C 0.503204 2.994311 0.634448 0
M  V30 10 Cl 0.334604 4.003033 -0.791914 0
M  V30 11 C 0.761126 1.605858 0.583413 0
M  V30 12 N 0.874041 1.014992 -0.698192 0
M  V30 13 C 1.152822 -0.086817 -1.517929 0 CFG=1
M  V30 14 C 0.910779 -1.470716 -1.031770 0 CFG=1
M  V30 15 C 0.217724 -1.646411 0.231125 0
M  V30 16 N -1.094690 -1.125806 0.425013 0
M  V30 17 O 0.876172 -2.293064 1.125447 0
M  V30 18 C 0.190024 -2.119641 -2.192294 0 CFG=2
M  V30 19 C 1.199804 -2.114715 -3.314140 0
M  V30 20 C 1.249885 -0.869336 -3.805256 0
M  V30 21 C 0.455621 -0.038833 -2.874735 0 CFG=1
M  V30 22 C -0.703126 -0.982685 -2.634768 0
M  V30 23 N 0.857579 0.996692 1.774175 0
M  V30 24 C 1.243145 -0.979659 5.801548 0
M  V30 25 N 0.856885 -2.251078 5.783831 0
M  V30 26 H -1.468666 -3.695916 4.002852 0
M  V30 27 H 0.166084 -4.358529 3.726883 0
M  V30 28 H -0.571945 -4.408545 5.386948 0
M  V30 29 H -0.546444 -1.264080 3.165252 0
M  V30 30 H 1.058252 1.613429 5.081081 0
M  V30 31 H 0.182592 4.678736 1.892600 0
M  V30 32 H 0.670110 1.711270 -1.484986 0
M  V30 33 H 2.244956 -0.008923 -1.807001 0
M  V30 34 H 1.899983 -2.060935 -1.008575 0
M  V30 35 H -1.525489 -2.045514 0.253798 0
M  V30 36 H -1.620137 -0.257128 0.648139 0
M  V30 37 H -0.255925 -3.061211 -1.999146 0
M  V30 38 H 1.743751 -3.008337 -3.605574 0
M  V30 39 H 1.772917 -0.599947 -4.697441 0
M  V30 40 H 0.187817 0.951272 -3.198414 0
M  V30 41 H -1.396834 -0.618229 -1.870154 0
M  V30 42 H -1.176020 -1.170532 -3.616896 0
M  V30 43 H 1.863233 -0.487667 6.540389 0
M  V30 END ATOM
M  V30 BEGIN BOND
M  V30 1 1 1 2
M  V30 2 1 2 3
M  V30 3 2 3 4
M  V30 4 1 4 5
M  V30 5 1 5 6
M  V30 6 2 6 7
M  V30 7 1 7 8
M  V30 8 2 8 9
M  V30 9 1 9 10
M  V30 10 1 9 11
M  V30 11 1 11 12
M  V30 12 1 12 13
M  V30 13 1 13 14
M  V30 14 1 14 15
M  V30 15 1 15 16
M  V30 16 2 15 17
M  V30 17 1 14 18
M  V30 18 1 18 19
M  V30 19 2 19 20
M  V30 20 1 20 21
M  V30 21 1 21 22
M  V30 22 2 11 23
M  V30 23 1 4 24
M  V30 24 2 24 25
M  V30 25 1 25 2
M  V30 26 1 23 6
M  V30 27 1 21 13
M  V30 28 1 22 18
M  V30 29 1 1 26
M  V30 30 1 1 27
M  V30 31 1 1 28
M  V30 32 1 3 29
M  V30 33 1 5 30
M  V30 34 1 8 31
M  V30 35 1 12 32
M  V30 36 1 13 33 CFG=3
M  V30 37 1 14 34 CFG=1
M  V30 38 1 16 35
M  V30 39 1 16 36
M  V30 40 1 18 37 CFG=1
M  V30 41 1 19 38
M  V30 42 1 20 39
M  V30 43 1 21 40 CFG=3
M  V30 44 1 22 41
M  V30 45 1 22 42
M  V30 46 1 24 43
M  V30 END BOND
M  V30 END CTAB
M  END
>  <Dataset>  (519) 
ChEMBL_Kinases

>  <Ligand_Instance>  (519) 
nan

>  <PDB_ID>  (519) 
nan

>  <Standardized_SMILES>  (519) 
Cn1cc(Nc2ncc(Cl)c(N[C@H]3[C@@H](C(N)=O)[C@@H]4C=C[C@H]3C4)n2)cn1

>  <Name>  (519) 
nan

>  <Pocket>  (519) 
nan

>  <ATP_Site>  (519) 
nan

>  <Peripheral>  (519) 
nan

>  <Num_H_Atoms_ProtBoundConf>  (519) 
nan

>  <Num_Resolved_Atoms>  (519) 
nan

>  <Num_Not_Resolved_Atoms>  (519) 
nan

$$$$
CHEMBL2071203
     RDKit          3D

  0  0  0  0  0  0  0  0  0  0999 V3000
M  V30 BEGIN CTAB
M  V30 COUNTS 48 51 0 0 0
M  V30 BEGIN ATOM
M  V30 1 C 5.837759 -2.372413 -1.868962 0
M  V30 2 N 4.601123 -2.061274 -1.170600 0
M  V30 3 C 4.286429 -0.805823 -0.821601 0
M  V30 4 C 3.065421 -0.934501 -0.196837 0
M  V30 5 N 2.312991 0.137538 0.353407 0
M  V30 6 C 1.063387 0.192699 1.028123 0
M  V30 7 N 0.848174 0.119584 2.368268 0
M  V30 8 C -0.389673 0.184902 2.882706 0
M  V30 9 C -1.461780 0.330979 2.002999 0
M  V30 10 C -2.836715 0.403979 2.573750 0
M  V30 11 F -2.825823 0.309329 3.948720 0
M  V30 12 F -3.648465 -0.584800 2.049218 0
M  V30 13 F -3.415683 1.613163 2.235543 0
M  V30 14 C -1.232299 0.405329 0.623738 0
M  V30 15 N -2.351642 0.568412 -0.275425 0
M  V30 16 C -2.023782 0.609797 -1.693104 0 CFG=2
M  V30 17 C -3.166102 0.970993 -2.576888 0 CFG=1
M  V30 18 C -2.578230 1.247701 -3.953441 0
M  V30 19 C -2.183130 -0.121144 -4.486314 0
M  V30 20 C -2.561315 -1.031281 -3.378920 0 CFG=2
M  V30 21 C -3.818594 -0.364621 -2.841142 0
M  V30 22 C -1.641807 -0.775366 -2.195227 0 CFG=2
M  V30 23 C -1.748165 -1.833967 -1.194463 0
M  V30 24 N -1.430178 -2.460724 0.027109 0
M  V30 25 O -2.554502 -2.779405 -1.475989 0
M  V30 26 N 0.036033 0.332667 0.183549 0
M  V30 27 C 2.674039 -2.254859 -0.183011 0
M  V30 28 N 3.671251 -2.924448 -0.806322 0
M  V30 29 H 6.693325 -2.313574 -1.168538 0
M  V30 30 H 6.007837 -1.682025 -2.719388 0
M  V30 31 H 5.829498 -3.403753 -2.276905 0
M  V30 32 H 4.802937 0.117940 -0.958907 0
M  V30 33 H 2.642629 1.125721 0.314415 0
M  V30 34 H -0.519430 0.123424 3.953398 0
M  V30 35 H -3.304365 0.645084 0.138394 0
M  V30 36 H -1.203620 1.342401 -1.889213 0
M  V30 37 H -3.820996 1.755200 -2.210931 0
M  V30 38 H -1.605679 1.782354 -3.776897 0
M  V30 39 H -3.245124 1.801196 -4.612283 0
M  V30 40 H -1.117581 -0.176944 -4.784514 0
M  V30 41 H -2.860481 -0.331824 -5.357622 0
M  V30 42 H -2.691732 -2.087977 -3.606757 0
M  V30 43 H -4.597739 -0.214661 -3.609068 0
M  V30 44 H -4.196627 -0.848627 -1.923998 0
M  V30 45 H -0.623198 -0.693452 -2.623596 0
M  V30 46 H -0.612762 -3.129071 0.154849 0
M  V30 47 H -1.912779 -2.371161 0.935729 0
M  V30 48 H 1.772213 -2.734638 0.221910 0
M  V30 END ATOM
M  V30 BEGIN BOND
M  V30 1 1 1 2
M  V30 2 1 2 3
M  V30 3 2 3 4
M  V30 4 1 4 5
M  V30 5 1 5 6
M  V30 6 2 6 7
M  V30 7 1 7 8
M  V30 8 2 8 9
M  V30 9 1 9 10
M  V30 10 1 10 11
M  V30 11 1 10 12
M  V30 12 1 10 13
M  V30 13 1 9 14
M  V30 14 1 14 15
M  V30 15 1 15 16
M  V30 16 1 16 17
M  V30 17 1 17 18
M  V30 18 1 18 19
M  V30 19 1 19 20
M  V30 20 1 20 21
M  V30 21 1 20 22
M  V30 22 1 22 23
M  V30 23 1 23 24
M  V30 24 2 23 25
M  V30 25 2 14 26
M  V30 26 1 4 27
M  V30 27 2 27 28
M  V30 28 1 28 2
M  V30 29 1 26 6
M  V30 30 1 22 16
M  V30 31 1 21 17
M  V30 32 1 1 29
M  V30 33 1 1 30
M  V30 34 1 1 31
M  V30 35 1 3 32
M  V30 36 1 5 33
M  V30 37 1 8 34
M  V30 38 1 15 35
M  V30 39 1 16 36 CFG=1
M  V30 40 1 17 37 CFG=1
M  V30 41 1 18 38
M  V30 42 1 18 39
M  V30 43 1 19 40
M  V30 44 1 19 41
M  V30 45 1 20 42 CFG=3
M  V30 46 1 21 43
M  V30 47 1 21 44
M  V30 48 1 22 45 CFG=3
M  V30 49 1 24 46
M  V30 50 1 24 47
M  V30 51 1 27 48
M  V30 END BOND
M  V30 END CTAB
M  END
>  <Dataset>  (520) 
ChEMBL_Kinases

>  <Ligand_Instance>  (520) 
nan

>  <PDB_ID>  (520) 
nan

>  <Standardized_SMILES>  (520) 
Cn1cc(Nc2ncc(C(F)(F)F)c(N[C@@H]3[C@H]4CC[C@H](C4)[C@@H]3C(N)=O)n2)cn1

>  <Name>  (520) 
nan

>  <Pocket>  (520) 
nan

>  <ATP_Site>  (520) 
nan

>  <Peripheral>  (520) 
nan

>  <Num_H_Atoms_ProtBoundConf>  (520) 
nan

>  <Num_Resolved_Atoms>  (520) 
nan

>  <Num_Not_Resolved_Atoms>  (520) 
nan

$$$$
CHEMBL2071204
     RDKit          3D

  0  0  0  0  0  0  0  0  0  0999 V3000
M  V30 BEGIN CTAB
M  V30 COUNTS 44 47 0 0 0
M  V30 BEGIN ATOM
M  V30 1 C -6.482151 -3.048814 -0.369704 0
M  V30 2 N -5.215945 -2.895934 -1.050553 0
M  V30 3 C -3.946603 -2.982652 -0.679257 0
M  V30 4 C -3.173293 -2.741466 -1.848529 0
M  V30 5 N -1.786500 -2.788134 -1.708200 0
M  V30 6 C -0.415189 -2.834936 -1.611870 0
M  V30 7 N 0.432482 -3.923275 -1.763400 0
M  V30 8 C 1.738436 -3.691296 -1.678439 0
M  V30 9 C 2.206683 -2.412126 -1.444509 0
M  V30 10 C 3.680415 -2.217269 -1.443657 0
M  V30 11 F 4.129250 -1.422220 -2.499867 0
M  V30 12 F 4.297504 -3.436492 -1.560788 0
M  V30 13 F 4.116194 -1.618116 -0.273413 0
M  V30 14 C 1.389523 -1.283015 -1.277440 0
M  V30 15 N 1.984276 -0.017846 -1.035301 0
M  V30 16 C 1.351504 1.174547 -0.635094 0 CFG=1
M  V30 17 C 0.207077 1.706198 -1.457037 0
M  V30 18 C -0.554616 2.421249 -0.346085 0 CFG=2
M  V30 19 C 0.365214 3.370361 0.373435 0
M  V30 20 C 1.155332 2.516625 1.365893 0
M  V30 21 C 0.855527 1.135681 0.802657 0 CFG=1
M  V30 22 C -0.645153 1.255220 0.672598 0
M  V30 23 N 0.075206 -1.576093 -1.374288 0
M  V30 24 C -4.050103 -2.517130 -2.877845 0
M  V30 25 N -5.261190 -2.613990 -2.371757 0
M  V30 26 H -6.597709 -2.452381 0.515071 0
M  V30 27 H -7.296049 -2.762471 -1.091085 0
M  V30 28 H -6.671007 -4.132932 -0.178840 0
M  V30 29 H -3.829794 -3.189929 0.392671 0
M  V30 30 H -1.587944 -2.887917 -2.777388 0
M  V30 31 H 2.364582 -4.536156 -1.787702 0
M  V30 32 H 3.016165 0.057975 -1.206198 0
M  V30 33 H 2.147290 1.995277 -0.689512 0
M  V30 34 H -0.374050 0.822662 -1.808842 0
M  V30 35 H 0.525847 2.405770 -2.273405 0
M  V30 36 H -1.533939 2.801868 -0.620873 0
M  V30 37 H 1.068022 3.813707 -0.338204 0
M  V30 38 H -0.164935 4.201880 0.921785 0
M  V30 39 H 0.695320 2.655143 2.364279 0
M  V30 40 H 2.234935 2.791313 1.310039 0
M  V30 41 H 1.222942 0.298962 1.406791 0
M  V30 42 H -1.076731 1.648647 1.602212 0
M  V30 43 H -1.094970 0.365344 0.217551 0
M  V30 44 H -3.775205 -2.326884 -3.898839 0
M  V30 END ATOM
M  V30 BEGIN BOND
M  V30 1 1 1 2
M  V30 2 1 2 3
M  V30 3 2 3 4
M  V30 4 1 4 5
M  V30 5 1 5 6
M  V30 6 2 6 7
M  V30 7 1 7 8
M  V30 8 2 8 9
M  V30 9 1 9 10
M  V30 10 1 10 11
M  V30 11 1 10 12
M  V30 12 1 10 13
M  V30 13 1 9 14
M  V30 14 1 14 15
M  V30 15 1 15 16
M  V30 16 1 16 17
M  V30 17 1 17 18
M  V30 18 1 18 19
M  V30 19 1 19 20
M  V30 20 1 20 21
M  V30 21 1 21 22
M  V30 22 2 14 23
M  V30 23 1 4 24
M  V30 24 2 24 25
M  V30 25 1 25 2
M  V30 26 1 23 6
M  V30 27 1 21 16
M  V30 28 1 22 18
M  V30 29 1 1 26
M  V30 30 1 1 27
M  V30 31 1 1 28
M  V30 32 1 3 29
M  V30 33 1 5 30
M  V30 34 1 8 31
M  V30 35 1 15 32
M  V30 36 1 16 33 CFG=1
M  V30 37 1 17 34
M  V30 38 1 17 35
M  V30 39 1 18 36 CFG=3
M  V30 40 1 19 37
M  V30 41 1 19 38
M  V30 42 1 20 39
M  V30 43 1 20 40
M  V30 44 1 21 41 CFG=1
M  V30 45 1 22 42
M  V30 46 1 22 43
M  V30 47 1 24 44
M  V30 END BOND
M  V30 END CTAB
M  END
>  <Dataset>  (521) 
ChEMBL_Kinases

>  <Ligand_Instance>  (521) 
nan

>  <PDB_ID>  (521) 
nan

>  <Standardized_SMILES>  (521) 
Cn1cc(Nc2ncc(C(F)(F)F)c(N[C@H]3C[C@@H]4CC[C@H]3C4)n2)cn1

>  <Name>  (521) 
nan

>  <Pocket>  (521) 
nan

>  <ATP_Site>  (521) 
nan

>  <Peripheral>  (521) 
nan

>  <Num_H_Atoms_ProtBoundConf>  (521) 
nan

>  <Num_Resolved_Atoms>  (521) 
nan

>  <Num_Not_Resolved_Atoms>  (521) 
nan

$$$$
CHEMBL2071205
     RDKit          3D

  0  0  0  0  0  0  0  0  0  0999 V3000
M  V30 BEGIN CTAB
M  V30 COUNTS 54 57 0 0 0
M  V30 BEGIN ATOM
M  V30 1 C 4.414362 -2.313836 -2.437904 0
M  V30 2 N 4.441612 -2.119386 -0.989493 0
M  V30 3 C 3.656210 -1.282538 -0.292421 0
M  V30 4 C 3.984261 -1.395091 1.059540 0
M  V30 5 N 3.329123 -0.640938 2.067841 0
M  V30 6 C 2.393493 0.352474 1.687413 0
M  V30 7 N 2.904794 1.595372 1.754350 0
M  V30 8 C 2.166646 2.667871 1.426630 0
M  V30 9 C 0.870613 2.497420 1.018432 0
M  V30 10 C 0.063968 3.689128 0.657106 0
M  V30 11 F 0.830063 4.854659 0.819656 0
M  V30 12 F -1.059543 3.858353 1.404539 0
M  V30 13 F -0.297340 3.604785 -0.674505 0
M  V30 14 C 0.302764 1.235630 0.934716 0
M  V30 15 N -1.031455 0.971455 0.512330 0
M  V30 16 C -1.975424 -0.054071 0.294408 0 CFG=1
M  V30 17 C -1.594890 -1.205510 -0.566083 0 CFG=1
M  V30 18 C -0.419239 -0.986868 -1.440738 0
M  V30 19 N -0.111480 -2.155049 -2.203788 0
M  V30 20 O 0.404579 -0.078510 -1.724352 0
M  V30 21 C -1.561722 -2.493360 0.211412 0
M  V30 22 C -2.383400 -2.440921 1.450721 0 CFG=1
M  V30 23 C -1.837249 -1.339787 2.385741 0
M  V30 24 C -2.670988 -0.410960 1.559370 0 CFG=2
M  V30 25 C -3.606177 -1.594891 1.415343 0
M  V30 26 C -4.495946 -1.622533 0.245267 0
M  V30 27 C -4.370594 -1.751095 2.719924 0
M  V30 28 N 1.128788 0.239865 1.283605 0
M  V30 29 C 4.996428 -2.332651 1.130602 0
M  V30 30 N 5.233947 -2.738251 -0.132484 0
M  V30 31 H 5.415285 -2.252706 -2.905240 0
M  V30 32 H 3.994557 -3.345677 -2.572578 0
M  V30 33 H 3.770495 -1.551218 -2.913848 0
M  V30 34 H 2.919045 -0.660591 -0.767967 0
M  V30 35 H 3.590390 -0.879504 3.040580 0
M  V30 36 H 2.537322 3.680234 1.466396 0
M  V30 37 H -1.463760 1.926716 0.287171 0
M  V30 38 H -2.827597 0.468278 -0.315535 0
M  V30 39 H -2.416092 -1.377182 -1.340138 0
M  V30 40 H 0.820963 -2.445729 -2.612806 0
M  V30 41 H -0.519913 -3.035747 -2.615647 0
M  V30 42 H -1.864547 -3.377162 -0.380583 0
M  V30 43 H -0.487077 -2.694544 0.497086 0
M  V30 44 H -2.443325 -3.408673 1.979095 0
M  V30 45 H -0.762912 -1.297725 2.355136 0
M  V30 46 H -2.233481 -1.479050 3.424994 0
M  V30 47 H -3.096706 0.473198 2.078580 0
M  V30 48 H -5.582088 -1.730831 0.546199 0
M  V30 49 H -4.318210 -2.537950 -0.358714 0
M  V30 50 H -4.510816 -0.683555 -0.374066 0
M  V30 51 H -4.003466 -2.581865 3.348803 0
M  V30 52 H -4.316760 -0.844388 3.359727 0
M  V30 53 H -5.458361 -1.889356 2.520272 0
M  V30 54 H 5.441807 -2.609192 2.084607 0
M  V30 END ATOM
M  V30 BEGIN BOND
M  V30 1 1 1 2
M  V30 2 1 2 3
M  V30 3 2 3 4
M  V30 4 1 4 5
M  V30 5 1 5 6
M  V30 6 2 6 7
M  V30 7 1 7 8
M  V30 8 2 8 9
M  V30 9 1 9 10
M  V30 10 1 10 11
M  V30 11 1 10 12
M  V30 12 1 10 13
M  V30 13 1 9 14
M  V30 14 1 14 15
M  V30 15 1 15 16
M  V30 16 1 16 17
M  V30 17 1 17 18
M  V30 18 1 18 19
M  V30 19 2 18 20
M  V30 20 1 17 21
M  V30 21 1 21 22
M  V30 22 1 22 23
M  V30 23 1 23 24
M  V30 24 1 24 25
M  V30 25 1 25 26
M  V30 26 1 25 27
M  V30 27 2 14 28
M  V30 28 1 4 29
M  V30 29 2 29 30
M  V30 30 1 30 2
M  V30 31 1 28 6
M  V30 32 1 24 16
M  V30 33 1 25 22
M  V30 34 1 1 31
M  V30 35 1 1 32
M  V30 36 1 1 33
M  V30 37 1 3 34
M  V30 38 1 5 35
M  V30 39 1 8 36
M  V30 40 1 15 37
M  V30 41 1 16 38 CFG=3
M  V30 42 1 17 39 CFG=3
M  V30 43 1 19 40
M  V30 44 1 19 41
M  V30 45 1 21 42
M  V30 46 1 21 43
M  V30 47 1 22 44 CFG=1
M  V30 48 1 23 45
M  V30 49 1 23 46
M  V30 50 1 24 47 CFG=1
M  V30 51 1 26 48
M  V30 52 1 26 49
M  V30 53 1 26 50
M  V30 54 1 27 51
M  V30 55 1 27 52
M  V30 56 1 27 53
M  V30 57 1 29 54
M  V30 END BOND
M  V30 END CTAB
M  END
>  <Dataset>  (522) 
ChEMBL_Kinases

>  <Ligand_Instance>  (522) 
nan

>  <PDB_ID>  (522) 
nan

>  <Standardized_SMILES>  (522) 
Cn1cc(Nc2ncc(C(F)(F)F)c(N[C@H]3[C@@H](C(N)=O)C[C@H]4C[C@@H]3C4(C)C)n2)cn1

>  <Name>  (522) 
nan

>  <Pocket>  (522) 
nan

>  <ATP_Site>  (522) 
nan

>  <Peripheral>  (522) 
nan

>  <Num_H_Atoms_ProtBoundConf>  (522) 
nan

>  <Num_Resolved_Atoms>  (522) 
nan

>  <Num_Not_Resolved_Atoms>  (522) 
nan

$$$$
CHEMBL2071206
     RDKit          3D

  0  0  0  0  0  0  0  0  0  0999 V3000
M  V30 BEGIN CTAB
M  V30 COUNTS 49 52 0 0 0
M  V30 BEGIN ATOM
M  V30 1 C -3.073107 -0.079819 -2.181595 0
M  V30 2 N -2.824863 -0.846910 -0.992765 0
M  V30 3 C -2.502233 -2.221705 -0.950143 0
M  V30 4 O -2.471920 -2.680797 -2.153483 0
M  V30 5 C -2.213782 -3.180547 0.106335 0 CFG=2
M  V30 6 C -0.933678 -2.917245 0.900770 0 CFG=2
M  V30 7 N -0.427514 -1.604910 0.824035 0
M  V30 8 C -0.332422 -0.255673 1.163047 0
M  V30 9 N 0.467015 0.628954 0.518425 0
M  V30 10 C 0.577791 1.921988 0.816571 0
M  V30 11 N 1.470775 2.694437 0.027154 0
M  V30 12 C 2.830561 2.985978 0.420834 0
M  V30 13 C 3.770667 3.706357 -0.315440 0
M  V30 14 N 4.912991 3.770225 0.389480 0
M  V30 15 N 4.748941 3.119740 1.551646 0
M  V30 16 C 5.664151 2.894032 2.668896 0
M  V30 17 C 3.475927 2.631956 1.586704 0
M  V30 18 N -0.174932 2.350585 1.841891 0
M  V30 19 C -0.991687 1.536592 2.531875 0
M  V30 20 C -1.107144 0.172706 2.216782 0
M  V30 21 C -2.007182 -0.584240 3.100772 0
M  V30 22 F -3.033796 -1.239341 2.465571 0
M  V30 23 F -2.675785 0.284632 3.991275 0
M  V30 24 F -1.294852 -1.413225 3.978764 0
M  V30 25 C -0.004684 -4.032008 0.546828 0 CFG=1
M  V30 26 C -0.483186 -5.267858 1.233240 0
M  V30 27 C -1.717135 -5.464153 0.722781 0
M  V30 28 C -1.916963 -4.561532 -0.437958 0 CFG=2
M  V30 29 C -0.452423 -4.372333 -0.866377 0
M  V30 30 H -2.884899 0.995036 -1.937500 0
M  V30 31 H -2.352586 -0.388225 -2.979848 0
M  V30 32 H -4.114955 -0.185775 -2.549978 0
M  V30 33 H -2.879491 -0.413058 -0.050008 0
M  V30 34 H -3.067108 -3.321020 0.800765 0
M  V30 35 H -1.195641 -3.158208 1.999306 0
M  V30 36 H 0.272116 -1.794519 0.046126 0
M  V30 37 H 1.148305 3.075889 -0.883235 0
M  V30 38 H 3.619283 4.145177 -1.290851 0
M  V30 39 H 5.224608 3.308241 3.620391 0
M  V30 40 H 6.642557 3.355393 2.493288 0
M  V30 41 H 5.810804 1.817062 2.873550 0
M  V30 42 H 3.015213 2.057762 2.382274 0
M  V30 43 H -1.502147 2.081507 3.311869 0
M  V30 44 H 1.053286 -3.830726 0.666131 0
M  V30 45 H -0.082164 -5.955033 1.973486 0
M  V30 46 H -2.526002 -6.146731 1.025642 0
M  V30 47 H -2.555035 -4.919462 -1.220233 0
M  V30 48 H -0.303233 -3.499213 -1.502017 0
M  V30 49 H -0.009544 -5.307437 -1.239475 0
M  V30 END ATOM
M  V30 BEGIN BOND
M  V30 1 1 1 2
M  V30 2 1 2 3
M  V30 3 2 3 4
M  V30 4 1 3 5
M  V30 5 1 5 6
M  V30 6 1 6 7
M  V30 7 1 7 8
M  V30 8 2 8 9
M  V30 9 1 9 10
M  V30 10 1 10 11
M  V30 11 1 11 12
M  V30 12 1 12 13
M  V30 13 2 13 14
M  V30 14 1 14 15
M  V30 15 1 15 16
M  V30 16 1 15 17
M  V30 17 2 10 18
M  V30 18 1 18 19
M  V30 19 2 19 20
M  V30 20 1 20 21
M  V30 21 1 21 22
M  V30 22 1 21 23
M  V30 23 1 21 24
M  V30 24 1 6 25
M  V30 25 1 25 26
M  V30 26 2 26 27
M  V30 27 1 27 28
M  V30 28 1 28 29
M  V30 29 1 28 5
M  V30 30 1 20 8
M  V30 31 1 29 25
M  V30 32 2 17 12
M  V30 33 1 1 30
M  V30 34 1 1 31
M  V30 35 1 1 32
M  V30 36 1 2 33
M  V30 37 1 5 34 CFG=1
M  V30 38 1 6 35 CFG=1
M  V30 39 1 7 36
M  V30 40 1 11 37
M  V30 41 1 13 38
M  V30 42 1 16 39
M  V30 43 1 16 40
M  V30 44 1 16 41
M  V30 45 1 17 42
M  V30 46 1 19 43
M  V30 47 1 25 44 CFG=3
M  V30 48 1 26 45
M  V30 49 1 27 46
M  V30 50 1 28 47 CFG=3
M  V30 51 1 29 48
M  V30 52 1 29 49
M  V30 END BOND
M  V30 END CTAB
M  END
>  <Dataset>  (523) 
ChEMBL_Kinases

>  <Ligand_Instance>  (523) 
nan

>  <PDB_ID>  (523) 
nan

>  <Standardized_SMILES>  (523) 
CNC(=O)[C@@H]1[C@H](Nc2nc(Nc3cnn(C)c3)ncc2C(F)(F)F)[C@H]2C=C[C@@H]1C2

>  <Name>  (523) 
nan

>  <Pocket>  (523) 
nan

>  <ATP_Site>  (523) 
nan

>  <Peripheral>  (523) 
nan

>  <Num_H_Atoms_ProtBoundConf>  (523) 
nan

>  <Num_Resolved_Atoms>  (523) 
nan

>  <Num_Not_Resolved_Atoms>  (523) 
nan

$$$$
CHEMBL2071207
     RDKit          3D

  0  0  0  0  0  0  0  0  0  0999 V3000
M  V30 BEGIN CTAB
M  V30 COUNTS 53 57 0 0 0
M  V30 BEGIN ATOM
M  V30 1 C 1.982800 -0.794276 -5.076997 0
M  V30 2 N 2.771545 -1.447791 -4.048353 0
M  V30 3 C 2.883583 -1.101236 -2.773901 0
M  V30 4 C 3.731332 -1.958188 -2.065453 0
M  V30 5 N 4.070115 -1.872679 -0.684274 0
M  V30 6 C 3.471136 -0.795796 0.028142 0
M  V30 7 N 4.135351 0.375588 0.066370 0
M  V30 8 C 3.605743 1.405474 0.723685 0
M  V30 9 C 2.393987 1.288593 1.361459 0
M  V30 10 C 1.775414 2.425712 2.106343 0
M  V30 11 F 2.590505 3.539236 2.039747 0
M  V30 12 F 1.644704 2.125315 3.442803 0
M  V30 13 F 0.566842 2.813093 1.550735 0
M  V30 14 C 1.680972 0.085711 1.339518 0
M  V30 15 N 0.404543 -0.119382 1.982485 0
M  V30 16 C -0.176899 -1.417284 1.854702 0 CFG=1
M  V30 17 C -1.511474 -1.434540 2.576119 0 CFG=1
M  V30 18 C -2.267026 -0.180755 2.303873 0
M  V30 19 O -2.095269 0.872737 1.643122 0
M  V30 20 N -3.547544 -0.139773 2.967593 0
M  V30 21 C -4.460219 0.991109 2.845864 0
M  V30 22 C -5.476633 1.253002 3.870605 0
M  V30 23 C -5.909367 0.541862 2.619572 0
M  V30 24 C -2.192481 -2.540872 1.774352 0 CFG=2
M  V30 25 C -1.265388 -3.719801 1.647164 0
M  V30 26 C -0.328407 -3.493970 0.697912 0
M  V30 27 C -0.422352 -1.988629 0.534090 0 CFG=1
M  V30 28 C -1.953922 -1.953489 0.389605 0
M  V30 29 N 2.307767 -0.893287 0.645597 0
M  V30 30 C 4.116730 -2.858280 -3.054368 0
M  V30 31 N 3.518288 -2.514120 -4.224187 0
M  V30 32 H 1.065792 -0.337053 -4.667915 0
M  V30 33 H 1.680947 -1.520904 -5.857862 0
M  V30 34 H 2.585591 -0.012762 -5.607396 0
M  V30 35 H 2.356626 -0.232362 -2.350754 0
M  V30 36 H 4.735407 -2.637556 -0.367908 0
M  V30 37 H 4.078219 2.392993 0.804853 0
M  V30 38 H 0.065284 0.757738 2.481368 0
M  V30 39 H 0.487773 -2.105583 2.460897 0
M  V30 40 H -1.417418 -1.650136 3.637787 0
M  V30 41 H -3.899686 -0.913797 3.575450 0
M  V30 42 H -4.126841 1.843857 2.213663 0
M  V30 43 H -5.498761 0.715058 4.834334 0
M  V30 44 H -5.852885 2.297540 3.945119 0
M  V30 45 H -6.171357 -0.522649 2.781843 0
M  V30 46 H -6.443600 1.038546 1.811013 0
M  V30 47 H -3.198747 -2.765385 2.030045 0
M  V30 48 H -1.436196 -4.590125 2.300323 0
M  V30 49 H 0.251975 -4.302208 0.270601 0
M  V30 50 H 0.108568 -1.623836 -0.317377 0
M  V30 51 H -2.356202 -0.963458 0.235367 0
M  V30 52 H -2.271653 -2.689624 -0.391664 0
M  V30 53 H 4.798854 -3.685563 -2.838110 0
M  V30 END ATOM
M  V30 BEGIN BOND
M  V30 1 1 1 2
M  V30 2 1 2 3
M  V30 3 2 3 4
M  V30 4 1 4 5
M  V30 5 1 5 6
M  V30 6 2 6 7
M  V30 7 1 7 8
M  V30 8 2 8 9
M  V30 9 1 9 10
M  V30 10 1 10 11
M  V30 11 1 10 12
M  V30 12 1 10 13
M  V30 13 1 9 14
M  V30 14 1 14 15
M  V30 15 1 15 16
M  V30 16 1 16 17
M  V30 17 1 17 18
M  V30 18 2 18 19
M  V30 19 1 18 20
M  V30 20 1 20 21
M  V30 21 1 21 22
M  V30 22 1 22 23
M  V30 23 1 17 24
M  V30 24 1 24 25
M  V30 25 2 25 26
M  V30 26 1 26 27
M  V30 27 1 27 28
M  V30 28 2 14 29
M  V30 29 1 4 30
M  V30 30 2 30 31
M  V30 31 1 31 2
M  V30 32 1 29 6
M  V30 33 1 27 16
M  V30 34 1 23 21
M  V30 35 1 28 24
M  V30 36 1 1 32
M  V30 37 1 1 33
M  V30 38 1 1 34
M  V30 39 1 3 35
M  V30 40 1 5 36
M  V30 41 1 8 37
M  V30 42 1 15 38
M  V30 43 1 16 39 CFG=1
M  V30 44 1 17 40 CFG=1
M  V30 45 1 20 41
M  V30 46 1 21 42
M  V30 47 1 22 43
M  V30 48 1 22 44
M  V30 49 1 23 45
M  V30 50 1 23 46
M  V30 51 1 24 47 CFG=1
M  V30 52 1 25 48
M  V30 53 1 26 49
M  V30 54 1 27 50 CFG=3
M  V30 55 1 28 51
M  V30 56 1 28 52
M  V30 57 1 30 53
M  V30 END BOND
M  V30 END CTAB
M  END
>  <Dataset>  (524) 
ChEMBL_Kinases

>  <Ligand_Instance>  (524) 
nan

>  <PDB_ID>  (524) 
nan

>  <Standardized_SMILES>  (524) 
Cn1cc(Nc2ncc(C(F)(F)F)c(N[C@H]3[C@@H](C(=O)NC4CC4)[C@@H]4C=C[C@H]3C4)n2)cn1

>  <Name>  (524) 
nan

>  <Pocket>  (524) 
nan

>  <ATP_Site>  (524) 
nan

>  <Peripheral>  (524) 
nan

>  <Num_H_Atoms_ProtBoundConf>  (524) 
nan

>  <Num_Resolved_Atoms>  (524) 
nan

>  <Num_Not_Resolved_Atoms>  (524) 
nan

$$$$
CHEMBL2071208
     RDKit          3D

  0  0  0  0  0  0  0  0  0  0999 V3000
M  V30 BEGIN CTAB
M  V30 COUNTS 53 56 0 0 0
M  V30 BEGIN ATOM
M  V30 1 C 1.643154 2.146286 -4.359706 0
M  V30 2 N 2.392192 1.076273 -3.712386 0
M  V30 3 C 2.562533 0.866569 -2.399125 0
M  V30 4 C 3.333555 -0.261088 -2.248544 0
M  V30 5 N 3.770693 -0.895744 -1.061260 0
M  V30 6 C 3.491918 -0.484708 0.279078 0
M  V30 7 N 4.220141 0.066630 1.270926 0
M  V30 8 C 3.596565 0.325702 2.433191 0
M  V30 9 C 2.262394 0.048045 2.630307 0
M  V30 10 C 1.592404 0.335870 3.925393 0
M  V30 11 F 2.534264 0.888611 4.768092 0
M  V30 12 F 1.159899 -0.821987 4.542664 0
M  V30 13 F 0.583909 1.257129 3.783953 0
M  V30 14 C 1.497476 -0.522238 1.610446 0
M  V30 15 N 0.089420 -0.842579 1.781674 0
M  V30 16 C -0.467406 -1.372273 0.575440 0 CFG=1
M  V30 17 C -1.863729 -1.879325 0.623776 0 CFG=1
M  V30 18 C -2.343129 -2.421183 1.881927 0
M  V30 19 O -2.545273 -3.691687 1.897563 0
M  V30 20 N -2.644089 -1.844766 3.116856 0
M  V30 21 C -3.116086 -2.264691 4.407802 0
M  V30 22 C -4.496444 -2.845970 4.279246 0
M  V30 23 O -4.482950 -3.939803 3.441788 0
M  V30 24 C -2.704719 -0.792362 0.034708 0 CFG=2
M  V30 25 C -2.536238 -0.883542 -1.462578 0
M  V30 26 C -1.202277 -0.713945 -1.620002 0
M  V30 27 C -0.608290 -0.188885 -0.376676 0 CFG=1
M  V30 28 C -1.853681 0.439742 0.269140 0
M  V30 29 N 2.200209 -0.743049 0.496676 0
M  V30 30 C 3.630718 -0.734475 -3.517937 0
M  V30 31 N 3.033180 0.116135 -4.369309 0
M  V30 32 H 2.275491 2.838761 -4.919209 0
M  V30 33 H 1.024804 2.623130 -3.583205 0
M  V30 34 H 0.917559 1.610628 -5.035520 0
M  V30 35 H 2.167636 1.470394 -1.568775 0
M  V30 36 H 4.359215 -1.755589 -1.067199 0
M  V30 37 H 4.209635 0.766000 3.200003 0
M  V30 38 H -0.219462 -0.625431 2.729733 0
M  V30 39 H 0.244940 -2.090551 0.093347 0
M  V30 40 H -1.897982 -2.720038 -0.146404 0
M  V30 41 H -2.492781 -0.803943 3.068372 0
M  V30 42 H -3.151140 -1.437007 5.138787 0
M  V30 43 H -2.437229 -3.063387 4.840984 0
M  V30 44 H -5.170789 -2.070887 3.826874 0
M  V30 45 H -4.892014 -3.181295 5.266371 0
M  V30 46 H -5.341990 -4.178200 3.041811 0
M  V30 47 H -3.735608 -0.723222 0.339672 0
M  V30 48 H -3.029827 -1.023903 -2.437182 0
M  V30 49 H -0.499641 -0.877066 -2.439706 0
M  V30 50 H 0.228475 0.469058 -0.446682 0
M  V30 51 H -1.711979 0.677770 1.326087 0
M  V30 52 H -2.223368 1.278239 -0.357806 0
M  V30 53 H 4.231808 -1.620134 -3.725869 0
M  V30 END ATOM
M  V30 BEGIN BOND
M  V30 1 1 1 2
M  V30 2 1 2 3
M  V30 3 2 3 4
M  V30 4 1 4 5
M  V30 5 1 5 6
M  V30 6 2 6 7
M  V30 7 1 7 8
M  V30 8 2 8 9
M  V30 9 1 9 10
M  V30 10 1 10 11
M  V30 11 1 10 12
M  V30 12 1 10 13
M  V30 13 1 9 14
M  V30 14 1 14 15
M  V30 15 1 15 16
M  V30 16 1 16 17
M  V30 17 1 17 18
M  V30 18 2 18 19
M  V30 19 1 18 20
M  V30 20 1 20 21
M  V30 21 1 21 22
M  V30 22 1 22 23
M  V30 23 1 17 24
M  V30 24 1 24 25
M  V30 25 2 25 26
M  V30 26 1 26 27
M  V30 27 1 27 28
M  V30 28 2 14 29
M  V30 29 1 4 30
M  V30 30 2 30 31
M  V30 31 1 31 2
M  V30 32 1 29 6
M  V30 33 1 27 16
M  V30 34 1 28 24
M  V30 35 1 1 32
M  V30 36 1 1 33
M  V30 37 1 1 34
M  V30 38 1 3 35
M  V30 39 1 5 36
M  V30 40 1 8 37
M  V30 41 1 15 38
M  V30 42 1 16 39 CFG=3
M  V30 43 1 17 40 CFG=3
M  V30 44 1 20 41
M  V30 45 1 21 42
M  V30 46 1 21 43
M  V30 47 1 22 44
M  V30 48 1 22 45
M  V30 49 1 23 46
M  V30 50 1 24 47 CFG=3
M  V30 51 1 25 48
M  V30 52 1 26 49
M  V30 53 1 27 50 CFG=3
M  V30 54 1 28 51
M  V30 55 1 28 52
M  V30 56 1 30 53
M  V30 END BOND
M  V30 END CTAB
M  END
>  <Dataset>  (525) 
ChEMBL_Kinases

>  <Ligand_Instance>  (525) 
nan

>  <PDB_ID>  (525) 
nan

>  <Standardized_SMILES>  (525) 
Cn1cc(Nc2ncc(C(F)(F)F)c(N[C@H]3[C@@H](C(=O)NCCO)[C@@H]4C=C[C@H]3C4)n2)cn1

>  <Name>  (525) 
nan

>  <Pocket>  (525) 
nan

>  <ATP_Site>  (525) 
nan

>  <Peripheral>  (525) 
nan

>  <Num_H_Atoms_ProtBoundConf>  (525) 
nan

>  <Num_Resolved_Atoms>  (525) 
nan

>  <Num_Not_Resolved_Atoms>  (525) 
nan

$$$$
CHEMBL2071209
     RDKit          3D

  0  0  0  0  0  0  0  0  0  0999 V3000
M  V30 BEGIN CTAB
M  V30 COUNTS 41 43 0 0 0
M  V30 BEGIN ATOM
M  V30 1 C 0.391231 -4.230194 3.093450 0
M  V30 2 N 1.034203 -4.234612 1.808408 0
M  V30 3 C 1.172886 -3.238830 0.898741 0
M  V30 4 C 1.844950 -3.587419 -0.228336 0
M  V30 5 N 2.188962 -2.820221 -1.362531 0
M  V30 6 C 2.011078 -1.417182 -1.441729 0
M  V30 7 N 2.292469 -0.689154 -2.521579 0
M  V30 8 C 2.132726 0.641304 -2.590154 0
M  V30 9 C 1.648915 1.342140 -1.495131 0
M  V30 10 C 1.391116 2.782506 -1.312659 0
M  V30 11 F 1.691781 3.517110 -2.429609 0
M  V30 12 F 2.165883 3.266785 -0.282402 0
M  V30 13 F 0.062709 3.003825 -0.997097 0
M  V30 14 C 1.348327 0.597580 -0.353408 0
M  V30 15 N 0.810143 1.088794 0.879106 0
M  V30 16 C -0.557858 0.841541 1.155205 0
M  V30 17 C -1.227406 0.100585 0.205581 0
M  V30 18 C -2.584504 -0.167553 0.424664 0
M  V30 19 C -3.237972 0.287536 1.546926 0
M  V30 20 C -2.450008 1.006866 2.400507 0
M  V30 21 C -1.141808 1.343910 2.323937 0
M  V30 22 C -0.412182 2.116748 3.312430 0
M  V30 23 N -1.187189 2.517728 4.428504 0
M  V30 24 O 0.801988 2.399222 3.178598 0
M  V30 25 N 1.543079 -0.730549 -0.385946 0
M  V30 26 C 2.128839 -4.900979 0.034252 0
M  V30 27 N 1.650886 -5.263582 1.221250 0
M  V30 28 H 1.169215 -4.138876 3.905485 0
M  V30 29 H -0.156322 -5.186558 3.294525 0
M  V30 30 H -0.300017 -3.351341 3.198108 0
M  V30 31 H 0.733395 -2.276386 1.154131 0
M  V30 32 H 2.595522 -3.328248 -2.186503 0
M  V30 33 H 2.336382 1.284051 -3.432386 0
M  V30 34 H 1.657122 1.517122 1.239321 0
M  V30 35 H -0.791799 -0.293989 -0.694641 0
M  V30 36 H -3.107348 -0.751131 -0.324947 0
M  V30 37 H -4.281921 0.085759 1.725826 0
M  V30 38 H -2.998673 1.364046 3.282936 0
M  V30 39 H -0.713880 1.989661 5.216504 0
M  V30 40 H -0.778917 2.029534 5.272637 0
M  V30 41 H 2.676833 -5.613600 -0.606891 0
M  V30 END ATOM
M  V30 BEGIN BOND
M  V30 1 1 1 2
M  V30 2 1 2 3
M  V30 3 2 3 4
M  V30 4 1 4 5
M  V30 5 1 5 6
M  V30 6 2 6 7
M  V30 7 1 7 8
M  V30 8 2 8 9
M  V30 9 1 9 10
M  V30 10 1 10 11
M  V30 11 1 10 12
M  V30 12 1 10 13
M  V30 13 1 9 14
M  V30 14 1 14 15
M  V30 15 1 15 16
M  V30 16 2 16 17
M  V30 17 1 17 18
M  V30 18 2 18 19
M  V30 19 1 19 20
M  V30 20 2 20 21
M  V30 21 1 21 22
M  V30 22 1 22 23
M  V30 23 2 22 24
M  V30 24 2 14 25
M  V30 25 1 4 26
M  V30 26 2 26 27
M  V30 27 1 27 2
M  V30 28 1 25 6
M  V30 29 1 21 16
M  V30 30 1 1 28
M  V30 31 1 1 29
M  V30 32 1 1 30
M  V30 33 1 3 31
M  V30 34 1 5 32
M  V30 35 1 8 33
M  V30 36 1 15 34
M  V30 37 1 17 35
M  V30 38 1 18 36
M  V30 39 1 19 37
M  V30 40 1 20 38
M  V30 41 1 23 39
M  V30 42 1 23 40
M  V30 43 1 26 41
M  V30 END BOND
M  V30 END CTAB
M  END
>  <Dataset>  (526) 
ChEMBL_Kinases

>  <Ligand_Instance>  (526) 
nan

>  <PDB_ID>  (526) 
nan

>  <Standardized_SMILES>  (526) 
Cn1cc(Nc2ncc(C(F)(F)F)c(Nc3ccccc3C(N)=O)n2)cn1

>  <Name>  (526) 
nan

>  <Pocket>  (526) 
nan

>  <ATP_Site>  (526) 
nan

>  <Peripheral>  (526) 
nan

>  <Num_H_Atoms_ProtBoundConf>  (526) 
nan

>  <Num_Resolved_Atoms>  (526) 
nan

>  <Num_Not_Resolved_Atoms>  (526) 
nan

$$$$
CHEMBL2071271
     RDKit          3D

  0  0  0  0  0  0  0  0  0  0999 V3000
M  V30 BEGIN CTAB
M  V30 COUNTS 46 49 0 0 0
M  V30 BEGIN ATOM
M  V30 1 N -3.037200 -1.951098 2.129817 0
M  V30 2 C -2.301713 -3.062860 1.607585 0
M  V30 3 O -3.110492 -3.917986 1.130759 0
M  V30 4 C -0.849531 -2.989203 1.724871 0 CFG=2
M  V30 5 C -0.212341 -1.838108 0.958481 0 CFG=2
M  V30 6 N -1.204710 -1.357956 0.015239 0
M  V30 7 C -0.953598 -0.308161 -0.896157 0
M  V30 8 N 0.244547 0.262050 -0.915172 0
M  V30 9 C 0.660146 1.262569 -1.691096 0
M  V30 10 N 1.936657 1.938687 -1.716813 0
M  V30 11 C 2.193998 2.289073 -0.344984 0
M  V30 12 C 2.737420 3.502271 0.079225 0
M  V30 13 N 2.857042 3.521249 1.405590 0
M  V30 14 N 2.419038 2.370269 1.923475 0
M  V30 15 C 2.203230 1.730651 3.233821 0
M  V30 16 C 0.797292 1.990133 3.646380 0
M  V30 17 O 0.129088 1.653915 4.650148 0
M  V30 18 O -0.193175 2.726426 2.966806 0
M  V30 19 C 2.023242 1.633568 0.851085 0
M  V30 20 N -0.253272 1.724913 -2.537712 0
M  V30 21 C -1.525859 1.242433 -2.632121 0
M  V30 22 C -1.883965 0.197045 -1.788065 0
M  V30 23 Cl -3.496878 -0.519523 -1.764262 0
M  V30 24 C 0.919809 -2.523233 0.270966 0 CFG=1
M  V30 25 C 1.886704 -3.067693 1.283380 0
M  V30 26 C 1.272031 -4.087657 1.912049 0
M  V30 27 C -0.100328 -4.220731 1.301470 0 CFG=2
M  V30 28 C 0.251267 -3.827735 -0.144258 0
M  V30 29 H -3.967286 -1.879940 2.610184 0
M  V30 30 H -2.775942 -0.919345 2.134389 0
M  V30 31 H -0.567518 -2.815459 2.797137 0
M  V30 32 H 0.120869 -1.031253 1.646684 0
M  V30 33 H -2.173095 -1.757977 -0.044654 0
M  V30 34 H 2.543887 2.135323 -2.516278 0
M  V30 35 H 3.036465 4.344850 -0.526304 0
M  V30 36 H 2.444701 0.664297 3.155288 0
M  V30 37 H 2.846655 2.268422 3.971256 0
M  V30 38 H -1.044414 2.313174 2.611816 0
M  V30 39 H 1.614418 0.631129 0.832611 0
M  V30 40 H -2.284232 1.621434 -3.315006 0
M  V30 41 H 1.404933 -1.999505 -0.549515 0
M  V30 42 H 2.906996 -2.879250 1.644350 0
M  V30 43 H 1.561757 -4.766856 2.711615 0
M  V30 44 H -0.569505 -5.164069 1.390990 0
M  V30 45 H 1.023845 -4.499425 -0.563541 0
M  V30 46 H -0.642686 -3.685326 -0.763629 0
M  V30 END ATOM
M  V30 BEGIN BOND
M  V30 1 1 1 2
M  V30 2 2 2 3
M  V30 3 1 2 4
M  V30 4 1 4 5
M  V30 5 1 5 6
M  V30 6 1 6 7
M  V30 7 2 7 8
M  V30 8 1 8 9
M  V30 9 1 9 10
M  V30 10 1 10 11
M  V30 11 1 11 12
M  V30 12 2 12 13
M  V30 13 1 13 14
M  V30 14 1 14 15
M  V30 15 1 15 16
M  V30 16 2 16 17
M  V30 17 1 16 18
M  V30 18 1 14 19
M  V30 19 2 9 20
M  V30 20 1 20 21
M  V30 21 2 21 22
M  V30 22 1 22 23
M  V30 23 1 5 24
M  V30 24 1 24 25
M  V30 25 2 25 26
M  V30 26 1 26 27
M  V30 27 1 27 28
M  V30 28 1 27 4
M  V30 29 1 22 7
M  V30 30 1 28 24
M  V30 31 2 19 11
M  V30 32 1 1 29
M  V30 33 1 1 30
M  V30 34 1 4 31 CFG=1
M  V30 35 1 5 32 CFG=1
M  V30 36 1 6 33
M  V30 37 1 10 34
M  V30 38 1 12 35
M  V30 39 1 15 36
M  V30 40 1 15 37
M  V30 41 1 18 38
M  V30 42 1 19 39
M  V30 43 1 21 40
M  V30 44 1 24 41 CFG=3
M  V30 45 1 25 42
M  V30 46 1 26 43
M  V30 47 1 27 44 CFG=3
M  V30 48 1 28 45
M  V30 49 1 28 46
M  V30 END BOND
M  V30 END CTAB
M  END
>  <Dataset>  (527) 
ChEMBL_Kinases

>  <Ligand_Instance>  (527) 
nan

>  <PDB_ID>  (527) 
nan

>  <Standardized_SMILES>  (527) 
NC(=O)[C@@H]1[C@H](Nc2nc(Nc3cnn(CC(=O)O)c3)ncc2Cl)[C@H]2C=C[C@@H]1C2

>  <Name>  (527) 
nan

>  <Pocket>  (527) 
nan

>  <ATP_Site>  (527) 
nan

>  <Peripheral>  (527) 
nan

>  <Num_H_Atoms_ProtBoundConf>  (527) 
nan

>  <Num_Resolved_Atoms>  (527) 
nan

>  <Num_Not_Resolved_Atoms>  (527) 
nan

$$$$
CHEMBL2071211
     RDKit          3D

  0  0  0  0  0  0  0  0  0  0999 V3000
M  V30 BEGIN CTAB
M  V30 COUNTS 45 48 0 0 0
M  V30 BEGIN ATOM
M  V30 1 C 0.549426 -6.801755 2.588155 0
M  V30 2 N 0.589940 -5.660727 1.690959 0
M  V30 3 C 1.723553 -5.008758 1.358326 0
M  V30 4 C 1.264787 -4.017453 0.498794 0
M  V30 5 N 2.094532 -3.050874 -0.132549 0
M  V30 6 C 1.786027 -1.984638 -1.024590 0
M  V30 7 N 1.744267 -2.046927 -2.366381 0
M  V30 8 C 1.436855 -0.955322 -3.087832 0
M  V30 9 C 1.157860 0.249512 -2.478149 0
M  V30 10 Cl 0.755650 1.679295 -3.413081 0
M  V30 11 C 1.198211 0.323369 -1.101131 0
M  V30 12 N 0.920949 1.543746 -0.381352 0
M  V30 13 C 0.920275 1.779935 1.014241 0 CFG=1
M  V30 14 C 0.590209 3.190966 1.424918 0 CFG=1
M  V30 15 C -0.800683 3.568502 1.030590 0
M  V30 16 C -1.705117 2.877681 2.039181 0
M  V30 17 C -0.742734 1.946323 2.735676 0 CFG=2
M  V30 18 C 0.403916 2.933922 2.920988 0
M  V30 19 C -0.074320 0.962977 1.811819 0 CFG=1
M  V30 20 C -0.990398 0.161844 1.014986 0
M  V30 21 N -1.919015 0.631024 0.045871 0
M  V30 22 O -1.374646 -1.037667 0.789500 0
M  V30 23 N 1.510971 -0.800679 -0.446503 0
M  V30 24 C -0.102450 -4.103176 0.345058 0
M  V30 25 N -0.469647 -5.134922 1.102734 0
M  V30 26 H -0.484605 -6.967466 2.954467 0
M  V30 27 H 0.877972 -7.738183 2.098240 0
M  V30 28 H 1.161263 -6.639750 3.496173 0
M  V30 29 H 2.743919 -5.152727 1.637775 0
M  V30 30 H 3.127899 -3.039390 0.023499 0
M  V30 31 H 1.410843 -1.034879 -4.164366 0
M  V30 32 H 0.687011 2.373711 -0.968350 0
M  V30 33 H 1.957701 1.572331 1.404937 0
M  V30 34 H 1.373681 3.923247 1.224245 0
M  V30 35 H -0.909711 4.671835 1.189567 0
M  V30 36 H -1.090618 3.304824 0.006405 0
M  V30 37 H -2.589818 2.418075 1.615739 0
M  V30 38 H -2.044135 3.595033 2.824865 0
M  V30 39 H -1.121940 1.516436 3.652858 0
M  V30 40 H 0.140536 3.825345 3.479915 0
M  V30 41 H 1.327226 2.431508 3.247076 0
M  V30 42 H 0.473994 0.258108 2.481344 0
M  V30 43 H -2.955432 0.790863 -0.109023 0
M  V30 44 H -2.935857 0.798029 -0.132050 0
M  V30 45 H -0.789513 -3.526150 -0.223399 0
M  V30 END ATOM
M  V30 BEGIN BOND
M  V30 1 1 1 2
M  V30 2 1 2 3
M  V30 3 2 3 4
M  V30 4 1 4 5
M  V30 5 1 5 6
M  V30 6 2 6 7
M  V30 7 1 7 8
M  V30 8 2 8 9
M  V30 9 1 9 10
M  V30 10 1 9 11
M  V30 11 1 11 12
M  V30 12 1 12 13
M  V30 13 1 13 14
M  V30 14 1 14 15
M  V30 15 1 15 16
M  V30 16 1 16 17
M  V30 17 1 17 18
M  V30 18 1 17 19
M  V30 19 1 19 20
M  V30 20 1 20 21
M  V30 21 2 20 22
M  V30 22 2 11 23
M  V30 23 1 4 24
M  V30 24 2 24 25
M  V30 25 1 25 2
M  V30 26 1 23 6
M  V30 27 1 19 13
M  V30 28 1 18 14
M  V30 29 1 1 26
M  V30 30 1 1 27
M  V30 31 1 1 28
M  V30 32 1 3 29
M  V30 33 1 5 30
M  V30 34 1 8 31
M  V30 35 1 12 32
M  V30 36 1 13 33 CFG=1
M  V30 37 1 14 34 CFG=1
M  V30 38 1 15 35
M  V30 39 1 15 36
M  V30 40 1 16 37
M  V30 41 1 16 38
M  V30 42 1 17 39 CFG=1
M  V30 43 1 18 40
M  V30 44 1 18 41
M  V30 45 1 19 42 CFG=1
M  V30 46 1 21 43
M  V30 47 1 21 44
M  V30 48 1 24 45
M  V30 END BOND
M  V30 END CTAB
M  END
>  <Dataset>  (528) 
ChEMBL_Kinases

>  <Ligand_Instance>  (528) 
nan

>  <PDB_ID>  (528) 
nan

>  <Standardized_SMILES>  (528) 
Cn1cc(Nc2ncc(Cl)c(N[C@H]3[C@H]4CC[C@H](C4)[C@H]3C(N)=O)n2)cn1

>  <Name>  (528) 
nan

>  <Pocket>  (528) 
nan

>  <ATP_Site>  (528) 
nan

>  <Peripheral>  (528) 
nan

>  <Num_H_Atoms_ProtBoundConf>  (528) 
nan

>  <Num_Resolved_Atoms>  (528) 
nan

>  <Num_Not_Resolved_Atoms>  (528) 
nan

$$$$
CHEMBL2071212
     RDKit          3D

  0  0  0  0  0  0  0  0  0  0999 V3000
M  V30 BEGIN CTAB
M  V30 COUNTS 43 46 0 0 0
M  V30 BEGIN ATOM
M  V30 1 C -0.938642 -5.510213 2.960446 0
M  V30 2 N 0.321905 -5.395473 2.224860 0
M  V30 3 C 0.590859 -4.463954 1.273943 0
M  V30 4 C 1.849020 -4.587544 0.739960 0
M  V30 5 N 2.498386 -3.808546 -0.283509 0
M  V30 6 C 1.592825 -2.785184 -0.755179 0
M  V30 7 N 0.664813 -3.030361 -1.690416 0
M  V30 8 C -0.179416 -2.078245 -2.119690 0
M  V30 9 C 0.000943 -0.841317 -1.510526 0
M  V30 10 Cl -1.063135 0.414176 -2.079667 0
M  V30 11 C 0.940810 -0.548193 -0.546332 0
M  V30 12 N 1.095190 0.689946 0.098080 0
M  V30 13 C 0.472931 1.961911 0.143147 0 CFG=1
M  V30 14 C -0.861703 2.017905 0.833736 0 CFG=1
M  V30 15 C -1.050652 0.896662 1.803808 0
M  V30 16 N -0.045943 0.912518 2.834938 0
M  V30 17 O -1.702336 -0.128257 2.190637 0
M  V30 18 C -0.699454 3.267538 1.676415 0 CFG=2
M  V30 19 C -0.614535 4.465399 0.752153 0
M  V30 20 C 0.820849 4.367146 0.276297 0
M  V30 21 C 1.225830 3.034524 0.860312 0 CFG=1
M  V30 22 O 0.606001 3.116877 2.127060 0
M  V30 23 N 1.744788 -1.595278 -0.190099 0
M  V30 24 C 2.356601 -5.687179 1.441412 0
M  V30 25 N 1.422919 -6.127420 2.302448 0
M  V30 26 H -1.210814 -4.482867 3.255943 0
M  V30 27 H -1.662105 -5.953977 2.243757 0
M  V30 28 H -0.782901 -6.204048 3.797507 0
M  V30 29 H -0.151916 -3.720252 1.002665 0
M  V30 30 H 3.494014 -4.103057 -0.508222 0
M  V30 31 H -0.933581 -2.249470 -2.869358 0
M  V30 32 H 1.917697 0.737442 0.766358 0
M  V30 33 H 0.271143 2.284515 -0.924131 0
M  V30 34 H -1.735821 2.113038 0.156165 0
M  V30 35 H 0.684768 0.340616 3.311688 0
M  V30 36 H 0.681982 0.951817 3.595038 0
M  V30 37 H -1.448660 3.353526 2.471594 0
M  V30 38 H -1.255918 4.226815 -0.143595 0
M  V30 39 H -0.873066 5.414304 1.218801 0
M  V30 40 H 1.379068 5.200874 0.752995 0
M  V30 41 H 0.890494 4.379764 -0.833964 0
M  V30 42 H 2.306587 2.887173 0.930735 0
M  V30 43 H 3.355145 -6.113034 1.300580 0
M  V30 END ATOM
M  V30 BEGIN BOND
M  V30 1 1 1 2
M  V30 2 1 2 3
M  V30 3 2 3 4
M  V30 4 1 4 5
M  V30 5 1 5 6
M  V30 6 2 6 7
M  V30 7 1 7 8
M  V30 8 2 8 9
M  V30 9 1 9 10
M  V30 10 1 9 11
M  V30 11 1 11 12
M  V30 12 1 12 13
M  V30 13 1 13 14
M  V30 14 1 14 15
M  V30 15 1 15 16
M  V30 16 2 15 17
M  V30 17 1 14 18
M  V30 18 1 18 19
M  V30 19 1 19 20
M  V30 20 1 20 21
M  V30 21 1 21 22
M  V30 22 2 11 23
M  V30 23 1 4 24
M  V30 24 2 24 25
M  V30 25 1 25 2
M  V30 26 1 23 6
M  V30 27 1 21 13
M  V30 28 1 22 18
M  V30 29 1 1 26
M  V30 30 1 1 27
M  V30 31 1 1 28
M  V30 32 1 3 29
M  V30 33 1 5 30
M  V30 34 1 8 31
M  V30 35 1 12 32
M  V30 36 1 13 33 CFG=3
M  V30 37 1 14 34 CFG=3
M  V30 38 1 16 35
M  V30 39 1 16 36
M  V30 40 1 18 37 CFG=1
M  V30 41 1 19 38
M  V30 42 1 19 39
M  V30 43 1 20 40
M  V30 44 1 20 41
M  V30 45 1 21 42 CFG=1
M  V30 46 1 24 43
M  V30 END BOND
M  V30 END CTAB
M  END
>  <Dataset>  (529) 
ChEMBL_Kinases

>  <Ligand_Instance>  (529) 
nan

>  <PDB_ID>  (529) 
nan

>  <Standardized_SMILES>  (529) 
Cn1cc(Nc2ncc(Cl)c(N[C@H]3[C@@H](C(N)=O)[C@@H]4CC[C@H]3O4)n2)cn1

>  <Name>  (529) 
nan

>  <Pocket>  (529) 
nan

>  <ATP_Site>  (529) 
nan

>  <Peripheral>  (529) 
nan

>  <Num_H_Atoms_ProtBoundConf>  (529) 
nan

>  <Num_Resolved_Atoms>  (529) 
nan

>  <Num_Not_Resolved_Atoms>  (529) 
nan

$$$$
CHEMBL2071213
     RDKit          3D

  0  0  0  0  0  0  0  0  0  0999 V3000
M  V30 BEGIN CTAB
M  V30 COUNTS 44 46 0 0 0
M  V30 BEGIN ATOM
M  V30 1 C -2.098200 -5.944328 0.093753 0
M  V30 2 N -0.701955 -5.599065 0.281705 0
M  V30 3 C -0.035808 -4.481539 -0.033999 0
M  V30 4 C 1.253926 -4.695869 0.382477 0
M  V30 5 N 2.368989 -3.822191 0.306791 0
M  V30 6 C 2.543342 -2.506291 -0.183918 0
M  V30 7 N 3.245593 -2.030891 -1.216436 0
M  V30 8 C 3.320866 -0.743238 -1.566632 0
M  V30 9 C 2.607699 0.133714 -0.782184 0
M  V30 10 Cl 2.726513 1.806102 -1.187019 0
M  V30 11 C 1.856645 -0.273171 0.298492 0
M  V30 12 N 1.085254 0.581561 1.136356 0
M  V30 13 C 0.666209 1.918891 1.358321 0 CFG=2
M  V30 14 C -0.031831 2.137081 2.710212 0
M  V30 15 C 0.282748 3.571971 3.106673 0
M  V30 16 C 0.187386 4.406968 1.834994 0
M  V30 17 C -0.726534 3.826826 0.809140 0
M  V30 18 C -0.367739 2.427816 0.352341 0 CFG=2
M  V30 19 C -1.598626 1.555117 0.441454 0
M  V30 20 N -1.325137 0.167157 0.175945 0
M  V30 21 O -2.828331 1.653101 0.681598 0
M  V30 22 N 1.880142 -1.592780 0.524075 0
M  V30 23 C 1.374490 -5.950688 0.953627 0
M  V30 24 N 0.132383 -6.467784 0.865220 0
M  V30 25 H -2.647423 -5.534574 0.991917 0
M  V30 26 H -2.553609 -5.445217 -0.786640 0
M  V30 27 H -2.239104 -7.041622 0.016611 0
M  V30 28 H -0.439574 -3.621976 -0.506245 0
M  V30 29 H 3.319804 -4.031493 0.629477 0
M  V30 30 H 3.915426 -0.452005 -2.417720 0
M  V30 31 H 0.623023 0.041691 1.917614 0
M  V30 32 H 1.529296 2.628002 1.312930 0
M  V30 33 H -1.131232 2.087463 2.537663 0
M  V30 34 H 0.242929 1.391843 3.462832 0
M  V30 35 H 1.313102 3.602793 3.508765 0
M  V30 36 H -0.445512 3.931184 3.858641 0
M  V30 37 H 1.195221 4.683201 1.446892 0
M  V30 38 H -0.262112 5.380046 2.151611 0
M  V30 39 H -1.768244 3.844098 1.236975 0
M  V30 40 H -0.761278 4.553904 -0.039268 0
M  V30 41 H -0.026997 2.446627 -0.674175 0
M  V30 42 H -1.523331 0.003763 -0.832838 0
M  V30 43 H -1.047129 -0.815863 0.347996 0
M  V30 44 H 2.286605 -6.401154 1.371562 0
M  V30 END ATOM
M  V30 BEGIN BOND
M  V30 1 1 1 2
M  V30 2 1 2 3
M  V30 3 2 3 4
M  V30 4 1 4 5
M  V30 5 1 5 6
M  V30 6 2 6 7
M  V30 7 1 7 8
M  V30 8 2 8 9
M  V30 9 1 9 10
M  V30 10 1 9 11
M  V30 11 1 11 12
M  V30 12 1 12 13
M  V30 13 1 13 14
M  V30 14 1 14 15
M  V30 15 1 15 16
M  V30 16 1 16 17
M  V30 17 1 17 18
M  V30 18 1 18 19
M  V30 19 1 19 20
M  V30 20 2 19 21
M  V30 21 2 11 22
M  V30 22 1 4 23
M  V30 23 2 23 24
M  V30 24 1 24 2
M  V30 25 1 22 6
M  V30 26 1 18 13
M  V30 27 1 1 25
M  V30 28 1 1 26
M  V30 29 1 1 27
M  V30 30 1 3 28
M  V30 31 1 5 29
M  V30 32 1 8 30
M  V30 33 1 12 31
M  V30 34 1 13 32 CFG=1
M  V30 35 1 14 33
M  V30 36 1 14 34
M  V30 37 1 15 35
M  V30 38 1 15 36
M  V30 39 1 16 37
M  V30 40 1 16 38
M  V30 41 1 17 39
M  V30 42 1 17 40
M  V30 43 1 18 41 CFG=3
M  V30 44 1 20 42
M  V30 45 1 20 43
M  V30 46 1 23 44
M  V30 END BOND
M  V30 END CTAB
M  END
>  <Dataset>  (530) 
ChEMBL_Kinases

>  <Ligand_Instance>  (530) 
nan

>  <PDB_ID>  (530) 
nan

>  <Standardized_SMILES>  (530) 
Cn1cc(Nc2ncc(Cl)c(N[C@@H]3CCCC[C@@H]3C(N)=O)n2)cn1

>  <Name>  (530) 
nan

>  <Pocket>  (530) 
nan

>  <ATP_Site>  (530) 
nan

>  <Peripheral>  (530) 
nan

>  <Num_H_Atoms_ProtBoundConf>  (530) 
nan

>  <Num_Resolved_Atoms>  (530) 
nan

>  <Num_Not_Resolved_Atoms>  (530) 
nan

$$$$
CHEMBL2071214
     RDKit          3D

  0  0  0  0  0  0  0  0  0  0999 V3000
M  V30 BEGIN CTAB
M  V30 COUNTS 41 43 0 0 0
M  V30 BEGIN ATOM
M  V30 1 C -0.589259 -5.319536 1.447794 0
M  V30 2 N 0.220891 -4.321668 2.146537 0
M  V30 3 C 0.729973 -3.207825 1.540308 0
M  V30 4 C 1.402738 -2.579090 2.565323 0
M  V30 5 N 2.122068 -1.357477 2.475340 0
M  V30 6 C 2.353145 -0.560999 1.322374 0
M  V30 7 N 3.516096 -0.730599 0.629901 0
M  V30 8 C 3.803858 -0.028451 -0.455947 0
M  V30 9 C 2.897925 0.908381 -0.905290 0
M  V30 10 Cl 3.164474 1.902366 -2.331571 0
M  V30 11 C 1.699432 1.086361 -0.196698 0
M  V30 12 N 0.700616 2.031320 -0.566155 0
M  V30 13 C -0.563256 2.273895 0.058594 0 CFG=2
M  V30 14 C -0.493455 2.529912 1.544940 0
M  V30 15 C -1.180288 1.368956 2.230159 0
M  V30 16 C -1.703498 0.458672 1.154699 0
M  V30 17 C -1.619225 1.242834 -0.139954 0 CFG=2
M  V30 18 C -1.489675 0.415660 -1.344925 0
M  V30 19 N -0.375358 -0.423485 -1.561224 0
M  V30 20 O -2.308139 0.328161 -2.323491 0
M  V30 21 N 1.446234 0.340156 0.916432 0
M  V30 22 C 1.302151 -3.288390 3.742654 0
M  V30 23 N 0.555387 -4.356356 3.407214 0
M  V30 24 H -0.340304 -6.336897 1.744687 0
M  V30 25 H -1.677090 -5.079615 1.592269 0
M  V30 26 H -0.430075 -5.229690 0.357014 0
M  V30 27 H 0.628332 -2.900446 0.516013 0
M  V30 28 H 2.579960 -0.892017 3.281228 0
M  V30 29 H 4.719942 -0.159726 -1.003131 0
M  V30 30 H 0.970854 2.608297 -1.420884 0
M  V30 31 H -0.992578 3.237280 -0.366137 0
M  V30 32 H 0.533278 2.615147 1.945340 0
M  V30 33 H -1.017724 3.455968 1.853693 0
M  V30 34 H -2.007906 1.732320 2.900526 0
M  V30 35 H -0.512946 0.789764 2.881472 0
M  V30 36 H -1.187668 -0.524902 1.100591 0
M  V30 37 H -2.749347 0.201596 1.436664 0
M  V30 38 H -2.648446 1.716197 -0.228494 0
M  V30 39 H 0.454054 -1.035399 -1.695178 0
M  V30 40 H -0.094756 -0.984082 -2.390267 0
M  V30 41 H 1.732419 -3.022643 4.692661 0
M  V30 END ATOM
M  V30 BEGIN BOND
M  V30 1 1 1 2
M  V30 2 1 2 3
M  V30 3 2 3 4
M  V30 4 1 4 5
M  V30 5 1 5 6
M  V30 6 2 6 7
M  V30 7 1 7 8
M  V30 8 2 8 9
M  V30 9 1 9 10
M  V30 10 1 9 11
M  V30 11 1 11 12
M  V30 12 1 12 13
M  V30 13 1 13 14
M  V30 14 1 14 15
M  V30 15 1 15 16
M  V30 16 1 16 17
M  V30 17 1 17 18
M  V30 18 1 18 19
M  V30 19 2 18 20
M  V30 20 2 11 21
M  V30 21 1 4 22
M  V30 22 2 22 23
M  V30 23 1 23 2
M  V30 24 1 21 6
M  V30 25 1 17 13
M  V30 26 1 1 24
M  V30 27 1 1 25
M  V30 28 1 1 26
M  V30 29 1 3 27
M  V30 30 1 5 28
M  V30 31 1 8 29
M  V30 32 1 12 30
M  V30 33 1 13 31 CFG=3
M  V30 34 1 14 32
M  V30 35 1 14 33
M  V30 36 1 15 34
M  V30 37 1 15 35
M  V30 38 1 16 36
M  V30 39 1 16 37
M  V30 40 1 17 38 CFG=3
M  V30 41 1 19 39
M  V30 42 1 19 40
M  V30 43 1 22 41
M  V30 END BOND
M  V30 END CTAB
M  END
>  <Dataset>  (531) 
ChEMBL_Kinases

>  <Ligand_Instance>  (531) 
nan

>  <PDB_ID>  (531) 
nan

>  <Standardized_SMILES>  (531) 
Cn1cc(Nc2ncc(Cl)c(N[C@@H]3CCC[C@@H]3C(N)=O)n2)cn1

>  <Name>  (531) 
nan

>  <Pocket>  (531) 
nan

>  <ATP_Site>  (531) 
nan

>  <Peripheral>  (531) 
nan

>  <Num_H_Atoms_ProtBoundConf>  (531) 
nan

>  <Num_Resolved_Atoms>  (531) 
nan

>  <Num_Not_Resolved_Atoms>  (531) 
nan

$$$$
CHEMBL2071215
     RDKit          3D

  0  0  0  0  0  0  0  0  0  0999 V3000
M  V30 BEGIN CTAB
M  V30 COUNTS 38 40 0 0 0
M  V30 BEGIN ATOM
M  V30 1 C -1.158212 -4.071722 3.453539 0
M  V30 2 N -0.238586 -2.974834 3.632942 0
M  V30 3 C 0.421124 -2.359074 2.632851 0
M  V30 4 C 1.219256 -1.354380 3.129931 0
M  V30 5 N 2.088605 -0.449299 2.428138 0
M  V30 6 C 2.118055 -0.588651 1.019383 0
M  V30 7 N 3.015874 -1.490275 0.525744 0
M  V30 8 C 3.094747 -1.668493 -0.805657 0
M  V30 9 C 2.307246 -0.979466 -1.699175 0
M  V30 10 Cl 2.322112 -1.126913 -3.429932 0
M  V30 11 C 1.386281 -0.053760 -1.186888 0
M  V30 12 N 0.484205 0.773584 -1.909889 0
M  V30 13 C -0.495142 1.737419 -1.540998 0 CFG=2
M  V30 14 C 0.000731 2.882925 -0.681805 0
M  V30 15 C -0.889105 2.398218 0.429977 0
M  V30 16 C -1.526752 1.429297 -0.531374 0 CFG=2
M  V30 17 C -1.652859 0.049021 -0.023670 0
M  V30 18 N -1.880780 -1.036669 -0.886560 0
M  V30 19 O -1.559485 -0.216300 1.224348 0
M  V30 20 N 1.350266 0.083309 0.147986 0
M  V30 21 C 0.974755 -1.431870 4.491538 0
M  V30 22 N 0.102329 -2.404019 4.775853 0
M  V30 23 H -2.120789 -3.733618 3.053070 0
M  V30 24 H -1.346602 -4.641514 4.374738 0
M  V30 25 H -0.655382 -4.788192 2.750166 0
M  V30 26 H 0.332303 -2.623213 1.574075 0
M  V30 27 H 2.619321 0.226333 3.006958 0
M  V30 28 H 3.768701 -2.356760 -1.326075 0
M  V30 29 H 0.636485 0.567028 -2.946292 0
M  V30 30 H -0.976221 2.171734 -2.453764 0
M  V30 31 H -0.362573 3.877937 -1.015631 0
M  V30 32 H 1.094047 2.845751 -0.465027 0
M  V30 33 H -1.639618 3.132399 0.797162 0
M  V30 34 H -0.363039 1.958244 1.302253 0
M  V30 35 H -2.571687 1.760915 -0.825743 0
M  V30 36 H -2.816867 -0.917694 -1.339238 0
M  V30 37 H -1.047965 -1.672103 -0.841065 0
M  V30 38 H 1.439941 -0.776430 5.240313 0
M  V30 END ATOM
M  V30 BEGIN BOND
M  V30 1 1 1 2
M  V30 2 1 2 3
M  V30 3 2 3 4
M  V30 4 1 4 5
M  V30 5 1 5 6
M  V30 6 2 6 7
M  V30 7 1 7 8
M  V30 8 2 8 9
M  V30 9 1 9 10
M  V30 10 1 9 11
M  V30 11 1 11 12
M  V30 12 1 12 13
M  V30 13 1 13 14
M  V30 14 1 14 15
M  V30 15 1 15 16
M  V30 16 1 16 17
M  V30 17 1 17 18
M  V30 18 2 17 19
M  V30 19 2 11 20
M  V30 20 1 4 21
M  V30 21 2 21 22
M  V30 22 1 22 2
M  V30 23 1 20 6
M  V30 24 1 16 13
M  V30 25 1 1 23
M  V30 26 1 1 24
M  V30 27 1 1 25
M  V30 28 1 3 26
M  V30 29 1 5 27
M  V30 30 1 8 28
M  V30 31 1 12 29
M  V30 32 1 13 30 CFG=3
M  V30 33 1 14 31
M  V30 34 1 14 32
M  V30 35 1 15 33
M  V30 36 1 15 34
M  V30 37 1 16 35 CFG=3
M  V30 38 1 18 36
M  V30 39 1 18 37
M  V30 40 1 21 38
M  V30 END BOND
M  V30 END CTAB
M  END
>  <Dataset>  (532) 
ChEMBL_Kinases

>  <Ligand_Instance>  (532) 
nan

>  <PDB_ID>  (532) 
nan

>  <Standardized_SMILES>  (532) 
Cn1cc(Nc2ncc(Cl)c(N[C@@H]3CC[C@@H]3C(N)=O)n2)cn1

>  <Name>  (532) 
nan

>  <Pocket>  (532) 
nan

>  <ATP_Site>  (532) 
nan

>  <Peripheral>  (532) 
nan

>  <Num_H_Atoms_ProtBoundConf>  (532) 
nan

>  <Num_Resolved_Atoms>  (532) 
nan

>  <Num_Not_Resolved_Atoms>  (532) 
nan

$$$$
CHEMBL2071216
     RDKit          3D

  0  0  0  0  0  0  0  0  0  0999 V3000
M  V30 BEGIN CTAB
M  V30 COUNTS 46 49 0 0 0
M  V30 BEGIN ATOM
M  V30 1 C -0.463222 -4.866081 0.024899 0
M  V30 2 C 0.554837 -4.240925 -0.927048 0
M  V30 3 N -0.059914 -3.235951 -1.761311 0
M  V30 4 C -0.217227 -1.917653 -1.571234 0
M  V30 5 C -0.860052 -1.332245 -2.620105 0
M  V30 6 N -1.224241 0.025606 -2.823381 0
M  V30 7 C -0.960467 1.064168 -1.889736 0
M  V30 8 N -1.321497 2.337787 -2.130873 0
M  V30 9 C -1.099499 3.359607 -1.287638 0
M  V30 10 C -0.471328 3.134790 -0.101417 0
M  V30 11 Cl -0.123792 4.366691 1.076981 0
M  V30 12 C -0.081308 1.831994 0.187306 0
M  V30 13 N 0.590486 1.520166 1.426717 0
M  V30 14 C 1.036275 0.194864 1.825110 0 CFG=1
M  V30 15 C 1.728370 0.196301 3.184324 0 CFG=1
M  V30 16 C 2.042553 1.534855 3.694970 0
M  V30 17 N 2.870097 2.554321 3.145516 0
M  V30 18 O 1.571378 1.989013 4.790588 0
M  V30 19 C 0.740344 -0.437973 4.136696 0 CFG=2
M  V30 20 C 0.747663 -1.905627 3.915031 0
M  V30 21 C 0.400801 -1.999785 2.619814 0
M  V30 22 C -0.142456 -0.704215 2.102581 0 CFG=1
M  V30 23 C -0.567802 -0.092211 3.448724 0
M  V30 24 N -0.343116 0.869351 -0.713811 0
M  V30 25 C -1.100139 -2.368746 -3.489123 0
M  V30 26 N -0.610241 -3.494826 -2.948297 0
M  V30 27 H 0.028942 -5.108081 0.978368 0
M  V30 28 H -0.841816 -5.832678 -0.403381 0
M  V30 29 H -1.365110 -4.236021 0.123348 0
M  V30 30 H 0.981003 -5.070133 -1.528410 0
M  V30 31 H 1.400545 -3.827258 -0.329754 0
M  V30 32 H 0.142858 -1.449563 -0.681704 0
M  V30 33 H -1.717289 0.295957 -3.708400 0
M  V30 34 H -1.408318 4.368335 -1.525022 0
M  V30 35 H 0.765358 2.312469 2.083555 0
M  V30 36 H 1.642360 -0.276679 1.031469 0
M  V30 37 H 2.642406 -0.432111 3.064535 0
M  V30 38 H 2.600864 3.547689 3.011705 0
M  V30 39 H 3.794748 2.752807 2.753504 0
M  V30 40 H 0.808009 -0.106001 5.166224 0
M  V30 41 H 0.935142 -2.843064 4.447577 0
M  V30 42 H 0.446496 -2.827271 1.910767 0
M  V30 43 H -0.907487 -0.769493 1.366735 0
M  V30 44 H -1.429769 -0.618434 3.873561 0
M  V30 45 H -0.663532 0.996031 3.399147 0
M  V30 46 H -1.603616 -2.306246 -4.461206 0
M  V30 END ATOM
M  V30 BEGIN BOND
M  V30 1 1 1 2
M  V30 2 1 2 3
M  V30 3 1 3 4
M  V30 4 2 4 5
M  V30 5 1 5 6
M  V30 6 1 6 7
M  V30 7 2 7 8
M  V30 8 1 8 9
M  V30 9 2 9 10
M  V30 10 1 10 11
M  V30 11 1 10 12
M  V30 12 1 12 13
M  V30 13 1 13 14
M  V30 14 1 14 15
M  V30 15 1 15 16
M  V30 16 1 16 17
M  V30 17 2 16 18
M  V30 18 1 15 19
M  V30 19 1 19 20
M  V30 20 2 20 21
M  V30 21 1 21 22
M  V30 22 1 22 23
M  V30 23 2 12 24
M  V30 24 1 5 25
M  V30 25 2 25 26
M  V30 26 1 26 3
M  V30 27 1 24 7
M  V30 28 1 22 14
M  V30 29 1 23 19
M  V30 30 1 1 27
M  V30 31 1 1 28
M  V30 32 1 1 29
M  V30 33 1 2 30
M  V30 34 1 2 31
M  V30 35 1 4 32
M  V30 36 1 6 33
M  V30 37 1 9 34
M  V30 38 1 13 35
M  V30 39 1 14 36 CFG=3
M  V30 40 1 15 37 CFG=3
M  V30 41 1 17 38
M  V30 42 1 17 39
M  V30 43 1 19 40 CFG=1
M  V30 44 1 20 41
M  V30 45 1 21 42
M  V30 46 1 22 43 CFG=3
M  V30 47 1 23 44
M  V30 48 1 23 45
M  V30 49 1 25 46
M  V30 END BOND
M  V30 END CTAB
M  END
>  <Dataset>  (533) 
ChEMBL_Kinases

>  <Ligand_Instance>  (533) 
nan

>  <PDB_ID>  (533) 
nan

>  <Standardized_SMILES>  (533) 
CCn1cc(Nc2ncc(Cl)c(N[C@H]3[C@@H](C(N)=O)[C@@H]4C=C[C@H]3C4)n2)cn1

>  <Name>  (533) 
nan

>  <Pocket>  (533) 
nan

>  <ATP_Site>  (533) 
nan

>  <Peripheral>  (533) 
nan

>  <Num_H_Atoms_ProtBoundConf>  (533) 
nan

>  <Num_Resolved_Atoms>  (533) 
nan

>  <Num_Not_Resolved_Atoms>  (533) 
nan

$$$$
CHEMBL2071217
     RDKit          3D

  0  0  0  0  0  0  0  0  0  0999 V3000
M  V30 BEGIN CTAB
M  V30 COUNTS 53 57 0 0 0
M  V30 BEGIN ATOM
M  V30 1 N -1.026126 -3.914200 2.126615 0
M  V30 2 C -0.185128 -3.272475 1.152332 0
M  V30 3 O -0.108698 -2.092261 1.590543 0
M  V30 4 C 0.245117 -4.183614 0.071827 0 CFG=2
M  V30 5 C 1.116435 -3.621721 -0.983833 0 CFG=2
M  V30 6 N 1.391414 -2.240282 -0.995419 0
M  V30 7 C 2.201421 -1.346582 -0.236875 0
M  V30 8 N 2.262037 0.013583 -0.375952 0
M  V30 9 C 3.068272 0.774831 0.361160 0
M  V30 10 N 2.884850 2.151208 -0.037570 0
M  V30 11 C 1.876053 2.937107 0.614778 0
M  V30 12 C 1.483402 4.263280 0.452580 0
M  V30 13 N 0.478299 4.521916 1.313742 0
M  V30 14 N 0.182744 3.441964 2.037480 0
M  V30 15 C -0.827079 3.287219 3.070620 0
M  V30 16 C -2.128165 2.836347 2.483579 0
M  V30 17 C -2.392044 1.470370 2.366068 0
M  V30 18 C -3.544738 0.916976 1.845940 0
M  V30 19 C -4.502358 1.796431 1.412161 0
M  V30 20 C -4.297235 3.163663 1.503119 0
M  V30 21 C -3.126961 3.665702 2.031295 0
M  V30 22 C 1.027198 2.483767 1.615560 0
M  V30 23 N 3.898824 0.305197 1.307443 0
M  V30 24 C 3.893389 -1.023548 1.499067 0
M  V30 25 C 3.060996 -1.818041 0.738683 0
M  V30 26 Cl 3.233427 -3.516407 1.113834 0
M  V30 27 C 0.363646 -3.956895 -2.246727 0 CFG=1
M  V30 28 C 0.314381 -5.419108 -2.497983 0
M  V30 29 C -0.409905 -5.903343 -1.490590 0
M  V30 30 C -0.933302 -4.779316 -0.668686 0 CFG=2
M  V30 31 C -1.057058 -3.715037 -1.777176 0
M  V30 32 H -2.069012 -3.720708 2.127692 0
M  V30 33 H -1.232367 -4.549035 2.948280 0
M  V30 34 H 0.753442 -5.035912 0.551092 0
M  V30 35 H 2.088231 -4.223389 -1.068248 0
M  V30 36 H 0.900670 -1.647364 -1.735535 0
M  V30 37 H 3.407715 2.695862 -0.774803 0
M  V30 38 H 1.958893 4.915881 -0.269977 0
M  V30 39 H -0.489080 2.469515 3.739182 0
M  V30 40 H -0.958646 4.225544 3.643606 0
M  V30 41 H -1.614057 0.790047 2.718539 0
M  V30 42 H -3.635401 -0.160677 1.806369 0
M  V30 43 H -5.413317 1.356215 1.001121 0
M  V30 44 H -5.069498 3.815356 1.153460 0
M  V30 45 H -2.947629 4.725999 2.110935 0
M  V30 46 H 1.035394 1.481518 2.015761 0
M  V30 47 H 4.572626 -1.367028 2.267060 0
M  V30 48 H 0.646532 -3.359600 -3.111313 0
M  V30 49 H 0.729748 -6.055903 -3.280400 0
M  V30 50 H -0.663929 -6.906965 -1.190254 0
M  V30 51 H -1.819855 -4.962566 -0.112868 0
M  V30 52 H -1.216470 -2.716556 -1.346211 0
M  V30 53 H -1.821029 -4.010947 -2.523504 0
M  V30 END ATOM
M  V30 BEGIN BOND
M  V30 1 1 1 2
M  V30 2 2 2 3
M  V30 3 1 2 4
M  V30 4 1 4 5
M  V30 5 1 5 6
M  V30 6 1 6 7
M  V30 7 2 7 8
M  V30 8 1 8 9
M  V30 9 1 9 10
M  V30 10 1 10 11
M  V30 11 1 11 12
M  V30 12 2 12 13
M  V30 13 1 13 14
M  V30 14 1 14 15
M  V30 15 1 15 16
M  V30 16 2 16 17
M  V30 17 1 17 18
M  V30 18 2 18 19
M  V30 19 1 19 20
M  V30 20 2 20 21
M  V30 21 1 14 22
M  V30 22 2 9 23
M  V30 23 1 23 24
M  V30 24 2 24 25
M  V30 25 1 25 26
M  V30 26 1 5 27
M  V30 27 1 27 28
M  V30 28 2 28 29
M  V30 29 1 29 30
M  V30 30 1 30 31
M  V30 31 1 30 4
M  V30 32 1 25 7
M  V30 33 1 31 27
M  V30 34 2 22 11
M  V30 35 1 21 16
M  V30 36 1 1 32
M  V30 37 1 1 33
M  V30 38 1 4 34 CFG=1
M  V30 39 1 5 35 CFG=3
M  V30 40 1 6 36
M  V30 41 1 10 37
M  V30 42 1 12 38
M  V30 43 1 15 39
M  V30 44 1 15 40
M  V30 45 1 17 41
M  V30 46 1 18 42
M  V30 47 1 19 43
M  V30 48 1 20 44
M  V30 49 1 21 45
M  V30 50 1 22 46
M  V30 51 1 24 47
M  V30 52 1 27 48 CFG=3
M  V30 53 1 28 49
M  V30 54 1 29 50
M  V30 55 1 30 51 CFG=1
M  V30 56 1 31 52
M  V30 57 1 31 53
M  V30 END BOND
M  V30 END CTAB
M  END
>  <Dataset>  (534) 
ChEMBL_Kinases

>  <Ligand_Instance>  (534) 
nan

>  <PDB_ID>  (534) 
nan

>  <Standardized_SMILES>  (534) 
NC(=O)[C@@H]1[C@H](Nc2nc(Nc3cnn(Cc4ccccc4)c3)ncc2Cl)[C@H]2C=C[C@@H]1C2

>  <Name>  (534) 
nan

>  <Pocket>  (534) 
nan

>  <ATP_Site>  (534) 
nan

>  <Peripheral>  (534) 
nan

>  <Num_H_Atoms_ProtBoundConf>  (534) 
nan

>  <Num_Resolved_Atoms>  (534) 
nan

>  <Num_Not_Resolved_Atoms>  (534) 
nan

$$$$
CHEMBL2071270
     RDKit          3D

  0  0  0  0  0  0  0  0  0  0999 V3000
M  V30 BEGIN CTAB
M  V30 COUNTS 47 50 0 0 0
M  V30 BEGIN ATOM
M  V30 1 N -0.454039 -2.892114 3.514352 0
M  V30 2 C -1.199316 -3.886964 2.785717 0
M  V30 3 O -2.079090 -4.147473 3.648128 0
M  V30 4 C -0.516916 -4.017924 1.487188 0 CFG=2
M  V30 5 C -0.489190 -2.674130 0.738511 0 CFG=2
M  V30 6 N -1.456822 -1.759487 1.263420 0
M  V30 7 C -1.665772 -0.396315 0.922273 0
M  V30 8 N -0.846925 0.130434 -0.035269 0
M  V30 9 C -0.999175 1.448609 -0.373421 0
M  V30 10 N -0.308817 2.246639 -1.321334 0
M  V30 11 C 0.992491 2.736131 -0.961848 0
M  V30 12 C 1.857006 3.631086 -1.588076 0
M  V30 13 N 2.967881 3.745566 -0.864527 0
M  V30 14 N 2.922624 2.980665 0.226786 0
M  V30 15 C 3.875941 2.766223 1.299236 0
M  V30 16 C 3.655298 3.755172 2.438305 0
M  V30 17 O 2.346721 3.538974 2.899555 0
M  V30 18 C 1.725703 2.365527 0.173459 0
M  V30 19 N -1.953752 2.194930 0.244825 0
M  V30 20 C -2.766730 1.688802 1.186790 0
M  V30 21 C -2.618351 0.366657 1.531457 0
M  V30 22 Cl -3.645528 -0.365694 2.752813 0
M  V30 23 C -0.946356 -3.130285 -0.627563 0 CFG=1
M  V30 24 C 0.000627 -4.209926 -1.051933 0
M  V30 25 C -0.307655 -5.389253 -0.463518 0
M  V30 26 C -1.258163 -4.955284 0.603011 0 CFG=2
M  V30 27 C -2.133937 -4.008066 -0.195917 0
M  V30 28 H 0.054863 -2.150343 4.061555 0
M  V30 29 H 0.475283 -2.479096 3.776103 0
M  V30 30 H 0.512944 -4.362482 1.646165 0
M  V30 31 H 0.508602 -2.230409 0.758474 0
M  V30 32 H -2.104512 -2.145369 1.995540 0
M  V30 33 H -0.658312 2.519652 -2.266132 0
M  V30 34 H 1.590736 4.118590 -2.519511 0
M  V30 35 H 4.925763 2.819509 0.925827 0
M  V30 36 H 3.736622 1.758263 1.702430 0
M  V30 37 H 4.400153 3.516877 3.221198 0
M  V30 38 H 3.758283 4.771588 2.020885 0
M  V30 39 H 2.317439 2.701908 3.426895 0
M  V30 40 H 1.349785 1.663705 0.905928 0
M  V30 41 H -3.537641 2.238783 1.705702 0
M  V30 42 H -1.173186 -2.389253 -1.352827 0
M  V30 43 H 0.831503 -4.049583 -1.752100 0
M  V30 44 H 0.148411 -6.319716 -0.843044 0
M  V30 45 H -1.804249 -5.756156 1.092240 0
M  V30 46 H -2.605564 -4.504660 -1.056238 0
M  V30 47 H -2.834599 -3.428578 0.440086 0
M  V30 END ATOM
M  V30 BEGIN BOND
M  V30 1 1 1 2
M  V30 2 2 2 3
M  V30 3 1 2 4
M  V30 4 1 4 5
M  V30 5 1 5 6
M  V30 6 1 6 7
M  V30 7 2 7 8
M  V30 8 1 8 9
M  V30 9 1 9 10
M  V30 10 1 10 11
M  V30 11 1 11 12
M  V30 12 2 12 13
M  V30 13 1 13 14
M  V30 14 1 14 15
M  V30 15 1 15 16
M  V30 16 1 16 17
M  V30 17 1 14 18
M  V30 18 2 9 19
M  V30 19 1 19 20
M  V30 20 2 20 21
M  V30 21 1 21 22
M  V30 22 1 5 23
M  V30 23 1 23 24
M  V30 24 2 24 25
M  V30 25 1 25 26
M  V30 26 1 26 27
M  V30 27 1 26 4
M  V30 28 1 21 7
M  V30 29 1 27 23
M  V30 30 2 18 11
M  V30 31 1 1 28
M  V30 32 1 1 29
M  V30 33 1 4 30 CFG=1
M  V30 34 1 5 31 CFG=3
M  V30 35 1 6 32
M  V30 36 1 10 33
M  V30 37 1 12 34
M  V30 38 1 15 35
M  V30 39 1 15 36
M  V30 40 1 16 37
M  V30 41 1 16 38
M  V30 42 1 17 39
M  V30 43 1 18 40
M  V30 44 1 20 41
M  V30 45 1 23 42 CFG=3
M  V30 46 1 24 43
M  V30 47 1 25 44
M  V30 48 1 26 45 CFG=1
M  V30 49 1 27 46
M  V30 50 1 27 47
M  V30 END BOND
M  V30 END CTAB
M  END
>  <Dataset>  (535) 
ChEMBL_Kinases

>  <Ligand_Instance>  (535) 
nan

>  <PDB_ID>  (535) 
nan

>  <Standardized_SMILES>  (535) 
NC(=O)[C@@H]1[C@H](Nc2nc(Nc3cnn(CCO)c3)ncc2Cl)[C@H]2C=C[C@@H]1C2

>  <Name>  (535) 
nan

>  <Pocket>  (535) 
nan

>  <ATP_Site>  (535) 
nan

>  <Peripheral>  (535) 
nan

>  <Num_H_Atoms_ProtBoundConf>  (535) 
nan

>  <Num_Resolved_Atoms>  (535) 
nan

>  <Num_Not_Resolved_Atoms>  (535) 
nan

$$$$
CHEMBL2071210
     RDKit          3D

  0  0  0  0  0  0  0  0  0  0999 V3000
M  V30 BEGIN CTAB
M  V30 COUNTS 45 48 0 0 0
M  V30 BEGIN ATOM
M  V30 1 C -4.169561 -7.179262 -1.874199 0
M  V30 2 N -3.928318 -5.759367 -1.711264 0
M  V30 3 C -2.816142 -5.091784 -1.365471 0
M  V30 4 C -3.070240 -3.725695 -1.339756 0
M  V30 5 N -2.169125 -2.673700 -1.024358 0
M  V30 6 C -2.521353 -1.299389 -1.024629 0
M  V30 7 N -3.727706 -0.817485 -1.316542 0
M  V30 8 C -4.049811 0.486331 -1.313584 0
M  V30 9 C -3.091059 1.423437 -0.990709 0
M  V30 10 Cl -3.338599 3.156733 -0.938088 0
M  V30 11 C -1.838245 0.931083 -0.686994 0
M  V30 12 N -0.749087 1.772833 -0.335561 0
M  V30 13 C 0.600047 1.394808 0.001979 0 CFG=2
M  V30 14 C 1.502345 2.544682 0.324120 0 CFG=1
M  V30 15 C 2.444882 2.058043 1.410707 0
M  V30 16 C 3.121097 0.919656 0.662068 0
M  V30 17 C 2.753712 1.080726 -0.794858 0 CFG=2
M  V30 18 C 2.497025 2.591493 -0.824450 0
M  V30 19 C 1.329487 0.629138 -1.068084 0 CFG=2
M  V30 20 C 1.025908 1.064652 -2.439929 0
M  V30 21 N 1.777229 0.264631 -3.369643 0
M  V30 22 O 0.301329 1.928665 -2.982784 0
M  V30 23 N -1.597959 -0.378723 -0.712409 0
M  V30 24 C -4.384079 -3.625676 -1.686970 0
M  V30 25 N -4.891832 -4.858620 -1.908842 0
M  V30 26 H -5.226153 -7.417983 -1.556921 0
M  V30 27 H -3.983357 -7.513109 -2.910907 0
M  V30 28 H -3.497157 -7.786117 -1.217661 0
M  V30 29 H -1.856311 -5.578822 -1.140344 0
M  V30 30 H -1.194118 -2.951878 -0.780677 0
M  V30 31 H -5.031329 0.864440 -1.552056 0
M  V30 32 H -0.937451 2.820205 -0.314241 0
M  V30 33 H 0.508664 0.685167 0.867685 0
M  V30 34 H 1.016663 3.488117 0.527891 0
M  V30 35 H 3.118183 2.890208 1.633714 0
M  V30 36 H 1.893116 1.689708 2.299918 0
M  V30 37 H 2.699640 -0.011727 1.058256 0
M  V30 38 H 4.199609 0.945918 0.797437 0
M  V30 39 H 3.493009 0.735731 -1.502823 0
M  V30 40 H 3.412232 3.152460 -0.541967 0
M  V30 41 H 2.037867 2.921812 -1.772986 0
M  V30 42 H 1.222784 -0.470291 -0.952074 0
M  V30 43 H 1.542591 -0.729965 -3.553051 0
M  V30 44 H 2.553472 0.159369 -4.055608 0
M  V30 45 H -5.004480 -2.752534 -1.793973 0
M  V30 END ATOM
M  V30 BEGIN BOND
M  V30 1 1 1 2
M  V30 2 1 2 3
M  V30 3 2 3 4
M  V30 4 1 4 5
M  V30 5 1 5 6
M  V30 6 2 6 7
M  V30 7 1 7 8
M  V30 8 2 8 9
M  V30 9 1 9 10
M  V30 10 1 9 11
M  V30 11 1 11 12
M  V30 12 1 12 13
M  V30 13 1 13 14
M  V30 14 1 14 15
M  V30 15 1 15 16
M  V30 16 1 16 17
M  V30 17 1 17 18
M  V30 18 1 17 19
M  V30 19 1 19 20
M  V30 20 1 20 21
M  V30 21 2 20 22
M  V30 22 2 11 23
M  V30 23 1 4 24
M  V30 24 2 24 25
M  V30 25 1 25 2
M  V30 26 1 23 6
M  V30 27 1 19 13
M  V30 28 1 18 14
M  V30 29 1 1 26
M  V30 30 1 1 27
M  V30 31 1 1 28
M  V30 32 1 3 29
M  V30 33 1 5 30
M  V30 34 1 8 31
M  V30 35 1 12 32
M  V30 36 1 13 33 CFG=1
M  V30 37 1 14 34 CFG=1
M  V30 38 1 15 35
M  V30 39 1 15 36
M  V30 40 1 16 37
M  V30 41 1 16 38
M  V30 42 1 17 39 CFG=3
M  V30 43 1 18 40
M  V30 44 1 18 41
M  V30 45 1 19 42 CFG=3
M  V30 46 1 21 43
M  V30 47 1 21 44
M  V30 48 1 24 45
M  V30 END BOND
M  V30 END CTAB
M  END
>  <Dataset>  (536) 
ChEMBL_Kinases

>  <Ligand_Instance>  (536) 
nan

>  <PDB_ID>  (536) 
nan

>  <Standardized_SMILES>  (536) 
Cn1cc(Nc2ncc(Cl)c(N[C@@H]3[C@H]4CC[C@H](C4)[C@@H]3C(N)=O)n2)cn1

>  <Name>  (536) 
nan

>  <Pocket>  (536) 
nan

>  <ATP_Site>  (536) 
nan

>  <Peripheral>  (536) 
nan

>  <Num_H_Atoms_ProtBoundConf>  (536) 
nan

>  <Num_Resolved_Atoms>  (536) 
nan

>  <Num_Not_Resolved_Atoms>  (536) 
nan

$$$$
CHEMBL206605
     RDKit          3D

  0  0  0  0  0  0  0  0  0  0999 V3000
M  V30 BEGIN CTAB
M  V30 COUNTS 68 68 0 0 0
M  V30 BEGIN ATOM
M  V30 1 C -0.086286 -1.252117 5.705238 0
M  V30 2 C 0.330987 -0.131591 4.833732 0
M  V30 3 C -0.938420 0.566405 4.344771 0
M  V30 4 C 1.305725 -0.356395 3.759266 0
M  V30 5 C 1.029897 -1.278980 2.643750 0
M  V30 6 C 2.234210 -1.318568 1.669042 0
M  V30 7 C 2.431520 0.092783 1.157972 0
M  V30 8 C 2.461699 0.442029 -0.139571 0
M  V30 9 C 2.652217 1.846539 -0.679240 0
M  V30 10 C 2.110685 1.921252 -2.089807 0
M  V30 11 C 1.049903 0.917711 -2.397727 0
M  V30 12 C 0.676156 1.066977 -3.856629 0
M  V30 13 O 1.770693 0.817993 -4.660419 0
M  V30 14 C -0.174004 1.207905 -1.584772 0
M  V30 15 O -1.274518 0.381720 -1.967151 0
M  V30 16 C -2.516920 0.470366 -1.354310 0
M  V30 17 O -2.726597 1.291121 -0.426706 0
M  V30 18 C -3.477800 -0.489437 -1.932141 0
M  V30 19 C -4.847441 -0.395702 -1.265020 0
M  V30 20 C -3.683758 -0.269325 -3.407193 0
M  V30 21 C -2.990115 -1.926997 -1.749984 0
M  V30 22 O 1.494849 -0.439058 -2.264949 0
M  V30 23 C 2.329907 -0.643183 -1.139025 0
M  V30 24 O 3.045742 -1.652770 -0.789486 0
M  V30 25 C 0.717877 -2.651258 3.063790 0
M  V30 26 C 0.449035 -3.692940 2.025315 0
M  V30 27 C -0.671556 -3.414693 1.087353 0
M  V30 28 C 1.614461 -4.292785 1.321647 0
M  V30 29 H 0.640890 -2.087333 5.803140 0
M  V30 30 H -0.124480 -0.847715 6.778702 0
M  V30 31 H -1.129957 -1.613777 5.573422 0
M  V30 32 H 0.802947 0.661220 5.508672 0
M  V30 33 H -1.394302 1.080903 5.216260 0
M  V30 34 H -1.682775 -0.122820 3.936788 0
M  V30 35 H -0.734902 1.343187 3.590158 0
M  V30 36 H 1.597569 0.681695 3.381793 0
M  V30 37 H 2.260793 -0.714272 4.260216 0
M  V30 38 H 0.214053 -0.811726 2.019968 0
M  V30 39 H 1.814397 -1.948024 0.861574 0
M  V30 40 H 3.122239 -1.745099 2.108196 0
M  V30 41 H 2.584268 1.015194 1.741827 0
M  V30 42 H 3.724669 2.069663 -0.596405 0
M  V30 43 H 2.105824 2.551295 -0.020177 0
M  V30 44 H 1.675003 2.917503 -2.246376 0
M  V30 45 H 2.981550 1.759280 -2.771721 0
M  V30 46 H 0.329542 2.119434 -3.988224 0
M  V30 47 H -0.188410 0.389722 -4.048648 0
M  V30 48 H 2.025753 1.632579 -5.122265 0
M  V30 49 H -0.477739 2.242783 -1.842884 0
M  V30 50 H 0.006634 1.191615 -0.489438 0
M  V30 51 H -5.001167 -1.211520 -0.545315 0
M  V30 52 H -5.674505 -0.509010 -2.025439 0
M  V30 53 H -4.995843 0.619831 -0.827947 0
M  V30 54 H -2.741249 -0.247657 -3.977267 0
M  V30 55 H -4.358897 0.575480 -3.639749 0
M  V30 56 H -4.227904 -1.186739 -3.775696 0
M  V30 57 H -1.934435 -1.860920 -1.488712 0
M  V30 58 H -3.086942 -2.513480 -2.675654 0
M  V30 59 H -3.543854 -2.402905 -0.911190 0
M  V30 60 H 1.504498 -3.057001 3.730467 0
M  V30 61 H -0.209677 -2.613467 3.710774 0
M  V30 62 H 0.039489 -4.579710 2.668211 0
M  V30 63 H -0.250189 -2.944870 0.152806 0
M  V30 64 H -1.492561 -2.829202 1.513210 0
M  V30 65 H -1.104497 -4.378340 0.732116 0
M  V30 66 H 2.609306 -4.015073 1.723584 0
M  V30 67 H 1.626001 -5.432017 1.413067 0
M  V30 68 H 1.553486 -4.176569 0.195178 0
M  V30 END ATOM
M  V30 BEGIN BOND
M  V30 1 1 1 2
M  V30 2 1 2 3
M  V30 3 1 2 4
M  V30 4 1 4 5
M  V30 5 1 5 6
M  V30 6 1 6 7
M  V30 7 2 7 8
M  V30 8 1 8 9
M  V30 9 1 9 10
M  V30 10 1 10 11
M  V30 11 1 11 12
M  V30 12 1 12 13
M  V30 13 1 11 14
M  V30 14 1 14 15
M  V30 15 1 15 16
M  V30 16 2 16 17
M  V30 17 1 16 18
M  V30 18 1 18 19
M  V30 19 1 18 20
M  V30 20 1 18 21
M  V30 21 1 11 22
M  V30 22 1 22 23
M  V30 23 2 23 24
M  V30 24 1 5 25
M  V30 25 1 25 26
M  V30 26 1 26 27
M  V30 27 1 26 28
M  V30 28 1 23 8
M  V30 29 1 1 29
M  V30 30 1 1 30
M  V30 31 1 1 31
M  V30 32 1 2 32
M  V30 33 1 3 33
M  V30 34 1 3 34
M  V30 35 1 3 35
M  V30 36 1 4 36
M  V30 37 1 4 37
M  V30 38 1 5 38
M  V30 39 1 6 39
M  V30 40 1 6 40
M  V30 41 1 7 41
M  V30 42 1 9 42
M  V30 43 1 9 43
M  V30 44 1 10 44
M  V30 45 1 10 45
M  V30 46 1 12 46
M  V30 47 1 12 47
M  V30 48 1 13 48
M  V30 49 1 14 49
M  V30 50 1 14 50
M  V30 51 1 19 51
M  V30 52 1 19 52
M  V30 53 1 19 53
M  V30 54 1 20 54
M  V30 55 1 20 55
M  V30 56 1 20 56
M  V30 57 1 21 57
M  V30 58 1 21 58
M  V30 59 1 21 59
M  V30 60 1 25 60
M  V30 61 1 25 61
M  V30 62 1 26 62
M  V30 63 1 27 63
M  V30 64 1 27 64
M  V30 65 1 27 65
M  V30 66 1 28 66
M  V30 67 1 28 67
M  V30 68 1 28 68
M  V30 END BOND
M  V30 END CTAB
M  END
>  <Dataset>  (537) 
ChEMBL_Kinases

>  <Ligand_Instance>  (537) 
nan

>  <PDB_ID>  (537) 
nan

>  <Standardized_SMILES>  (537) 
CC(C)CC(C/C=C1/CCC(CO)(COC(=O)C(C)(C)C)OC1=O)CC(C)C

>  <Name>  (537) 
nan

>  <Pocket>  (537) 
nan

>  <ATP_Site>  (537) 
nan

>  <Peripheral>  (537) 
nan

>  <Num_H_Atoms_ProtBoundConf>  (537) 
nan

>  <Num_Resolved_Atoms>  (537) 
nan

>  <Num_Not_Resolved_Atoms>  (537) 
nan

$$$$
CHEMBL206558
     RDKit          3D

  0  0  0  0  0  0  0  0  0  0999 V3000
M  V30 BEGIN CTAB
M  V30 COUNTS 52 54 0 0 0
M  V30 BEGIN ATOM
M  V30 1 C 4.152009 -4.756743 5.149549 0
M  V30 2 O 3.416570 -3.611293 5.594743 0
M  V30 3 C 3.450711 -2.441307 4.834892 0
M  V30 4 C 4.165815 -2.329022 3.661120 0
M  V30 5 C 4.178510 -1.147295 2.927359 0
M  V30 6 C 3.458935 -0.038196 3.369948 0
M  V30 7 C 3.499158 1.190493 2.565313 0
M  V30 8 C 2.391024 1.169505 1.564677 0
M  V30 9 O 1.592449 0.199538 1.497356 0
M  V30 10 N 2.200794 2.245993 0.653302 0
M  V30 11 C 1.067406 1.973030 -0.198019 0
M  V30 12 C -0.187310 2.377088 0.176568 0
M  V30 13 C -1.243058 2.093696 -0.670772 0
M  V30 14 O -2.568038 2.435708 -0.433095 0
M  V30 15 C -2.861332 3.126815 0.767083 0
M  V30 16 C -1.007455 1.419805 -1.856366 0
M  V30 17 N -2.022588 1.068212 -2.818400 0
M  V30 18 C -2.565253 -0.214153 -2.533591 0
M  V30 19 O -2.128053 -0.834181 -1.555945 0
M  V30 20 N -3.585571 -0.829263 -3.309471 0
M  V30 21 C -4.104949 -2.133371 -2.980874 0
M  V30 22 C -5.186938 -2.219985 -2.127731 0
M  V30 23 N -5.681192 -3.451774 -1.814354 0
M  V30 24 C -5.106720 -4.548667 -2.340523 0
M  V30 25 C -5.654096 -5.847036 -1.989216 0
M  V30 26 N -6.110967 -6.878793 -1.706811 0
M  V30 27 C -4.013322 -4.477766 -3.203722 0
M  V30 28 N -3.554648 -3.238595 -3.488381 0
M  V30 29 C 0.260564 1.022527 -2.214292 0
M  V30 30 C 1.345200 1.291036 -1.385962 0
M  V30 31 Cl 2.995453 0.819549 -1.766755 0
M  V30 32 C 2.740824 -0.168474 4.559271 0
M  V30 33 C 2.730262 -1.355709 5.293061 0
M  V30 34 H 3.860662 -5.640240 5.730929 0
M  V30 35 H 5.223882 -4.488248 5.259393 0
M  V30 36 H 3.935521 -4.886616 4.069883 0
M  V30 37 H 4.735639 -3.178720 3.293200 0
M  V30 38 H 4.760018 -1.121363 2.012384 0
M  V30 39 H 4.491086 1.230987 2.058673 0
M  V30 40 H 3.342737 2.048802 3.243080 0
M  V30 41 H 2.888589 3.038946 0.740385 0
M  V30 42 H -0.393667 2.894211 1.078563 0
M  V30 43 H -3.944458 3.070919 1.019487 0
M  V30 44 H -2.496010 4.168016 0.714131 0
M  V30 45 H -2.350028 2.660153 1.649639 0
M  V30 46 H -2.401529 1.597745 -3.660024 0
M  V30 47 H -3.943324 -0.304040 -4.122472 0
M  V30 48 H -5.620065 -1.298369 -1.725028 0
M  V30 49 H -3.623340 -5.393747 -3.571894 0
M  V30 50 H 0.485975 0.499856 -3.120923 0
M  V30 51 H 2.194299 0.701215 4.878976 0
M  V30 52 H 2.154158 -1.407424 6.215346 0
M  V30 END ATOM
M  V30 BEGIN BOND
M  V30 1 1 1 2
M  V30 2 1 2 3
M  V30 3 2 3 4
M  V30 4 1 4 5
M  V30 5 2 5 6
M  V30 6 1 6 7
M  V30 7 1 7 8
M  V30 8 2 8 9
M  V30 9 1 8 10
M  V30 10 1 10 11
M  V30 11 2 11 12
M  V30 12 1 12 13
M  V30 13 1 13 14
M  V30 14 1 14 15
M  V30 15 2 13 16
M  V30 16 1 16 17
M  V30 17 1 17 18
M  V30 18 2 18 19
M  V30 19 1 18 20
M  V30 20 1 20 21
M  V30 21 2 21 22
M  V30 22 1 22 23
M  V30 23 2 23 24
M  V30 24 1 24 25
M  V30 25 3 25 26
M  V30 26 1 24 27
M  V30 27 2 27 28
M  V30 28 1 16 29
M  V30 29 2 29 30
M  V30 30 1 30 31
M  V30 31 1 6 32
M  V30 32 2 32 33
M  V30 33 1 33 3
M  V30 34 1 30 11
M  V30 35 1 28 21
M  V30 36 1 1 34
M  V30 37 1 1 35
M  V30 38 1 1 36
M  V30 39 1 4 37
M  V30 40 1 5 38
M  V30 41 1 7 39
M  V30 42 1 7 40
M  V30 43 1 10 41
M  V30 44 1 12 42
M  V30 45 1 15 43
M  V30 46 1 15 44
M  V30 47 1 15 45
M  V30 48 1 17 46
M  V30 49 1 20 47
M  V30 50 1 22 48
M  V30 51 1 27 49
M  V30 52 1 29 50
M  V30 53 1 32 51
M  V30 54 1 33 52
M  V30 END BOND
M  V30 END CTAB
M  END
>  <Dataset>  (538) 
ChEMBL_Kinases

>  <Ligand_Instance>  (538) 
nan

>  <PDB_ID>  (538) 
nan

>  <Standardized_SMILES>  (538) 
COc1ccc(CC(=O)Nc2cc(OC)c(NC(=O)Nc3cnc(C#N)cn3)cc2Cl)cc1

>  <Name>  (538) 
nan

>  <Pocket>  (538) 
nan

>  <ATP_Site>  (538) 
nan

>  <Peripheral>  (538) 
nan

>  <Num_H_Atoms_ProtBoundConf>  (538) 
nan

>  <Num_Resolved_Atoms>  (538) 
nan

>  <Num_Not_Resolved_Atoms>  (538) 
nan

$$$$
CHEMBL206544
     RDKit          3D

  0  0  0  0  0  0  0  0  0  0999 V3000
M  V30 BEGIN CTAB
M  V30 COUNTS 46 49 0 0 0
M  V30 BEGIN ATOM
M  V30 1 C -1.733741 -4.852539 4.875481 0
M  V30 2 C -2.495078 -3.579555 4.613302 0
M  V30 3 C -3.959712 -3.937777 4.441626 0
M  V30 4 C -1.974373 -2.818776 3.456821 0
M  V30 5 C -1.516202 -1.526129 3.620681 0
M  V30 6 C -1.035337 -0.839358 2.522843 0
M  V30 7 C -0.999280 -1.406973 1.266943 0
M  V30 8 C -0.507973 -0.749321 0.061797 0
M  V30 9 C -0.020101 0.540344 0.071237 0
M  V30 10 C 0.450099 1.180114 -1.062520 0
M  V30 11 C 0.956904 2.551726 -0.991762 0
M  V30 12 C 0.047030 3.500917 -0.575227 0
M  V30 13 N 0.707509 4.693726 -0.577743 0
M  V30 14 N 1.957633 4.516405 -0.970477 0
M  V30 15 C 2.133695 3.225390 -1.227511 0
M  V30 16 C 3.276289 2.412316 -1.690265 0
M  V30 17 C 3.811392 1.409829 -0.892943 0
M  V30 18 C 4.882375 0.643909 -1.320154 0
M  V30 19 C 5.439189 0.868860 -2.558510 0
M  V30 20 C 4.886786 1.882395 -3.346743 0
M  V30 21 N 3.844185 2.614047 -2.908090 0
M  V30 22 C 0.438831 0.518525 -2.259862 0
M  V30 23 C -0.057050 -0.783957 -2.253751 0
M  V30 24 N -0.505849 -1.371821 -1.128432 0
M  V30 25 C -1.469556 -2.700185 1.162554 0
M  V30 26 C -1.962939 -3.439061 2.224061 0
M  V30 27 H -1.782234 -5.538435 4.000953 0
M  V30 28 H -0.677303 -4.659116 5.152121 0
M  V30 29 H -2.192090 -5.341620 5.742160 0
M  V30 30 H -2.448136 -2.963105 5.543495 0
M  V30 31 H -4.173252 -4.453237 3.482785 0
M  V30 32 H -4.591209 -3.016739 4.422596 0
M  V30 33 H -4.270385 -4.547185 5.296250 0
M  V30 34 H -1.522302 -1.035895 4.580523 0
M  V30 35 H -0.677425 0.161268 2.633892 0
M  V30 36 H 0.016755 1.114954 0.975772 0
M  V30 37 H -0.982239 3.597642 -0.259779 0
M  V30 38 H 0.474735 5.705359 -0.348710 0
M  V30 39 H 3.342402 1.266008 0.075625 0
M  V30 40 H 5.269289 -0.123016 -0.675119 0
M  V30 41 H 6.267053 0.259716 -2.860642 0
M  V30 42 H 5.330135 2.054439 -4.321254 0
M  V30 43 H 0.788570 0.947706 -3.191507 0
M  V30 44 H -0.104007 -1.391514 -3.170847 0
M  V30 45 H -1.458039 -3.178056 0.199566 0
M  V30 46 H -2.316747 -4.458695 2.056667 0
M  V30 END ATOM
M  V30 BEGIN BOND
M  V30 1 1 1 2
M  V30 2 1 2 3
M  V30 3 1 2 4
M  V30 4 2 4 5
M  V30 5 1 5 6
M  V30 6 2 6 7
M  V30 7 1 7 8
M  V30 8 2 8 9
M  V30 9 1 9 10
M  V30 10 1 10 11
M  V30 11 2 11 12
M  V30 12 1 12 13
M  V30 13 1 13 14
M  V30 14 2 14 15
M  V30 15 1 15 16
M  V30 16 2 16 17
M  V30 17 1 17 18
M  V30 18 2 18 19
M  V30 19 1 19 20
M  V30 20 2 20 21
M  V30 21 2 10 22
M  V30 22 1 22 23
M  V30 23 2 23 24
M  V30 24 1 7 25
M  V30 25 2 25 26
M  V30 26 1 26 4
M  V30 27 1 24 8
M  V30 28 1 15 11
M  V30 29 1 21 16
M  V30 30 1 1 27
M  V30 31 1 1 28
M  V30 32 1 1 29
M  V30 33 1 2 30
M  V30 34 1 3 31
M  V30 35 1 3 32
M  V30 36 1 3 33
M  V30 37 1 5 34
M  V30 38 1 6 35
M  V30 39 1 9 36
M  V30 40 1 12 37
M  V30 41 1 13 38
M  V30 42 1 17 39
M  V30 43 1 18 40
M  V30 44 1 19 41
M  V30 45 1 20 42
M  V30 46 1 22 43
M  V30 47 1 23 44
M  V30 48 1 25 45
M  V30 49 1 26 46
M  V30 END BOND
M  V30 END CTAB
M  END
>  <Dataset>  (539) 
ChEMBL_Kinases

>  <Ligand_Instance>  (539) 
nan

>  <PDB_ID>  (539) 
nan

>  <Standardized_SMILES>  (539) 
CC(C)c1ccc(-c2cc(-c3c[nH]nc3-c3ccccn3)ccn2)cc1

>  <Name>  (539) 
GW682841X

>  <Pocket>  (539) 
nan

>  <ATP_Site>  (539) 
nan

>  <Peripheral>  (539) 
nan

>  <Num_H_Atoms_ProtBoundConf>  (539) 
nan

>  <Num_Resolved_Atoms>  (539) 
nan

>  <Num_Not_Resolved_Atoms>  (539) 
nan

$$$$
CHEMBL206485
     RDKit          3D

  0  0  0  0  0  0  0  0  0  0999 V3000
M  V30 BEGIN CTAB
M  V30 COUNTS 60 60 0 0 0
M  V30 BEGIN ATOM
M  V30 1 C 1.468831 -4.857680 1.968366 0
M  V30 2 C 0.919659 -3.623738 1.296536 0
M  V30 3 C -0.325394 -3.772050 0.486282 0
M  V30 4 C 1.314674 -2.333310 1.252614 0
M  V30 5 C 0.715542 -1.154750 0.560276 0
M  V30 6 C 0.362107 -0.115497 1.570557 0
M  V30 7 C 1.571717 0.352647 2.340875 0
M  V30 8 C 2.550557 0.933654 1.385719 0
M  V30 9 C 3.803162 0.599710 1.102721 0
M  V30 10 C 4.475149 -0.528338 1.778316 0
M  V30 11 C 4.495403 1.404401 0.083686 0
M  V30 12 C -0.353179 1.057185 0.961617 0
M  V30 13 C -1.808140 0.904013 1.345811 0
M  V30 14 C -2.169103 1.812298 2.512483 0
M  V30 15 O -1.328606 1.659308 3.597545 0
M  V30 16 C -2.707119 1.250698 0.217121 0
M  V30 17 O -2.563679 0.509434 -0.944788 0
M  V30 18 C -2.771866 -0.839335 -1.034297 0
M  V30 19 O -3.119926 -1.582504 -0.093908 0
M  V30 20 C -2.548786 -1.408098 -2.390422 0
M  V30 21 C -3.519866 -0.711227 -3.323512 0
M  V30 22 C -2.770499 -2.896015 -2.356189 0
M  V30 23 C -1.156595 -1.083888 -2.830127 0
M  V30 24 O -1.908109 -0.407323 1.843349 0
M  V30 25 C -0.676918 -0.695809 2.457095 0
M  V30 26 O -0.335018 -1.299179 3.519653 0
M  V30 27 H 1.637241 -5.664390 1.241818 0
M  V30 28 H 2.479055 -4.628814 2.393737 0
M  V30 29 H 0.845082 -5.165294 2.829230 0
M  V30 30 H -1.176683 -3.222787 0.948805 0
M  V30 31 H -0.177862 -3.467462 -0.581459 0
M  V30 32 H -0.645437 -4.829842 0.433604 0
M  V30 33 H 2.212275 -2.331769 1.862703 0
M  V30 34 H -0.157767 -1.519229 0.021317 0
M  V30 35 H 1.497854 -0.746229 -0.130414 0
M  V30 36 H 2.094785 -0.491369 2.828533 0
M  V30 37 H 1.312664 1.057934 3.130265 0
M  V30 38 H 2.025767 1.743316 0.921223 0
M  V30 39 H 4.366783 -1.492549 1.212839 0
M  V30 40 H 4.128054 -0.654242 2.814331 0
M  V30 41 H 5.584745 -0.363981 1.862471 0
M  V30 42 H 4.493269 0.931587 -0.914831 0
M  V30 43 H 5.571277 1.522175 0.353284 0
M  V30 44 H 4.055628 2.409849 -0.003730 0
M  V30 45 H 0.030109 1.980924 1.433600 0
M  V30 46 H -0.209672 1.084330 -0.147422 0
M  V30 47 H -3.191839 1.503638 2.834411 0
M  V30 48 H -2.270258 2.856685 2.161806 0
M  V30 49 H -1.833039 1.750269 4.433112 0
M  V30 50 H -3.783888 1.264321 0.535698 0
M  V30 51 H -2.504674 2.329717 -0.032552 0
M  V30 52 H -3.474833 0.368516 -3.126518 0
M  V30 53 H -4.561277 -1.084046 -3.183196 0
M  V30 54 H -3.213114 -0.853148 -4.370503 0
M  V30 55 H -3.436592 -3.221362 -3.174076 0
M  V30 56 H -3.244263 -3.200078 -1.377099 0
M  V30 57 H -1.792291 -3.406037 -2.364802 0
M  V30 58 H -1.151882 -0.497430 -3.787602 0
M  V30 59 H -0.591938 -0.453671 -2.100790 0
M  V30 60 H -0.574601 -2.029104 -3.000300 0
M  V30 END ATOM
M  V30 BEGIN BOND
M  V30 1 1 1 2
M  V30 2 1 2 3
M  V30 3 2 2 4 CFG=2
M  V30 4 1 4 5
M  V30 5 1 5 6
M  V30 6 1 6 7
M  V30 7 1 7 8
M  V30 8 2 8 9 CFG=2
M  V30 9 1 9 10
M  V30 10 1 9 11
M  V30 11 1 6 12
M  V30 12 1 12 13
M  V30 13 1 13 14
M  V30 14 1 14 15
M  V30 15 1 13 16
M  V30 16 1 16 17
M  V30 17 1 17 18
M  V30 18 2 18 19
M  V30 19 1 18 20
M  V30 20 1 20 21
M  V30 21 1 20 22
M  V30 22 1 20 23
M  V30 23 1 13 24
M  V30 24 1 24 25
M  V30 25 2 25 26
M  V30 26 1 25 6
M  V30 27 1 1 27
M  V30 28 1 1 28
M  V30 29 1 1 29
M  V30 30 1 3 30
M  V30 31 1 3 31
M  V30 32 1 3 32
M  V30 33 1 4 33
M  V30 34 1 5 34
M  V30 35 1 5 35
M  V30 36 1 7 36
M  V30 37 1 7 37
M  V30 38 1 8 38
M  V30 39 1 10 39
M  V30 40 1 10 40
M  V30 41 1 10 41
M  V30 42 1 11 42
M  V30 43 1 11 43
M  V30 44 1 11 44
M  V30 45 1 12 45
M  V30 46 1 12 46
M  V30 47 1 14 47
M  V30 48 1 14 48
M  V30 49 1 15 49
M  V30 50 1 16 50
M  V30 51 1 16 51
M  V30 52 1 21 52
M  V30 53 1 21 53
M  V30 54 1 21 54
M  V30 55 1 22 55
M  V30 56 1 22 56
M  V30 57 1 22 57
M  V30 58 1 23 58
M  V30 59 1 23 59
M  V30 60 1 23 60
M  V30 END BOND
M  V30 END CTAB
M  END
>  <Dataset>  (540) 
ChEMBL_Kinases

>  <Ligand_Instance>  (540) 
nan

>  <PDB_ID>  (540) 
nan

>  <Standardized_SMILES>  (540) 
CC(C)=CCC1(CC=C(C)C)CC(CO)(COC(=O)C(C)(C)C)OC1=O

>  <Name>  (540) 
nan

>  <Pocket>  (540) 
nan

>  <ATP_Site>  (540) 
nan

>  <Peripheral>  (540) 
nan

>  <Num_H_Atoms_ProtBoundConf>  (540) 
nan

>  <Num_Resolved_Atoms>  (540) 
nan

>  <Num_Not_Resolved_Atoms>  (540) 
nan

$$$$
CHEMBL2064632
     RDKit          3D

  0  0  0  0  0  0  0  0  0  0999 V3000
M  V30 BEGIN CTAB
M  V30 COUNTS 62 65 0 0 0
M  V30 BEGIN ATOM
M  V30 1 C 0.627766 -0.537631 5.064088 0
M  V30 2 N 1.689395 -0.113383 4.127026 0
M  V30 3 C 2.043789 1.221517 4.465758 0
M  V30 4 C 1.209516 -0.363934 2.816437 0
M  V30 5 C 2.116182 -0.078731 1.674660 0 CFG=1
M  V30 6 O 1.379665 -0.457892 0.490717 0
M  V30 7 C 1.842356 -1.416748 -0.395504 0
M  V30 8 O 2.930008 -1.922180 -0.097598 0
M  V30 9 N 0.930969 -1.621388 -1.500253 0
M  V30 10 C -0.366911 -0.998487 -1.833844 0
M  V30 11 C -1.186853 -2.227687 -2.015413 0
M  V30 12 C -2.403307 -2.869066 -1.915616 0
M  V30 13 N -3.568708 -2.190769 -1.415910 0
M  V30 14 C -3.759326 -2.281280 -0.003485 0
M  V30 15 O -2.958729 -2.912217 0.741231 0
M  V30 16 C -4.903343 -1.648475 0.706707 0
M  V30 17 C -5.865753 -0.889573 -0.177061 0
M  V30 18 F -5.229289 0.139126 -0.843192 0
M  V30 19 F -6.407050 -1.725316 -1.126799 0
M  V30 20 F -6.877145 -0.353553 0.622489 0
M  V30 21 C -4.568832 -0.966863 2.048810 0
M  V30 22 C -5.375714 -2.200545 1.996488 0
M  V30 23 N -2.305297 -4.141718 -2.337250 0
M  V30 24 N -1.047242 -4.317626 -2.702555 0
M  V30 25 C -0.338591 -3.188852 -2.524786 0
M  V30 26 C 1.006256 -2.516839 -2.644913 0
M  V30 27 C 0.987870 -1.746096 -3.945795 0
M  V30 28 C 2.119668 -3.507520 -2.572362 0
M  V30 29 C 2.545501 1.321072 1.526599 0
M  V30 30 C 1.654311 2.287292 1.037396 0
M  V30 31 C 1.970288 3.618804 0.855807 0
M  V30 32 C 3.237370 4.049373 1.168712 0
M  V30 33 C 4.157275 3.160868 1.650558 0
M  V30 34 C 3.787839 1.845236 1.811659 0
M  V30 35 H 1.089024 -1.026321 5.954422 0
M  V30 36 H -0.019743 -1.311008 4.577620 0
M  V30 37 H -0.040734 0.304770 5.329466 0
M  V30 38 H 3.145142 1.372230 4.558218 0
M  V30 39 H 1.681494 1.419684 5.525272 0
M  V30 40 H 1.527628 1.984222 3.869568 0
M  V30 41 H 0.989735 -1.473954 2.764924 0
M  V30 42 H 0.228888 0.128960 2.602189 0
M  V30 43 H 3.032891 -0.698205 1.660728 0
M  V30 44 H -0.309125 -0.430081 -2.769934 0
M  V30 45 H -0.726766 -0.390215 -0.979637 0
M  V30 46 H -4.268125 -1.651940 -1.987711 0
M  V30 47 H -3.515571 -1.064684 2.396236 0
M  V30 48 H -5.033457 0.046855 2.207587 0
M  V30 49 H -6.476234 -2.136650 2.226177 0
M  V30 50 H -4.924367 -3.114082 2.429609 0
M  V30 51 H -0.569972 -5.184050 -3.091053 0
M  V30 52 H 1.580301 -2.271962 -4.730577 0
M  V30 53 H -0.034730 -1.670668 -4.367527 0
M  V30 54 H 1.424411 -0.726544 -3.858605 0
M  V30 55 H 2.472421 -3.694538 -1.539629 0
M  V30 56 H 2.964111 -3.156254 -3.218466 0
M  V30 57 H 1.770478 -4.454711 -3.052171 0
M  V30 58 H 0.631500 1.998723 0.772397 0
M  V30 59 H 1.249752 4.319045 0.477214 0
M  V30 60 H 3.561286 5.070366 1.055446 0
M  V30 61 H 5.172604 3.417843 1.919843 0
M  V30 62 H 4.522047 1.122010 2.199295 0
M  V30 END ATOM
M  V30 BEGIN BOND
M  V30 1 1 1 2
M  V30 2 1 2 3
M  V30 3 1 2 4
M  V30 4 1 4 5
M  V30 5 1 5 6
M  V30 6 1 6 7
M  V30 7 2 7 8
M  V30 8 1 7 9
M  V30 9 1 9 10
M  V30 10 1 10 11
M  V30 11 1 11 12
M  V30 12 1 12 13
M  V30 13 1 13 14
M  V30 14 2 14 15
M  V30 15 1 14 16
M  V30 16 1 16 17
M  V30 17 1 17 18
M  V30 18 1 17 19
M  V30 19 1 17 20
M  V30 20 1 16 21
M  V30 21 1 21 22
M  V30 22 2 12 23
M  V30 23 1 23 24
M  V30 24 1 24 25
M  V30 25 1 25 26
M  V30 26 1 26 27
M  V30 27 1 26 28
M  V30 28 1 5 29
M  V30 29 2 29 30
M  V30 30 1 30 31
M  V30 31 2 31 32
M  V30 32 1 32 33
M  V30 33 2 33 34
M  V30 34 1 26 9
M  V30 35 1 34 29
M  V30 36 2 25 11
M  V30 37 1 22 16
M  V30 38 1 1 35
M  V30 39 1 1 36
M  V30 40 1 1 37
M  V30 41 1 3 38
M  V30 42 1 3 39
M  V30 43 1 3 40
M  V30 44 1 4 41
M  V30 45 1 4 42
M  V30 46 1 5 43 CFG=1
M  V30 47 1 10 44
M  V30 48 1 10 45
M  V30 49 1 13 46
M  V30 50 1 21 47
M  V30 51 1 21 48
M  V30 52 1 22 49
M  V30 53 1 22 50
M  V30 54 1 24 51
M  V30 55 1 27 52
M  V30 56 1 27 53
M  V30 57 1 27 54
M  V30 58 1 28 55
M  V30 59 1 28 56
M  V30 60 1 28 57
M  V30 61 1 30 58
M  V30 62 1 31 59
M  V30 63 1 32 60
M  V30 64 1 33 61
M  V30 65 1 34 62
M  V30 END BOND
M  V30 END CTAB
M  END
>  <Dataset>  (541) 
ChEMBL_Kinases

>  <Ligand_Instance>  (541) 
nan

>  <PDB_ID>  (541) 
nan

>  <Standardized_SMILES>  (541) 
CN(C)C[C@@H](OC(=O)N1Cc2c(NC(=O)C3(C(F)(F)F)CC3)n[nH]c2C1(C)C)c1ccccc1

>  <Name>  (541) 
nan

>  <Pocket>  (541) 
nan

>  <ATP_Site>  (541) 
nan

>  <Peripheral>  (541) 
nan

>  <Num_H_Atoms_ProtBoundConf>  (541) 
nan

>  <Num_Resolved_Atoms>  (541) 
nan

>  <Num_Not_Resolved_Atoms>  (541) 
nan

$$$$
CHEMBL2064631
     RDKit          3D

  0  0  0  0  0  0  0  0  0  0999 V3000
M  V30 BEGIN CTAB
M  V30 COUNTS 64 66 0 0 0
M  V30 BEGIN ATOM
M  V30 1 C 3.646395 0.413348 3.579803 0
M  V30 2 N 2.271381 0.908672 3.501225 0
M  V30 3 C 1.631108 0.553516 4.752698 0
M  V30 4 C 1.581715 0.317542 2.366477 0
M  V30 5 C 2.121574 0.784739 1.057420 0 CFG=1
M  V30 6 O 1.343227 0.116108 0.053897 0
M  V30 7 C 1.913306 -0.776865 -0.840369 0
M  V30 8 O 3.143937 -0.937431 -0.691467 0
M  V30 9 N 0.930228 -1.312206 -1.738905 0
M  V30 10 C -0.505882 -1.115857 -1.904439 0
M  V30 11 C -1.007319 -2.499510 -1.825690 0
M  V30 12 C -2.025484 -3.349449 -1.415452 0
M  V30 13 N -3.181860 -2.806250 -0.756193 0
M  V30 14 C -3.049949 -2.736117 0.670641 0
M  V30 15 O -1.985297 -3.132910 1.244509 0
M  V30 16 C -4.160216 -2.197273 1.492905 0
M  V30 17 C -3.756820 -2.240692 2.950600 0
M  V30 18 C -5.427860 -3.033935 1.371784 0
M  V30 19 C -4.505486 -0.782755 1.153515 0
M  V30 20 F -3.423028 0.059965 1.346497 0
M  V30 21 F -5.009743 -0.613153 -0.100539 0
M  V30 22 F -5.471426 -0.362641 2.059181 0
M  V30 23 N -1.646327 -4.589555 -1.767073 0
M  V30 24 N -0.467465 -4.549056 -2.362599 0
M  V30 25 C -0.021176 -3.283306 -2.428127 0
M  V30 26 C 1.020762 -2.269684 -2.828209 0
M  V30 27 C 0.636793 -1.721092 -4.159547 0
M  V30 28 C 2.386215 -2.903320 -2.787979 0
M  V30 29 C 1.892642 2.233927 0.814388 0
M  V30 30 C 0.557314 2.586941 0.591969 0
M  V30 31 C 0.183141 3.900474 0.350040 0
M  V30 32 C 1.171535 4.869499 0.332472 0
M  V30 33 C 2.503988 4.530128 0.552609 0
M  V30 34 C 2.871559 3.221192 0.793165 0
M  V30 35 H 3.628594 -0.712548 3.487996 0
M  V30 36 H 4.269005 0.760216 2.743631 0
M  V30 37 H 4.073341 0.641930 4.557052 0
M  V30 38 H 0.672788 0.027642 4.491737 0
M  V30 39 H 2.276216 -0.059394 5.408197 0
M  V30 40 H 1.393501 1.507237 5.284211 0
M  V30 41 H 1.824092 -0.780462 2.424477 0
M  V30 42 H 0.489390 0.361761 2.468695 0
M  V30 43 H 3.182601 0.485647 0.998520 0
M  V30 44 H -0.679731 -0.598242 -2.845835 0
M  V30 45 H -0.920462 -0.507573 -1.060862 0
M  V30 46 H -4.042260 -2.485952 -1.214390 0
M  V30 47 H -2.707540 -2.611266 3.041714 0
M  V30 48 H -4.389454 -2.914865 3.562422 0
M  V30 49 H -3.754616 -1.236021 3.398661 0
M  V30 50 H -5.227280 -4.015865 1.833796 0
M  V30 51 H -6.213562 -2.447162 1.910169 0
M  V30 52 H -5.754943 -3.137873 0.335803 0
M  V30 53 H 0.079574 -5.350923 -2.744034 0
M  V30 54 H 0.861983 -0.614626 -4.177077 0
M  V30 55 H 1.337420 -2.164152 -4.924517 0
M  V30 56 H -0.408182 -1.837870 -4.439885 0
M  V30 57 H 3.127162 -2.349849 -3.384759 0
M  V30 58 H 2.267287 -3.952934 -3.157644 0
M  V30 59 H 2.694687 -2.994603 -1.724903 0
M  V30 60 H -0.267017 1.870351 0.592964 0
M  V30 61 H -0.847622 4.192381 0.175908 0
M  V30 62 H 0.905413 5.902794 0.146116 0
M  V30 63 H 3.291183 5.279106 0.542394 0
M  V30 64 H 3.887417 2.874741 0.973951 0
M  V30 END ATOM
M  V30 BEGIN BOND
M  V30 1 1 1 2
M  V30 2 1 2 3
M  V30 3 1 2 4
M  V30 4 1 4 5
M  V30 5 1 5 6
M  V30 6 1 6 7
M  V30 7 2 7 8
M  V30 8 1 7 9
M  V30 9 1 9 10
M  V30 10 1 10 11
M  V30 11 1 11 12
M  V30 12 1 12 13
M  V30 13 1 13 14
M  V30 14 2 14 15
M  V30 15 1 14 16
M  V30 16 1 16 17
M  V30 17 1 16 18
M  V30 18 1 16 19
M  V30 19 1 19 20
M  V30 20 1 19 21
M  V30 21 1 19 22
M  V30 22 2 12 23
M  V30 23 1 23 24
M  V30 24 1 24 25
M  V30 25 1 25 26
M  V30 26 1 26 27
M  V30 27 1 26 28
M  V30 28 1 5 29
M  V30 29 2 29 30
M  V30 30 1 30 31
M  V30 31 2 31 32
M  V30 32 1 32 33
M  V30 33 2 33 34
M  V30 34 1 26 9
M  V30 35 1 34 29
M  V30 36 2 25 11
M  V30 37 1 1 35
M  V30 38 1 1 36
M  V30 39 1 1 37
M  V30 40 1 3 38
M  V30 41 1 3 39
M  V30 42 1 3 40
M  V30 43 1 4 41
M  V30 44 1 4 42
M  V30 45 1 5 43 CFG=3
M  V30 46 1 10 44
M  V30 47 1 10 45
M  V30 48 1 13 46
M  V30 49 1 17 47
M  V30 50 1 17 48
M  V30 51 1 17 49
M  V30 52 1 18 50
M  V30 53 1 18 51
M  V30 54 1 18 52
M  V30 55 1 24 53
M  V30 56 1 27 54
M  V30 57 1 27 55
M  V30 58 1 27 56
M  V30 59 1 28 57
M  V30 60 1 28 58
M  V30 61 1 28 59
M  V30 62 1 30 60
M  V30 63 1 31 61
M  V30 64 1 32 62
M  V30 65 1 33 63
M  V30 66 1 34 64
M  V30 END BOND
M  V30 END CTAB
M  END
>  <Dataset>  (542) 
ChEMBL_Kinases

>  <Ligand_Instance>  (542) 
nan

>  <PDB_ID>  (542) 
nan

>  <Standardized_SMILES>  (542) 
CN(C)C[C@@H](OC(=O)N1Cc2c(NC(=O)C(C)(C)C(F)(F)F)n[nH]c2C1(C)C)c1ccccc1

>  <Name>  (542) 
nan

>  <Pocket>  (542) 
nan

>  <ATP_Site>  (542) 
nan

>  <Peripheral>  (542) 
nan

>  <Num_H_Atoms_ProtBoundConf>  (542) 
nan

>  <Num_Resolved_Atoms>  (542) 
nan

>  <Num_Not_Resolved_Atoms>  (542) 
nan

$$$$
CHEMBL2064630
     RDKit          3D

  0  0  0  0  0  0  0  0  0  0999 V3000
M  V30 BEGIN CTAB
M  V30 COUNTS 66 69 0 0 0
M  V30 BEGIN ATOM
M  V30 1 C 4.760158 -1.484554 4.118816 0
M  V30 2 N 4.617366 -2.087913 2.819003 0
M  V30 3 C 5.639596 -3.127803 2.707476 0
M  V30 4 C 4.772256 -1.161436 1.759731 0
M  V30 5 C 3.704787 -0.136952 1.562625 0 CFG=1
M  V30 6 O 2.472611 -0.785818 1.322640 0
M  V30 7 C 1.808080 -0.789445 0.127900 0
M  V30 8 O 1.955515 -0.325743 -1.034064 0
M  V30 9 N 0.567258 -1.520347 0.129012 0
M  V30 10 C -0.365409 -1.704264 -0.998175 0
M  V30 11 C -1.631898 -1.282210 -0.344565 0
M  V30 12 C -2.877874 -0.699560 -0.430188 0
M  V30 13 N -3.447623 -0.169062 -1.620016 0
M  V30 14 C -4.732040 0.407298 -1.598429 0
M  V30 15 O -5.374332 0.447449 -0.508800 0
M  V30 16 C -5.475646 1.006404 -2.740688 0
M  V30 17 C -6.781544 0.236065 -2.845058 0
M  V30 18 C -6.586423 -1.056019 -3.562024 0
M  V30 19 C -5.964819 -0.808254 -4.918553 0
M  V30 20 C -5.644599 0.661796 -5.009849 0
M  V30 21 O -4.781514 0.968085 -3.937012 0
M  V30 22 N -3.453214 -0.717966 0.782022 0
M  V30 23 N -2.627313 -1.293572 1.663684 0
M  V30 24 C -1.520558 -1.637951 0.985484 0
M  V30 25 C -0.174972 -2.277669 1.124953 0
M  V30 26 C -0.327926 -3.712405 0.761044 0
M  V30 27 C 0.334810 -2.066552 2.526622 0
M  V30 28 C 3.657094 0.961222 2.513322 0
M  V30 29 C 2.907943 1.089300 3.683300 0
M  V30 30 C 2.952542 2.185987 4.508484 0
M  V30 31 C 3.764426 3.246255 4.213290 0
M  V30 32 C 4.534496 3.212017 3.090251 0
M  V30 33 C 4.455878 2.093253 2.294668 0
M  V30 34 H 3.788897 -1.460494 4.633415 0
M  V30 35 H 5.429328 -2.134153 4.771736 0
M  V30 36 H 5.250916 -0.509039 3.985705 0
M  V30 37 H 6.563181 -2.683106 2.239594 0
M  V30 38 H 5.350099 -3.960661 2.062706 0
M  V30 39 H 5.968303 -3.525927 3.675258 0
M  V30 40 H 5.790936 -0.675783 1.873349 0
M  V30 41 H 4.921304 -1.779944 0.817507 0
M  V30 42 H 3.957553 0.346686 0.544436 0
M  V30 43 H -0.378611 -2.770815 -1.273343 0
M  V30 44 H -0.100118 -1.067178 -1.856696 0
M  V30 45 H -2.968970 -0.175756 -2.536650 0
M  V30 46 H -5.682321 2.096326 -2.555790 0
M  V30 47 H -7.605139 0.854594 -3.241579 0
M  V30 48 H -7.095164 -0.001194 -1.790975 0
M  V30 49 H -7.556176 -1.590237 -3.616502 0
M  V30 50 H -5.912248 -1.697622 -2.969338 0
M  V30 51 H -6.711722 -1.106004 -5.676221 0
M  V30 52 H -5.026362 -1.386839 -5.055447 0
M  V30 53 H -6.570449 1.272607 -4.950364 0
M  V30 54 H -5.144733 0.948009 -5.950382 0
M  V30 55 H -2.824879 -1.437636 2.677836 0
M  V30 56 H -1.260818 -3.896982 0.193267 0
M  V30 57 H -0.339205 -4.324464 1.684126 0
M  V30 58 H 0.503967 -4.017166 0.077343 0
M  V30 59 H -0.241975 -2.786003 3.165206 0
M  V30 60 H 1.388245 -2.382554 2.635719 0
M  V30 61 H 0.228256 -1.035985 2.876270 0
M  V30 62 H 2.268686 0.224902 3.887927 0
M  V30 63 H 2.323014 2.186414 5.403974 0
M  V30 64 H 3.827343 4.125314 4.836455 0
M  V30 65 H 5.192936 4.019814 2.808088 0
M  V30 66 H 5.085594 2.086940 1.393703 0
M  V30 END ATOM
M  V30 BEGIN BOND
M  V30 1 1 1 2
M  V30 2 1 2 3
M  V30 3 1 2 4
M  V30 4 1 4 5
M  V30 5 1 5 6
M  V30 6 1 6 7
M  V30 7 2 7 8
M  V30 8 1 7 9
M  V30 9 1 9 10
M  V30 10 1 10 11
M  V30 11 1 11 12
M  V30 12 1 12 13
M  V30 13 1 13 14
M  V30 14 2 14 15
M  V30 15 1 14 16
M  V30 16 1 16 17
M  V30 17 1 17 18
M  V30 18 1 18 19
M  V30 19 1 19 20
M  V30 20 1 20 21
M  V30 21 2 12 22
M  V30 22 1 22 23
M  V30 23 1 23 24
M  V30 24 1 24 25
M  V30 25 1 25 26
M  V30 26 1 25 27
M  V30 27 1 5 28
M  V30 28 2 28 29
M  V30 29 1 29 30
M  V30 30 2 30 31
M  V30 31 1 31 32
M  V30 32 2 32 33
M  V30 33 1 25 9
M  V30 34 1 33 28
M  V30 35 2 24 11
M  V30 36 1 21 16
M  V30 37 1 1 34
M  V30 38 1 1 35
M  V30 39 1 1 36
M  V30 40 1 3 37
M  V30 41 1 3 38
M  V30 42 1 3 39
M  V30 43 1 4 40
M  V30 44 1 4 41
M  V30 45 1 5 42 CFG=3
M  V30 46 1 10 43
M  V30 47 1 10 44
M  V30 48 1 13 45
M  V30 49 1 16 46
M  V30 50 1 17 47
M  V30 51 1 17 48
M  V30 52 1 18 49
M  V30 53 1 18 50
M  V30 54 1 19 51
M  V30 55 1 19 52
M  V30 56 1 20 53
M  V30 57 1 20 54
M  V30 58 1 23 55
M  V30 59 1 26 56
M  V30 60 1 26 57
M  V30 61 1 26 58
M  V30 62 1 27 59
M  V30 63 1 27 60
M  V30 64 1 27 61
M  V30 65 1 29 62
M  V30 66 1 30 63
M  V30 67 1 31 64
M  V30 68 1 32 65
M  V30 69 1 33 66
M  V30 END BOND
M  V30 END CTAB
M  END
>  <Dataset>  (543) 
ChEMBL_Kinases

>  <Ligand_Instance>  (543) 
nan

>  <PDB_ID>  (543) 
nan

>  <Standardized_SMILES>  (543) 
CN(C)C[C@@H](OC(=O)N1Cc2c(NC(=O)C3CCCCO3)n[nH]c2C1(C)C)c1ccccc1

>  <Name>  (543) 
nan

>  <Pocket>  (543) 
nan

>  <ATP_Site>  (543) 
nan

>  <Peripheral>  (543) 
nan

>  <Num_H_Atoms_ProtBoundConf>  (543) 
nan

>  <Num_Resolved_Atoms>  (543) 
nan

>  <Num_Not_Resolved_Atoms>  (543) 
nan

$$$$
CHEMBL2064629
     RDKit          3D

  0  0  0  0  0  0  0  0  0  0999 V3000
M  V30 BEGIN CTAB
M  V30 COUNTS 63 66 0 0 0
M  V30 BEGIN ATOM
M  V30 1 C 1.959072 -3.235642 -0.350548 0
M  V30 2 N 2.351345 -3.778243 0.907455 0
M  V30 3 C 3.753059 -3.686003 1.181088 0
M  V30 4 C 1.477773 -3.599835 2.006780 0
M  V30 5 C 1.350519 -2.219960 2.535301 0 CFG=1
M  V30 6 O 0.885990 -1.226499 1.688827 0
M  V30 7 C 1.614905 -0.086896 1.329396 0
M  V30 8 O 2.773682 0.023154 1.810984 0
M  V30 9 N 1.054127 0.908658 0.445583 0
M  V30 10 C -0.293906 0.768130 -0.073071 0
M  V30 11 C -0.280910 1.717151 -1.224340 0
M  V30 12 C -1.114935 2.035107 -2.311544 0
M  V30 13 N -2.364989 1.373783 -2.576650 0
M  V30 14 C -2.725512 0.267933 -3.407516 0
M  V30 15 O -1.852552 -0.318939 -4.110611 0
M  V30 16 C -4.191257 -0.026560 -3.285966 0
M  V30 17 C -4.517934 -0.485376 -1.892176 0
M  V30 18 C -4.843672 -1.957304 -2.087867 0
M  V30 19 C -5.396912 -1.863986 -3.522647 0
M  V30 20 O -4.425503 -1.093026 -4.122275 0
M  V30 21 N -0.441984 3.017040 -2.937342 0
M  V30 22 N 0.700949 3.278968 -2.295599 0
M  V30 23 C 0.857554 2.486346 -1.200749 0
M  V30 24 C 1.682324 2.107403 -0.026841 0
M  V30 25 C 3.100844 1.958027 -0.472684 0
M  V30 26 C 1.534835 3.228969 0.996227 0
M  V30 27 C 0.562240 -2.181395 3.805250 0
M  V30 28 C 0.056416 -3.361007 4.272810 0
M  V30 29 C -0.689550 -3.384387 5.460091 0
M  V30 30 C -0.930116 -2.219475 6.179200 0
M  V30 31 C -0.407121 -1.030626 5.686243 0
M  V30 32 C 0.321191 -1.027730 4.521877 0
M  V30 33 H 2.798728 -3.116175 -1.065488 0
M  V30 34 H 1.312857 -4.041502 -0.835062 0
M  V30 35 H 1.302548 -2.378056 -0.280524 0
M  V30 36 H 4.023450 -4.606684 1.752026 0
M  V30 37 H 4.323655 -3.649719 0.219646 0
M  V30 38 H 3.938579 -2.773482 1.800795 0
M  V30 39 H 1.895264 -4.221777 2.862411 0
M  V30 40 H 0.493835 -4.090442 1.802641 0
M  V30 41 H 2.394602 -1.903286 2.841370 0
M  V30 42 H -0.556606 -0.262688 -0.343756 0
M  V30 43 H -0.971776 1.142563 0.736640 0
M  V30 44 H -3.002411 1.936769 -1.969052 0
M  V30 45 H -4.823514 0.844176 -3.556369 0
M  V30 46 H -3.670206 -0.344463 -1.179099 0
M  V30 47 H -5.403603 0.020436 -1.476566 0
M  V30 48 H -5.681688 -2.289426 -1.439376 0
M  V30 49 H -3.960020 -2.616616 -2.057136 0
M  V30 50 H -6.412250 -1.444226 -3.505229 0
M  V30 51 H -5.368045 -2.927931 -3.908461 0
M  V30 52 H 1.367552 4.010211 -2.629228 0
M  V30 53 H 3.412636 0.936518 -0.698655 0
M  V30 54 H 3.746210 2.325722 0.384468 0
M  V30 55 H 3.321847 2.592332 -1.377263 0
M  V30 56 H 2.472866 3.812049 1.014333 0
M  V30 57 H 0.674891 3.852644 0.767894 0
M  V30 58 H 1.473193 2.738141 2.005506 0
M  V30 59 H 0.138166 -4.341222 3.848587 0
M  V30 60 H -1.159697 -4.229244 5.973480 0
M  V30 61 H -1.477919 -2.106686 7.081516 0
M  V30 62 H -0.554846 -0.085292 6.196074 0
M  V30 63 H 0.736268 -0.102992 4.125481 0
M  V30 END ATOM
M  V30 BEGIN BOND
M  V30 1 1 1 2
M  V30 2 1 2 3
M  V30 3 1 2 4
M  V30 4 1 4 5
M  V30 5 1 5 6
M  V30 6 1 6 7
M  V30 7 2 7 8
M  V30 8 1 7 9
M  V30 9 1 9 10
M  V30 10 1 10 11
M  V30 11 1 11 12
M  V30 12 1 12 13
M  V30 13 1 13 14
M  V30 14 2 14 15
M  V30 15 1 14 16
M  V30 16 1 16 17
M  V30 17 1 17 18
M  V30 18 1 18 19
M  V30 19 1 19 20
M  V30 20 2 12 21
M  V30 21 1 21 22
M  V30 22 1 22 23
M  V30 23 1 23 24
M  V30 24 1 24 25
M  V30 25 1 24 26
M  V30 26 1 5 27
M  V30 27 2 27 28
M  V30 28 1 28 29
M  V30 29 2 29 30
M  V30 30 1 30 31
M  V30 31 2 31 32
M  V30 32 1 24 9
M  V30 33 1 32 27
M  V30 34 2 23 11
M  V30 35 1 20 16
M  V30 36 1 1 33
M  V30 37 1 1 34
M  V30 38 1 1 35
M  V30 39 1 3 36
M  V30 40 1 3 37
M  V30 41 1 3 38
M  V30 42 1 4 39
M  V30 43 1 4 40
M  V30 44 1 5 41 CFG=1
M  V30 45 1 10 42
M  V30 46 1 10 43
M  V30 47 1 13 44
M  V30 48 1 16 45
M  V30 49 1 17 46
M  V30 50 1 17 47
M  V30 51 1 18 48
M  V30 52 1 18 49
M  V30 53 1 19 50
M  V30 54 1 19 51
M  V30 55 1 22 52
M  V30 56 1 25 53
M  V30 57 1 25 54
M  V30 58 1 25 55
M  V30 59 1 26 56
M  V30 60 1 26 57
M  V30 61 1 26 58
M  V30 62 1 28 59
M  V30 63 1 29 60
M  V30 64 1 30 61
M  V30 65 1 31 62
M  V30 66 1 32 63
M  V30 END BOND
M  V30 END CTAB
M  END
>  <Dataset>  (544) 
ChEMBL_Kinases

>  <Ligand_Instance>  (544) 
nan

>  <PDB_ID>  (544) 
nan

>  <Standardized_SMILES>  (544) 
CN(C)C[C@@H](OC(=O)N1Cc2c(NC(=O)C3CCCO3)n[nH]c2C1(C)C)c1ccccc1

>  <Name>  (544) 
nan

>  <Pocket>  (544) 
nan

>  <ATP_Site>  (544) 
nan

>  <Peripheral>  (544) 
nan

>  <Num_H_Atoms_ProtBoundConf>  (544) 
nan

>  <Num_Resolved_Atoms>  (544) 
nan

>  <Num_Not_Resolved_Atoms>  (544) 
nan

$$$$
CHEMBL206460
     RDKit          3D

  0  0  0  0  0  0  0  0  0  0999 V3000
M  V30 BEGIN CTAB
M  V30 COUNTS 54 56 0 0 0
M  V30 BEGIN ATOM
M  V30 1 C 2.280048 -4.641414 1.777032 0
M  V30 2 O 1.208788 -4.033648 2.476096 0
M  V30 3 C 1.281488 -2.707038 2.853371 0
M  V30 4 C 2.356182 -1.886574 2.596851 0
M  V30 5 C 2.307275 -0.578257 3.026630 0
M  V30 6 N 3.379974 0.322542 2.800637 0
M  V30 7 C 3.123171 0.909576 1.534874 0
M  V30 8 O 2.338108 0.962585 0.527626 0
M  V30 9 C 3.755391 1.918915 0.616785 0
M  V30 10 C 2.851349 1.998264 -0.577528 0
M  V30 11 C 1.785738 2.897046 -0.632840 0
M  V30 12 C 0.995535 2.913969 -1.762555 0
M  V30 13 C 1.226807 2.074592 -2.830628 0
M  V30 14 S 0.309566 1.996815 -4.306551 0
M  V30 15 C -1.025951 0.845967 -4.235581 0
M  V30 16 O -0.234740 3.370884 -4.603555 0
M  V30 17 O 1.224784 1.640476 -5.466076 0
M  V30 18 C 2.289555 1.209663 -2.723277 0
M  V30 19 C 3.109322 1.148772 -1.623948 0
M  V30 20 C 1.244774 -0.009414 3.709316 0
M  V30 21 Cl 1.218257 1.653908 4.237552 0
M  V30 22 C 0.148268 -0.841480 3.973258 0
M  V30 23 C 0.215040 -2.155033 3.533042 0
M  V30 24 N -0.957895 -2.898122 3.860588 0
M  V30 25 C -1.964099 -2.812935 2.864324 0
M  V30 26 O -1.696700 -2.114145 1.851866 0
M  V30 27 N -3.266542 -3.431480 2.866718 0
M  V30 28 C -4.160586 -3.235486 1.782012 0
M  V30 29 C -4.965562 -2.111838 2.001835 0
M  V30 30 N -5.907741 -1.678688 1.143502 0
M  V30 31 C -6.110817 -2.349076 -0.006785 0
M  V30 32 C -7.094014 -1.945871 -0.965157 0
M  V30 33 N -7.896916 -1.605373 -1.730048 0
M  V30 34 C -5.327132 -3.460825 -0.243543 0
M  V30 35 N -4.386201 -3.893980 0.612818 0
M  V30 36 H 2.526466 -4.048087 0.865509 0
M  V30 37 H 1.919614 -5.630543 1.381905 0
M  V30 38 H 3.167144 -4.793455 2.398465 0
M  V30 39 H 3.196730 -2.277059 2.075075 0
M  V30 40 H 4.263378 0.797611 3.066459 0
M  V30 41 H 4.743831 1.563318 0.283470 0
M  V30 42 H 3.827569 2.886426 1.115550 0
M  V30 43 H 1.597737 3.552421 0.188497 0
M  V30 44 H 0.139742 3.595570 -1.872548 0
M  V30 45 H -1.161094 0.528091 -3.171261 0
M  V30 46 H -0.802979 -0.028453 -4.888634 0
M  V30 47 H -1.959231 1.328067 -4.563566 0
M  V30 48 H 2.539817 0.516625 -3.518633 0
M  V30 49 H 3.938925 0.455874 -1.571000 0
M  V30 50 H -0.688027 -0.419291 4.503153 0
M  V30 51 H -1.249225 -3.504531 4.686688 0
M  V30 52 H -3.421842 -3.999968 3.739580 0
M  V30 53 H -4.930208 -1.453903 2.885809 0
M  V30 54 H -5.411911 -4.065461 -1.134478 0
M  V30 END ATOM
M  V30 BEGIN BOND
M  V30 1 1 1 2
M  V30 2 1 2 3
M  V30 3 2 3 4
M  V30 4 1 4 5
M  V30 5 1 5 6
M  V30 6 1 6 7
M  V30 7 2 7 8
M  V30 8 1 7 9
M  V30 9 1 9 10
M  V30 10 2 10 11
M  V30 11 1 11 12
M  V30 12 2 12 13
M  V30 13 1 13 14
M  V30 14 1 14 15
M  V30 15 2 14 16
M  V30 16 2 14 17
M  V30 17 1 13 18
M  V30 18 2 18 19
M  V30 19 2 5 20
M  V30 20 1 20 21
M  V30 21 1 20 22
M  V30 22 2 22 23
M  V30 23 1 23 24
M  V30 24 1 24 25
M  V30 25 2 25 26
M  V30 26 1 25 27
M  V30 27 1 27 28
M  V30 28 2 28 29
M  V30 29 1 29 30
M  V30 30 2 30 31
M  V30 31 1 31 32
M  V30 32 3 32 33
M  V30 33 1 31 34
M  V30 34 2 34 35
M  V30 35 1 23 3
M  V30 36 1 35 28
M  V30 37 1 19 10
M  V30 38 1 1 36
M  V30 39 1 1 37
M  V30 40 1 1 38
M  V30 41 1 4 39
M  V30 42 1 6 40
M  V30 43 1 9 41
M  V30 44 1 9 42
M  V30 45 1 11 43
M  V30 46 1 12 44
M  V30 47 1 15 45
M  V30 48 1 15 46
M  V30 49 1 15 47
M  V30 50 1 18 48
M  V30 51 1 19 49
M  V30 52 1 22 50
M  V30 53 1 24 51
M  V30 54 1 27 52
M  V30 55 1 29 53
M  V30 56 1 34 54
M  V30 END BOND
M  V30 END CTAB
M  END
>  <Dataset>  (545) 
ChEMBL_Kinases

>  <Ligand_Instance>  (545) 
nan

>  <PDB_ID>  (545) 
nan

>  <Standardized_SMILES>  (545) 
COc1cc(NC(=O)Cc2ccc(S(C)(=O)=O)cc2)c(Cl)cc1NC(=O)Nc1cnc(C#N)cn1

>  <Name>  (545) 
nan

>  <Pocket>  (545) 
nan

>  <ATP_Site>  (545) 
nan

>  <Peripheral>  (545) 
nan

>  <Num_H_Atoms_ProtBoundConf>  (545) 
nan

>  <Num_Resolved_Atoms>  (545) 
nan

>  <Num_Not_Resolved_Atoms>  (545) 
nan

$$$$
CHEMBL2064565
     RDKit          3D

  0  0  0  0  0  0  0  0  0  0999 V3000
M  V30 BEGIN CTAB
M  V30 COUNTS 61 64 0 0 0
M  V30 BEGIN ATOM
M  V30 1 C 2.052634 -0.273682 4.531929 0
M  V30 2 N 3.061932 -1.074424 3.922448 0
M  V30 3 C 3.388322 -2.196304 4.723626 0
M  V30 4 C 2.979932 -1.253540 2.519456 0
M  V30 5 C 1.835945 -2.057737 2.005087 0 CFG=1
M  V30 6 O 1.906983 -2.101768 0.586844 0
M  V30 7 C 0.883438 -1.698204 -0.229514 0
M  V30 8 O -0.039251 -1.317851 0.531582 0
M  V30 9 N 0.144589 -1.413202 -1.402768 0
M  V30 10 C -1.193993 -0.866617 -1.293744 0
M  V30 11 C -1.144056 0.110496 -2.443217 0
M  V30 12 C -1.758508 1.294204 -2.873177 0
M  V30 13 N -2.796254 1.968454 -2.137286 0
M  V30 14 C -2.720595 2.973924 -1.145725 0
M  V30 15 O -1.606930 3.409030 -0.787927 0
M  V30 16 C -4.011626 3.409295 -0.627944 0
M  V30 17 C -3.973601 4.392723 0.361814 0
M  V30 18 C -5.137125 4.849492 0.899054 0
M  V30 19 C -6.396308 4.393334 0.521642 0
M  V30 20 C -6.365194 3.421564 -0.460965 0
M  V30 21 N -5.232653 2.949038 -1.012226 0
M  V30 22 N -1.153496 1.573299 -4.044373 0
M  V30 23 N -0.245913 0.645837 -4.315285 0
M  V30 24 C -0.181605 -0.288041 -3.376342 0
M  V30 25 C 0.406563 -1.541637 -2.833655 0
M  V30 26 C -0.321316 -2.706613 -3.425881 0
M  V30 27 C 1.874330 -1.594690 -3.139594 0
M  V30 28 C 1.889108 -3.508611 2.411678 0
M  V30 29 C 2.799456 -4.369277 1.786863 0
M  V30 30 C 2.824641 -5.689538 2.173779 0
M  V30 31 C 1.999845 -6.210201 3.145340 0
M  V30 32 C 1.083091 -5.366061 3.782102 0
M  V30 33 C 1.069109 -4.043526 3.383250 0
M  V30 34 H 1.303812 -0.891846 5.077353 0
M  V30 35 H 2.535842 0.418362 5.269323 0
M  V30 36 H 1.554265 0.366277 3.749976 0
M  V30 37 H 3.779676 -3.028074 4.125033 0
M  V30 38 H 2.485981 -2.447622 5.333430 0
M  V30 39 H 4.197992 -1.957707 5.458959 0
M  V30 40 H 2.890159 -0.240176 2.054701 0
M  V30 41 H 3.968238 -1.631343 2.169783 0
M  V30 42 H 0.901495 -1.676122 2.408053 0
M  V30 43 H -1.988092 -1.640719 -1.455848 0
M  V30 44 H -1.395625 -0.325788 -0.359126 0
M  V30 45 H -3.659832 1.500564 -2.546548 0
M  V30 46 H -3.034011 4.800342 0.712743 0
M  V30 47 H -5.136424 5.623515 1.679299 0
M  V30 48 H -7.327243 4.744118 0.938091 0
M  V30 49 H -7.306821 3.024771 -0.800084 0
M  V30 50 H 0.349998 0.658789 -5.180991 0
M  V30 51 H -0.579962 -3.483348 -2.656609 0
M  V30 52 H 0.289694 -3.140428 -4.247462 0
M  V30 53 H -1.295146 -2.451202 -3.891027 0
M  V30 54 H 2.047216 -1.113089 -4.112224 0
M  V30 55 H 2.503494 -1.198138 -2.325900 0
M  V30 56 H 2.154045 -2.676081 -3.265310 0
M  V30 57 H 3.460221 -4.002434 1.026180 0
M  V30 58 H 3.539547 -6.326708 1.671129 0
M  V30 59 H 2.023959 -7.263312 3.451707 0
M  V30 60 H 0.421046 -5.727629 4.544802 0
M  V30 61 H 0.367168 -3.394753 3.869126 0
M  V30 END ATOM
M  V30 BEGIN BOND
M  V30 1 1 1 2
M  V30 2 1 2 3
M  V30 3 1 2 4
M  V30 4 1 4 5
M  V30 5 1 5 6
M  V30 6 1 6 7
M  V30 7 2 7 8
M  V30 8 1 7 9
M  V30 9 1 9 10
M  V30 10 1 10 11
M  V30 11 1 11 12
M  V30 12 1 12 13
M  V30 13 1 13 14
M  V30 14 2 14 15
M  V30 15 1 14 16
M  V30 16 2 16 17
M  V30 17 1 17 18
M  V30 18 2 18 19
M  V30 19 1 19 20
M  V30 20 2 20 21
M  V30 21 2 12 22
M  V30 22 1 22 23
M  V30 23 1 23 24
M  V30 24 1 24 25
M  V30 25 1 25 26
M  V30 26 1 25 27
M  V30 27 1 5 28
M  V30 28 2 28 29
M  V30 29 1 29 30
M  V30 30 2 30 31
M  V30 31 1 31 32
M  V30 32 2 32 33
M  V30 33 1 25 9
M  V30 34 1 33 28
M  V30 35 2 24 11
M  V30 36 1 21 16
M  V30 37 1 1 34
M  V30 38 1 1 35
M  V30 39 1 1 36
M  V30 40 1 3 37
M  V30 41 1 3 38
M  V30 42 1 3 39
M  V30 43 1 4 40
M  V30 44 1 4 41
M  V30 45 1 5 42 CFG=3
M  V30 46 1 10 43
M  V30 47 1 10 44
M  V30 48 1 13 45
M  V30 49 1 17 46
M  V30 50 1 18 47
M  V30 51 1 19 48
M  V30 52 1 20 49
M  V30 53 1 23 50
M  V30 54 1 26 51
M  V30 55 1 26 52
M  V30 56 1 26 53
M  V30 57 1 27 54
M  V30 58 1 27 55
M  V30 59 1 27 56
M  V30 60 1 29 57
M  V30 61 1 30 58
M  V30 62 1 31 59
M  V30 63 1 32 60
M  V30 64 1 33 61
M  V30 END BOND
M  V30 END CTAB
M  END
>  <Dataset>  (546) 
ChEMBL_Kinases

>  <Ligand_Instance>  (546) 
nan

>  <PDB_ID>  (546) 
nan

>  <Standardized_SMILES>  (546) 
CN(C)C[C@@H](OC(=O)N1Cc2c(NC(=O)c3ccccn3)n[nH]c2C1(C)C)c1ccccc1

>  <Name>  (546) 
nan

>  <Pocket>  (546) 
nan

>  <ATP_Site>  (546) 
nan

>  <Peripheral>  (546) 
nan

>  <Num_H_Atoms_ProtBoundConf>  (546) 
nan

>  <Num_Resolved_Atoms>  (546) 
nan

>  <Num_Not_Resolved_Atoms>  (546) 
nan

$$$$
CHEMBL2064564
     RDKit          3D

  0  0  0  0  0  0  0  0  0  0999 V3000
M  V30 BEGIN CTAB
M  V30 COUNTS 62 65 0 0 0
M  V30 BEGIN ATOM
M  V30 1 C 2.312833 -3.613869 5.414008 0
M  V30 2 N 2.245190 -4.232826 4.159925 0
M  V30 3 C 1.793822 -5.563919 4.201945 0
M  V30 4 C 2.194436 -3.496358 2.979721 0
M  V30 5 C 0.967415 -2.682634 2.702961 0 CFG=1
M  V30 6 O 1.127930 -2.021072 1.450025 0
M  V30 7 C 1.024433 -0.673186 1.249294 0
M  V30 8 O 0.778848 0.262435 2.054004 0
M  V30 9 N 1.230686 -0.260858 -0.103659 0
M  V30 10 C 1.186496 1.105257 -0.648006 0
M  V30 11 C 0.353131 0.919466 -1.864405 0
M  V30 12 C -0.543265 1.418343 -2.786320 0
M  V30 13 N -1.067740 2.727429 -2.773170 0
M  V30 14 C -2.248469 3.108510 -2.088528 0
M  V30 15 O -2.733856 2.080135 -1.502312 0
M  V30 16 C -2.864194 4.421612 -2.017844 0
M  V30 17 C -4.011303 4.490136 -1.240289 0
M  V30 18 C -4.703217 5.670760 -1.079047 0
M  V30 19 C -4.274135 6.829517 -1.689794 0
M  V30 20 F -4.917664 8.022509 -1.565264 0
M  V30 21 C -3.153400 6.795521 -2.458351 0
M  V30 22 C -2.479935 5.604185 -2.603960 0
M  V30 23 F -1.365287 5.538360 -3.361382 0
M  V30 24 N -0.815599 0.450424 -3.680530 0
M  V30 25 N -0.143318 -0.648935 -3.387214 0
M  V30 26 C 0.571137 -0.375907 -2.284674 0
M  V30 27 C 1.535450 -0.974591 -1.328281 0
M  V30 28 C 1.364093 -2.466657 -1.213249 0
M  V30 29 C 2.944231 -0.698645 -1.801653 0
M  V30 30 C -0.234960 -3.543187 2.579479 0
M  V30 31 C -0.509138 -4.370731 1.497214 0
M  V30 32 C -1.660531 -5.134829 1.474685 0
M  V30 33 C -2.577365 -5.110538 2.512361 0
M  V30 34 C -2.358074 -4.308236 3.612325 0
M  V30 35 C -1.197917 -3.562533 3.594374 0
M  V30 36 H 3.161620 -2.910972 5.556339 0
M  V30 37 H 2.467867 -4.420919 6.183189 0
M  V30 38 H 1.342004 -3.136817 5.740655 0
M  V30 39 H 0.703954 -5.604600 4.312493 0
M  V30 40 H 2.146600 -6.190698 3.349552 0
M  V30 41 H 2.190656 -6.045654 5.144924 0
M  V30 42 H 3.094838 -2.830979 2.904572 0
M  V30 43 H 2.321467 -4.208663 2.113918 0
M  V30 44 H 0.750811 -1.929967 3.477808 0
M  V30 45 H 0.702910 1.797296 0.074727 0
M  V30 46 H 2.172982 1.450563 -0.968011 0
M  V30 47 H -0.554496 3.464492 -3.300962 0
M  V30 48 H -4.412947 3.611621 -0.724046 0
M  V30 49 H -5.593090 5.685631 -0.465962 0
M  V30 50 H -2.741310 7.653316 -2.975579 0
M  V30 51 H -0.179836 -1.553192 -3.932365 0
M  V30 52 H 1.596694 -2.868775 -2.238529 0
M  V30 53 H 0.319680 -2.702889 -1.013038 0
M  V30 54 H 2.095809 -2.861305 -0.502689 0
M  V30 55 H 2.974835 0.096930 -2.586014 0
M  V30 56 H 3.377204 -1.625117 -2.257135 0
M  V30 57 H 3.619403 -0.415690 -0.981552 0
M  V30 58 H 0.216285 -4.370342 0.708932 0
M  V30 59 H -1.847637 -5.772016 0.614991 0
M  V30 60 H -3.482637 -5.697900 2.516885 0
M  V30 61 H -3.014973 -4.221680 4.471525 0
M  V30 62 H -1.000637 -2.918997 4.454690 0
M  V30 END ATOM
M  V30 BEGIN BOND
M  V30 1 1 1 2
M  V30 2 1 2 3
M  V30 3 1 2 4
M  V30 4 1 4 5
M  V30 5 1 5 6
M  V30 6 1 6 7
M  V30 7 2 7 8
M  V30 8 1 7 9
M  V30 9 1 9 10
M  V30 10 1 10 11
M  V30 11 1 11 12
M  V30 12 1 12 13
M  V30 13 1 13 14
M  V30 14 2 14 15
M  V30 15 1 14 16
M  V30 16 2 16 17
M  V30 17 1 17 18
M  V30 18 2 18 19
M  V30 19 1 19 20
M  V30 20 1 19 21
M  V30 21 2 21 22
M  V30 22 1 22 23
M  V30 23 2 12 24
M  V30 24 1 24 25
M  V30 25 1 25 26
M  V30 26 1 26 27
M  V30 27 1 27 28
M  V30 28 1 27 29
M  V30 29 1 5 30
M  V30 30 2 30 31
M  V30 31 1 31 32
M  V30 32 2 32 33
M  V30 33 1 33 34
M  V30 34 2 34 35
M  V30 35 1 27 9
M  V30 36 1 35 30
M  V30 37 2 26 11
M  V30 38 1 22 16
M  V30 39 1 1 36
M  V30 40 1 1 37
M  V30 41 1 1 38
M  V30 42 1 3 39
M  V30 43 1 3 40
M  V30 44 1 3 41
M  V30 45 1 4 42
M  V30 46 1 4 43
M  V30 47 1 5 44 CFG=1
M  V30 48 1 10 45
M  V30 49 1 10 46
M  V30 50 1 13 47
M  V30 51 1 17 48
M  V30 52 1 18 49
M  V30 53 1 21 50
M  V30 54 1 25 51
M  V30 55 1 28 52
M  V30 56 1 28 53
M  V30 57 1 28 54
M  V30 58 1 29 55
M  V30 59 1 29 56
M  V30 60 1 29 57
M  V30 61 1 31 58
M  V30 62 1 32 59
M  V30 63 1 33 60
M  V30 64 1 34 61
M  V30 65 1 35 62
M  V30 END BOND
M  V30 END CTAB
M  END
>  <Dataset>  (547) 
ChEMBL_Kinases

>  <Ligand_Instance>  (547) 
nan

>  <PDB_ID>  (547) 
nan

>  <Standardized_SMILES>  (547) 
CN(C)C[C@@H](OC(=O)N1Cc2c(NC(=O)c3ccc(F)cc3F)n[nH]c2C1(C)C)c1ccccc1

>  <Name>  (547) 
nan

>  <Pocket>  (547) 
nan

>  <ATP_Site>  (547) 
nan

>  <Peripheral>  (547) 
nan

>  <Num_H_Atoms_ProtBoundConf>  (547) 
nan

>  <Num_Resolved_Atoms>  (547) 
nan

>  <Num_Not_Resolved_Atoms>  (547) 
nan

$$$$
CHEMBL2064563
     RDKit          3D

  0  0  0  0  0  0  0  0  0  0999 V3000
M  V30 BEGIN CTAB
M  V30 COUNTS 63 66 0 0 0
M  V30 BEGIN ATOM
M  V30 1 C 0.493265 -3.745783 4.585771 0
M  V30 2 N 0.327673 -2.432116 3.919952 0
M  V30 3 C -0.665673 -1.754627 4.727501 0
M  V30 4 C 1.616425 -1.808361 3.921989 0
M  V30 5 C 1.752125 -0.497422 3.261849 0 CFG=1
M  V30 6 N 1.418324 -0.490113 1.854401 0
M  V30 7 C 2.216338 -0.311612 0.716217 0
M  V30 8 O 3.422659 -0.130337 1.015970 0
M  V30 9 N 1.646203 -0.347400 -0.588323 0
M  V30 10 C 0.238164 -0.555613 -0.921264 0
M  V30 11 C 0.304725 -1.191377 -2.235876 0
M  V30 12 C -0.402869 -1.927961 -3.161961 0
M  V30 13 N -1.751144 -2.351191 -2.985104 0
M  V30 14 C -2.626028 -1.376830 -3.489714 0
M  V30 15 O -1.927388 -0.412481 -3.950103 0
M  V30 16 C -4.082995 -1.375385 -3.527504 0
M  V30 17 C -4.655722 -0.244176 -4.083699 0
M  V30 18 C -6.023746 -0.117178 -4.176172 0
M  V30 19 C -6.899490 -1.058304 -3.744279 0
M  V30 20 C -6.331125 -2.190594 -3.187682 0
M  V30 21 C -4.968872 -2.335079 -3.087054 0
M  V30 22 F -4.401237 -3.435654 -2.546902 0
M  V30 23 N 0.394654 -2.157401 -4.220813 0
M  V30 24 N 1.592645 -1.592517 -4.006882 0
M  V30 25 C 1.574744 -0.983727 -2.785444 0
M  V30 26 C 2.386649 -0.183135 -1.808586 0
M  V30 27 C 2.431424 1.207164 -2.339965 0
M  V30 28 C 3.774774 -0.780510 -1.679576 0
M  V30 29 C 1.179209 0.668174 3.927083 0
M  V30 30 C -0.085002 1.219089 3.729527 0
M  V30 31 C -0.556772 2.324991 4.403512 0
M  V30 32 C 0.262880 2.944130 5.342651 0
M  V30 33 C 1.546012 2.472385 5.615655 0
M  V30 34 C 1.910517 1.364890 4.884776 0
M  V30 35 H 0.376350 -3.666756 5.679129 0
M  V30 36 H 1.523516 -4.099602 4.348711 0
M  V30 37 H -0.225789 -4.437704 4.096325 0
M  V30 38 H -1.261749 -2.507567 5.320000 0
M  V30 39 H -1.412128 -1.314772 4.033031 0
M  V30 40 H -0.256249 -1.067422 5.473103 0
M  V30 41 H 1.878684 -1.700784 5.019280 0
M  V30 42 H 2.420771 -2.506968 3.556992 0
M  V30 43 H 2.880121 -0.292422 3.245249 0
M  V30 44 H 0.371780 -0.657620 1.795977 0
M  V30 45 H -0.258621 0.441630 -0.917438 0
M  V30 46 H -0.208412 -1.187714 -0.138073 0
M  V30 47 H -2.177567 -3.213128 -2.568149 0
M  V30 48 H -4.035985 0.583767 -4.466134 0
M  V30 49 H -6.416733 0.800644 -4.626446 0
M  V30 50 H -7.965103 -0.910777 -3.839870 0
M  V30 51 H -6.960569 -2.986752 -2.820997 0
M  V30 52 H 2.423317 -1.600592 -4.651414 0
M  V30 53 H 2.481124 1.147016 -3.445558 0
M  V30 54 H 3.386641 1.674050 -2.019127 0
M  V30 55 H 1.587023 1.807358 -1.952152 0
M  V30 56 H 4.006341 -1.308550 -2.620376 0
M  V30 57 H 3.814385 -1.488396 -0.841219 0
M  V30 58 H 4.462972 0.046685 -1.497994 0
M  V30 59 H -0.703752 0.721082 2.993757 0
M  V30 60 H -1.546891 2.674452 4.181618 0
M  V30 61 H -0.090642 3.808363 5.878949 0
M  V30 62 H 2.221403 2.911920 6.331039 0
M  V30 63 H 2.918951 0.984052 5.092128 0
M  V30 END ATOM
M  V30 BEGIN BOND
M  V30 1 1 1 2
M  V30 2 1 2 3
M  V30 3 1 2 4
M  V30 4 1 4 5
M  V30 5 1 5 6
M  V30 6 1 6 7
M  V30 7 2 7 8
M  V30 8 1 7 9
M  V30 9 1 9 10
M  V30 10 1 10 11
M  V30 11 1 11 12
M  V30 12 1 12 13
M  V30 13 1 13 14
M  V30 14 2 14 15
M  V30 15 1 14 16
M  V30 16 2 16 17
M  V30 17 1 17 18
M  V30 18 2 18 19
M  V30 19 1 19 20
M  V30 20 2 20 21
M  V30 21 1 21 22
M  V30 22 2 12 23
M  V30 23 1 23 24
M  V30 24 1 24 25
M  V30 25 1 25 26
M  V30 26 1 26 27
M  V30 27 1 26 28
M  V30 28 1 5 29
M  V30 29 2 29 30
M  V30 30 1 30 31
M  V30 31 2 31 32
M  V30 32 1 32 33
M  V30 33 2 33 34
M  V30 34 1 26 9
M  V30 35 1 34 29
M  V30 36 2 25 11
M  V30 37 1 21 16
M  V30 38 1 1 35
M  V30 39 1 1 36
M  V30 40 1 1 37
M  V30 41 1 3 38
M  V30 42 1 3 39
M  V30 43 1 3 40
M  V30 44 1 4 41
M  V30 45 1 4 42
M  V30 46 1 5 43 CFG=3
M  V30 47 1 6 44
M  V30 48 1 10 45
M  V30 49 1 10 46
M  V30 50 1 13 47
M  V30 51 1 17 48
M  V30 52 1 18 49
M  V30 53 1 19 50
M  V30 54 1 20 51
M  V30 55 1 24 52
M  V30 56 1 27 53
M  V30 57 1 27 54
M  V30 58 1 27 55
M  V30 59 1 28 56
M  V30 60 1 28 57
M  V30 61 1 28 58
M  V30 62 1 30 59
M  V30 63 1 31 60
M  V30 64 1 32 61
M  V30 65 1 33 62
M  V30 66 1 34 63
M  V30 END BOND
M  V30 END CTAB
M  END
>  <Dataset>  (548) 
ChEMBL_Kinases

>  <Ligand_Instance>  (548) 
nan

>  <PDB_ID>  (548) 
nan

>  <Standardized_SMILES>  (548) 
CN(C)C[C@@H](NC(=O)N1Cc2c(NC(=O)c3ccccc3F)n[nH]c2C1(C)C)c1ccccc1

>  <Name>  (548) 
nan

>  <Pocket>  (548) 
nan

>  <ATP_Site>  (548) 
nan

>  <Peripheral>  (548) 
nan

>  <Num_H_Atoms_ProtBoundConf>  (548) 
nan

>  <Num_Resolved_Atoms>  (548) 
nan

>  <Num_Not_Resolved_Atoms>  (548) 
nan

$$$$
CHEMBL2064560
     RDKit          3D

  0  0  0  0  0  0  0  0  0  0999 V3000
M  V30 BEGIN CTAB
M  V30 COUNTS 64 68 0 0 0
M  V30 BEGIN ATOM
M  V30 1 C 4.507536 -1.470735 3.070169 0
M  V30 2 N 3.334880 -2.064237 3.637502 0
M  V30 3 C 3.084558 -3.416117 3.179748 0
M  V30 4 C 2.798851 -3.372650 1.716757 0
M  V30 5 N 1.989597 -2.221440 1.313228 0
M  V30 6 C 1.972885 -2.161543 -0.103845 0
M  V30 7 O 2.676461 -3.156211 -0.344177 0
M  V30 8 N 1.321160 -1.213179 -0.932872 0
M  V30 9 C 0.495009 -0.041747 -0.713742 0
M  V30 10 C -0.053788 0.265279 -2.045966 0
M  V30 11 C -0.975940 1.123127 -2.592336 0
M  V30 12 N -1.787730 2.106730 -1.950254 0
M  V30 13 C -3.025571 1.590165 -1.527350 0
M  V30 14 O -3.216204 0.357364 -1.780206 0
M  V30 15 C -4.031931 2.395792 -0.845581 0
M  V30 16 C -3.888458 3.743403 -0.541201 0
M  V30 17 C -4.906627 4.433641 0.114323 0
M  V30 18 C -6.063569 3.755997 0.457749 0
M  V30 19 C -6.258185 2.419584 0.179852 0
M  V30 20 C -5.211652 1.783844 -0.473686 0
M  V30 21 N -0.951868 0.826883 -3.925404 0
M  V30 22 N -0.075684 -0.137395 -4.140321 0
M  V30 23 C 0.520780 -0.534494 -3.010687 0
M  V30 24 C 1.508957 -1.443735 -2.373209 0
M  V30 25 C 1.189328 -2.897150 -2.674543 0
M  V30 26 C 2.863017 -1.016254 -2.834736 0
M  V30 27 C 1.371492 -1.376314 2.305668 0
M  V30 28 C -0.022175 -1.714923 2.621044 0
M  V30 29 C -0.492430 -2.993302 2.799822 0
M  V30 30 C -1.795444 -3.339842 3.101498 0
M  V30 31 C -2.730024 -2.337546 3.242025 0
M  V30 32 C -2.345664 -1.029039 3.079898 0
M  V30 33 C -1.028352 -0.753836 2.779496 0
M  V30 34 C 2.160165 -1.234779 3.562684 0
M  V30 35 H 4.566840 -1.516650 1.971617 0
M  V30 36 H 4.523826 -0.408496 3.356046 0
M  V30 37 H 5.404427 -1.925036 3.547276 0
M  V30 38 H 2.298210 -3.839770 3.800999 0
M  V30 39 H 4.058218 -3.955539 3.326529 0
M  V30 40 H 3.803056 -3.261764 1.209001 0
M  V30 41 H 2.383129 -4.301106 1.313231 0
M  V30 42 H -0.256259 -0.144795 0.065404 0
M  V30 43 H 1.222737 0.752740 -0.373837 0
M  V30 44 H -1.542164 3.110403 -1.785508 0
M  V30 45 H -2.967110 4.216909 -0.832616 0
M  V30 46 H -4.737675 5.483162 0.325102 0
M  V30 47 H -6.848633 4.303304 0.967277 0
M  V30 48 H -7.161278 1.891143 0.448125 0
M  V30 49 H -5.358742 0.722248 -0.697876 0
M  V30 50 H 0.112216 -0.531359 -5.107437 0
M  V30 51 H 0.532886 -3.271720 -1.884286 0
M  V30 52 H 2.111393 -3.508382 -2.758644 0
M  V30 53 H 0.613332 -2.925993 -3.629653 0
M  V30 54 H 3.299111 -0.245621 -2.142337 0
M  V30 55 H 2.848389 -0.607569 -3.869380 0
M  V30 56 H 3.530295 -1.891002 -2.797823 0
M  V30 57 H 1.327341 -0.338189 1.855601 0
M  V30 58 H 0.175502 -3.825782 2.704894 0
M  V30 59 H -2.135127 -4.345210 3.235553 0
M  V30 60 H -3.758875 -2.489334 3.472753 0
M  V30 61 H -3.045901 -0.203461 3.180616 0
M  V30 62 H -0.744522 0.302877 2.654301 0
M  V30 63 H 2.496174 -0.199063 3.775941 0
M  V30 64 H 1.526287 -1.507668 4.451500 0
M  V30 END ATOM
M  V30 BEGIN BOND
M  V30 1 1 1 2
M  V30 2 1 2 3
M  V30 3 1 3 4
M  V30 4 1 4 5
M  V30 5 1 5 6
M  V30 6 2 6 7
M  V30 7 1 6 8
M  V30 8 1 8 9
M  V30 9 1 9 10
M  V30 10 1 10 11
M  V30 11 1 11 12
M  V30 12 1 12 13
M  V30 13 2 13 14
M  V30 14 1 13 15
M  V30 15 2 15 16
M  V30 16 1 16 17
M  V30 17 2 17 18
M  V30 18 1 18 19
M  V30 19 2 19 20
M  V30 20 2 11 21
M  V30 21 1 21 22
M  V30 22 1 22 23
M  V30 23 1 23 24
M  V30 24 1 24 25
M  V30 25 1 24 26
M  V30 26 1 5 27
M  V30 27 1 27 28
M  V30 28 2 28 29
M  V30 29 1 29 30
M  V30 30 2 30 31
M  V30 31 1 31 32
M  V30 32 2 32 33
M  V30 33 1 27 34
M  V30 34 1 34 2
M  V30 35 1 24 8
M  V30 36 1 33 28
M  V30 37 2 23 10
M  V30 38 1 20 15
M  V30 39 1 1 35
M  V30 40 1 1 36
M  V30 41 1 1 37
M  V30 42 1 3 38
M  V30 43 1 3 39
M  V30 44 1 4 40
M  V30 45 1 4 41
M  V30 46 1 9 42
M  V30 47 1 9 43
M  V30 48 1 12 44
M  V30 49 1 16 45
M  V30 50 1 17 46
M  V30 51 1 18 47
M  V30 52 1 19 48
M  V30 53 1 20 49
M  V30 54 1 22 50
M  V30 55 1 25 51
M  V30 56 1 25 52
M  V30 57 1 25 53
M  V30 58 1 26 54
M  V30 59 1 26 55
M  V30 60 1 26 56
M  V30 61 1 27 57
M  V30 62 1 29 58
M  V30 63 1 30 59
M  V30 64 1 31 60
M  V30 65 1 32 61
M  V30 66 1 33 62
M  V30 67 1 34 63
M  V30 68 1 34 64
M  V30 END BOND
M  V30 END CTAB
M  END
>  <Dataset>  (549) 
ChEMBL_Kinases

>  <Ligand_Instance>  (549) 
nan

>  <PDB_ID>  (549) 
nan

>  <Standardized_SMILES>  (549) 
CN1CCN(C(=O)N2Cc3c(NC(=O)c4ccccc4)n[nH]c3C2(C)C)C(c2ccccc2)C1

>  <Name>  (549) 
nan

>  <Pocket>  (549) 
nan

>  <ATP_Site>  (549) 
nan

>  <Peripheral>  (549) 
nan

>  <Num_H_Atoms_ProtBoundConf>  (549) 
nan

>  <Num_Resolved_Atoms>  (549) 
nan

>  <Num_Not_Resolved_Atoms>  (549) 
nan

$$$$
CHEMBL2064559
     RDKit          3D

  0  0  0  0  0  0  0  0  0  0999 V3000
M  V30 BEGIN CTAB
M  V30 COUNTS 66 69 0 0 0
M  V30 BEGIN ATOM
M  V30 1 C 4.361080 1.612215 2.807556 0
M  V30 2 N 3.125670 1.425079 2.094407 0
M  V30 3 C 2.173399 0.709676 2.873762 0
M  V30 4 C 3.321296 0.905996 0.766769 0
M  V30 5 C 2.047306 0.703052 0.005124 0 CFG=2
M  V30 6 C 2.366586 0.168430 -1.341214 0
M  V30 7 C 2.186975 -1.202198 -1.617332 0
M  V30 8 C 2.435360 -1.871566 -2.783564 0
M  V30 9 C 2.923867 -1.128119 -3.833915 0
M  V30 10 C 3.136599 0.220201 -3.672254 0
M  V30 11 C 2.855069 0.794315 -2.461201 0
M  V30 12 N 1.191003 1.874864 0.002748 0
M  V30 13 C 1.848889 3.080841 -0.530472 0
M  V30 14 C -0.144075 2.131653 0.447688 0
M  V30 15 O -0.598796 3.325519 0.280271 0
M  V30 16 N -1.128208 1.277388 1.076576 0
M  V30 17 C -1.335872 -0.090478 1.555404 0
M  V30 18 C -2.526433 -0.502460 0.813183 0
M  V30 19 C -3.236800 -1.483218 0.153452 0
M  V30 20 N -2.810453 -2.828652 -0.025798 0
M  V30 21 C -3.060434 -3.908396 0.835459 0
M  V30 22 O -3.736902 -3.577284 1.849733 0
M  V30 23 C -2.574440 -5.260881 0.557813 0
M  V30 24 C -1.830129 -5.632667 -0.555134 0
M  V30 25 C -1.435073 -6.966987 -0.685705 0
M  V30 26 C -1.770764 -7.914150 0.267426 0
M  V30 27 C -2.513060 -7.575995 1.390563 0
M  V30 28 C -2.888245 -6.238066 1.485945 0
M  V30 29 N -4.384848 -0.917162 -0.272968 0
M  V30 30 N -4.431514 0.358061 0.082058 0
M  V30 31 C -3.296811 0.633467 0.751703 0
M  V30 32 C -2.468331 1.659976 1.482813 0
M  V30 33 C -2.892577 3.015942 0.948156 0
M  V30 34 C -2.750814 1.520440 2.937246 0
M  V30 35 H 4.639213 2.698864 2.825617 0
M  V30 36 H 5.201011 1.051475 2.340537 0
M  V30 37 H 4.318994 1.291071 3.868431 0
M  V30 38 H 1.239010 1.314827 2.995589 0
M  V30 39 H 2.573034 0.604063 3.906445 0
M  V30 40 H 1.961093 -0.316187 2.524909 0
M  V30 41 H 3.769986 -0.113222 0.905014 0
M  V30 42 H 4.085340 1.499561 0.253507 0
M  V30 43 H 1.520426 -0.147472 0.514655 0
M  V30 44 H 1.797885 -1.856748 -0.817504 0
M  V30 45 H 2.264797 -2.926871 -2.897088 0
M  V30 46 H 3.135994 -1.592588 -4.765792 0
M  V30 47 H 3.519339 0.812126 -4.489435 0
M  V30 48 H 3.052120 1.847369 -2.398196 0
M  V30 49 H 2.939635 3.049428 -0.414567 0
M  V30 50 H 1.540214 3.970364 0.100689 0
M  V30 51 H 1.502809 3.344076 -1.537472 0
M  V30 52 H -1.567274 -0.103678 2.661607 0
M  V30 53 H -0.481935 -0.752046 1.449600 0
M  V30 54 H -2.257774 -2.952064 -0.913998 0
M  V30 55 H -1.598063 -4.854889 -1.263829 0
M  V30 56 H -0.851177 -7.205949 -1.580103 0
M  V30 57 H -1.434385 -8.949980 0.115653 0
M  V30 58 H -2.781319 -8.294952 2.136891 0
M  V30 59 H -3.466469 -5.987620 2.366079 0
M  V30 60 H -5.202482 1.059514 -0.108690 0
M  V30 61 H -2.843589 3.046676 -0.153153 0
M  V30 62 H -4.007461 3.050729 1.164768 0
M  V30 63 H -2.484113 3.868197 1.482786 0
M  V30 64 H -3.436278 2.385044 3.207867 0
M  V30 65 H -3.372342 0.629106 3.140207 0
M  V30 66 H -1.877977 1.638642 3.609914 0
M  V30 END ATOM
M  V30 BEGIN BOND
M  V30 1 1 1 2
M  V30 2 1 2 3
M  V30 3 1 2 4
M  V30 4 1 4 5
M  V30 5 1 5 6
M  V30 6 2 6 7
M  V30 7 1 7 8
M  V30 8 2 8 9
M  V30 9 1 9 10
M  V30 10 2 10 11
M  V30 11 1 5 12
M  V30 12 1 12 13
M  V30 13 1 12 14
M  V30 14 2 14 15
M  V30 15 1 14 16
M  V30 16 1 16 17
M  V30 17 1 17 18
M  V30 18 1 18 19
M  V30 19 1 19 20
M  V30 20 1 20 21
M  V30 21 2 21 22
M  V30 22 1 21 23
M  V30 23 2 23 24
M  V30 24 1 24 25
M  V30 25 2 25 26
M  V30 26 1 26 27
M  V30 27 2 27 28
M  V30 28 2 19 29
M  V30 29 1 29 30
M  V30 30 1 30 31
M  V30 31 1 31 32
M  V30 32 1 32 33
M  V30 33 1 32 34
M  V30 34 1 11 6
M  V30 35 1 32 16
M  V30 36 2 31 18
M  V30 37 1 28 23
M  V30 38 1 1 35
M  V30 39 1 1 36
M  V30 40 1 1 37
M  V30 41 1 3 38
M  V30 42 1 3 39
M  V30 43 1 3 40
M  V30 44 1 4 41
M  V30 45 1 4 42
M  V30 46 1 5 43 CFG=1
M  V30 47 1 7 44
M  V30 48 1 8 45
M  V30 49 1 9 46
M  V30 50 1 10 47
M  V30 51 1 11 48
M  V30 52 1 13 49
M  V30 53 1 13 50
M  V30 54 1 13 51
M  V30 55 1 17 52
M  V30 56 1 17 53
M  V30 57 1 20 54
M  V30 58 1 24 55
M  V30 59 1 25 56
M  V30 60 1 26 57
M  V30 61 1 27 58
M  V30 62 1 28 59
M  V30 63 1 30 60
M  V30 64 1 33 61
M  V30 65 1 33 62
M  V30 66 1 33 63
M  V30 67 1 34 64
M  V30 68 1 34 65
M  V30 69 1 34 66
M  V30 END BOND
M  V30 END CTAB
M  END
>  <Dataset>  (550) 
ChEMBL_Kinases

>  <Ligand_Instance>  (550) 
nan

>  <PDB_ID>  (550) 
nan

>  <Standardized_SMILES>  (550) 
CN(C)C[C@H](c1ccccc1)N(C)C(=O)N1Cc2c(NC(=O)c3ccccc3)n[nH]c2C1(C)C

>  <Name>  (550) 
nan

>  <Pocket>  (550) 
nan

>  <ATP_Site>  (550) 
nan

>  <Peripheral>  (550) 
nan

>  <Num_H_Atoms_ProtBoundConf>  (550) 
nan

>  <Num_Resolved_Atoms>  (550) 
nan

>  <Num_Not_Resolved_Atoms>  (550) 
nan

$$$$
CHEMBL2064557
     RDKit          3D

  0  0  0  0  0  0  0  0  0  0999 V3000
M  V30 BEGIN CTAB
M  V30 COUNTS 78 83 0 0 0
M  V30 BEGIN ATOM
M  V30 1 C 3.502231 -1.411072 4.179550 0
M  V30 2 N 4.614601 -1.938913 3.428148 0
M  V30 3 C 4.413779 -3.271340 2.929123 0
M  V30 4 C 4.229758 -3.293869 1.425888 0
M  V30 5 N 3.454889 -2.110736 1.012973 0
M  V30 6 C 2.152812 -2.302359 0.575700 0
M  V30 7 O 1.629855 -1.208831 0.254258 0
M  V30 8 N 0.839918 -2.403188 0.122801 0
M  V30 9 C -0.120673 -1.425696 -0.355560 0
M  V30 10 C -1.393072 -2.157600 -0.023271 0
M  V30 11 C -2.738539 -1.900231 0.089629 0
M  V30 12 N -3.519428 -0.731112 -0.099956 0
M  V30 13 C -3.921857 0.321003 0.759274 0
M  V30 14 O -3.483800 0.164543 1.922867 0
M  V30 15 C -4.743130 1.411334 0.262596 0
M  V30 16 C -5.054047 2.458083 1.103040 0
M  V30 17 C -5.854536 3.491694 0.594251 0
M  V30 18 C -6.320676 3.466002 -0.709818 0
M  V30 19 C -5.988505 2.398400 -1.523723 0
M  V30 20 O -6.474640 2.392231 -2.846928 0
M  V30 21 C -6.168908 1.298173 -3.640511 0
M  V30 22 C -5.109660 1.046862 -4.488802 0
M  V30 23 C -5.050570 -0.157061 -5.173039 0
M  V30 24 C -6.025707 -1.116109 -5.029791 0
M  V30 25 C -7.108935 -0.894673 -4.181486 0
M  V30 26 C -7.151000 0.326049 -3.499836 0
M  V30 27 C -5.213369 1.400952 -1.029374 0
M  V30 28 N -3.268975 -3.100338 0.445699 0
M  V30 29 N -2.324824 -4.026884 0.544792 0
M  V30 30 C -1.147025 -3.483868 0.261606 0
M  V30 31 C 0.305118 -3.768807 0.135192 0
M  V30 32 C 0.668146 -4.396584 -1.187210 0
M  V30 33 C 0.763186 -4.599020 1.281227 0
M  V30 34 C 4.294640 -0.948659 1.181856 0 CFG=1
M  V30 35 C 3.584759 0.362207 0.942005 0
M  V30 36 C 4.455049 1.542052 1.128419 0
M  V30 37 C 4.583137 2.281932 2.293907 0
M  V30 38 C 5.415453 3.366036 2.431032 0
M  V30 39 C 6.187539 3.778826 1.372414 0
M  V30 40 C 6.097955 3.071938 0.177950 0
M  V30 41 C 5.247691 1.974334 0.057710 0
M  V30 42 C 5.095607 -1.019907 2.427984 0
M  V30 43 H 3.467842 -1.939029 5.152276 0
M  V30 44 H 3.597227 -0.317371 4.322140 0
M  V30 45 H 2.538604 -1.654853 3.685810 0
M  V30 46 H 5.265914 -3.926599 3.210822 0
M  V30 47 H 3.501026 -3.700589 3.382560 0
M  V30 48 H 3.664008 -4.182246 1.087354 0
M  V30 49 H 5.226840 -3.307745 0.956283 0
M  V30 50 H 0.006371 -1.285975 -1.437642 0
M  V30 51 H -0.077661 -0.454732 0.144473 0
M  V30 52 H -3.762982 -0.803853 -1.098021 0
M  V30 53 H -4.667837 2.431801 2.109178 0
M  V30 54 H -6.074652 4.299431 1.300506 0
M  V30 55 H -6.944690 4.293828 -1.068482 0
M  V30 56 H -4.413366 1.876727 -4.513330 0
M  V30 57 H -4.165894 -0.236816 -5.810216 0
M  V30 58 H -5.912181 -2.039170 -5.601113 0
M  V30 59 H -7.837458 -1.677115 -4.107010 0
M  V30 60 H -8.038493 0.372302 -2.879619 0
M  V30 61 H -5.009422 0.620429 -1.736606 0
M  V30 62 H -2.444991 -5.038786 0.801445 0
M  V30 63 H 1.010373 -5.437243 -1.098768 0
M  V30 64 H 1.457452 -3.832969 -1.718759 0
M  V30 65 H -0.231480 -4.417287 -1.826147 0
M  V30 66 H 1.489686 -5.347299 0.895358 0
M  V30 67 H 1.097978 -4.024722 2.138737 0
M  V30 68 H -0.124981 -5.186768 1.624319 0
M  V30 69 H 5.036381 -1.013223 0.315668 0
M  V30 70 H 3.197345 0.413067 -0.103296 0
M  V30 71 H 2.765401 0.436388 1.693259 0
M  V30 72 H 3.999411 2.011664 3.145426 0
M  V30 73 H 5.478036 3.911604 3.363607 0
M  V30 74 H 6.867298 4.610634 1.380628 0
M  V30 75 H 6.701474 3.387186 -0.678075 0
M  V30 76 H 5.195194 1.439806 -0.887860 0
M  V30 77 H 6.171126 -1.294345 2.229761 0
M  V30 78 H 5.151707 -0.022392 2.894662 0
M  V30 END ATOM
M  V30 BEGIN BOND
M  V30 1 1 1 2
M  V30 2 1 2 3
M  V30 3 1 3 4
M  V30 4 1 4 5
M  V30 5 1 5 6
M  V30 6 2 6 7
M  V30 7 1 6 8
M  V30 8 1 8 9
M  V30 9 1 9 10
M  V30 10 1 10 11
M  V30 11 1 11 12
M  V30 12 1 12 13
M  V30 13 2 13 14
M  V30 14 1 13 15
M  V30 15 2 15 16
M  V30 16 1 16 17
M  V30 17 2 17 18
M  V30 18 1 18 19
M  V30 19 1 19 20
M  V30 20 1 20 21
M  V30 21 2 21 22
M  V30 22 1 22 23
M  V30 23 2 23 24
M  V30 24 1 24 25
M  V30 25 2 25 26
M  V30 26 2 19 27
M  V30 27 2 11 28
M  V30 28 1 28 29
M  V30 29 1 29 30
M  V30 30 1 30 31
M  V30 31 1 31 32
M  V30 32 1 31 33
M  V30 33 1 5 34
M  V30 34 1 34 35
M  V30 35 1 35 36
M  V30 36 2 36 37
M  V30 37 1 37 38
M  V30 38 2 38 39
M  V30 39 1 39 40
M  V30 40 2 40 41
M  V30 41 1 34 42
M  V30 42 1 42 2
M  V30 43 1 31 8
M  V30 44 1 41 36
M  V30 45 2 30 10
M  V30 46 1 27 15
M  V30 47 1 26 21
M  V30 48 1 1 43
M  V30 49 1 1 44
M  V30 50 1 1 45
M  V30 51 1 3 46
M  V30 52 1 3 47
M  V30 53 1 4 48
M  V30 54 1 4 49
M  V30 55 1 9 50
M  V30 56 1 9 51
M  V30 57 1 12 52
M  V30 58 1 16 53
M  V30 59 1 17 54
M  V30 60 1 18 55
M  V30 61 1 22 56
M  V30 62 1 23 57
M  V30 63 1 24 58
M  V30 64 1 25 59
M  V30 65 1 26 60
M  V30 66 1 27 61
M  V30 67 1 29 62
M  V30 68 1 32 63
M  V30 69 1 32 64
M  V30 70 1 32 65
M  V30 71 1 33 66
M  V30 72 1 33 67
M  V30 73 1 33 68
M  V30 74 1 34 69 CFG=3
M  V30 75 1 35 70
M  V30 76 1 35 71
M  V30 77 1 37 72
M  V30 78 1 38 73
M  V30 79 1 39 74
M  V30 80 1 40 75
M  V30 81 1 41 76
M  V30 82 1 42 77
M  V30 83 1 42 78
M  V30 END BOND
M  V30 END CTAB
M  END
>  <Dataset>  (551) 
ChEMBL_Kinases

>  <Ligand_Instance>  (551) 
nan

>  <PDB_ID>  (551) 
nan

>  <Standardized_SMILES>  (551) 
CN1CCN(C(=O)N2Cc3c(NC(=O)c4cccc(Oc5ccccc5)c4)n[nH]c3C2(C)C)[C@@H](Cc2ccccc2)C1

>  <Name>  (551) 
nan

>  <Pocket>  (551) 
nan

>  <ATP_Site>  (551) 
nan

>  <Peripheral>  (551) 
nan

>  <Num_H_Atoms_ProtBoundConf>  (551) 
nan

>  <Num_Resolved_Atoms>  (551) 
nan

>  <Num_Not_Resolved_Atoms>  (551) 
nan

$$$$
CHEMBL2070490
     RDKit          3D

  0  0  0  0  0  0  0  0  0  0999 V3000
M  V30 BEGIN CTAB
M  V30 COUNTS 54 57 0 0 0
M  V30 BEGIN ATOM
M  V30 1 C 7.429010 -3.782007 1.394589 0
M  V30 2 C 6.983762 -3.929630 2.823524 0
M  V30 3 O 6.135212 -2.875501 3.160663 0
M  V30 4 C 4.927976 -2.570815 2.556622 0
M  V30 5 C 4.246702 -1.471278 3.053953 0
M  V30 6 C 3.037564 -1.108829 2.500934 0
M  V30 7 C 2.429918 -1.769044 1.461967 0
M  V30 8 C 1.154596 -1.399207 0.867697 0
M  V30 9 C 0.539833 -0.297465 1.416445 0
M  V30 10 C -0.658523 0.051208 0.859577 0
M  V30 11 C -1.497606 1.234630 1.319045 0
M  V30 12 C -1.315003 2.161335 2.289491 0
M  V30 13 N -2.252655 3.062475 2.422240 0
M  V30 14 C -3.240969 3.197365 1.825538 0
M  V30 15 N -4.424486 4.010592 1.700618 0
M  V30 16 C -5.470112 3.794191 0.743643 0
M  V30 17 C -4.860872 3.895101 -0.627296 0
M  V30 18 C -6.177389 2.470526 0.953741 0
M  V30 19 S -3.097549 1.741629 0.613944 0
M  V30 20 N -1.199091 -0.632225 -0.151762 0
M  V30 21 C -0.588614 -1.722107 -0.692900 0
M  V30 22 C -1.218563 -2.434033 -1.794534 0
M  V30 23 C -0.733701 -3.527989 -2.431703 0
M  V30 24 C -1.378204 -4.163299 -3.474104 0
M  V30 25 C -2.587445 -3.659477 -3.896472 0
M  V30 26 C -3.129399 -2.550955 -3.287582 0
M  V30 27 C -2.445565 -1.971175 -2.266844 0
M  V30 28 F -3.019330 -0.868248 -1.686186 0
M  V30 29 N 0.587626 -2.067201 -0.148901 0
M  V30 30 C 3.125519 -2.856642 0.985912 0
M  V30 31 Cl 2.564210 -3.845889 -0.316493 0
M  V30 32 C 4.334047 -3.252344 1.508478 0
M  V30 33 H 8.538783 -3.590452 1.411594 0
M  V30 34 H 6.962769 -2.881855 0.963367 0
M  V30 35 H 7.202709 -4.705185 0.817682 0
M  V30 36 H 7.851929 -3.879753 3.533448 0
M  V30 37 H 6.427019 -4.876475 2.992368 0
M  V30 38 H 4.670565 -0.898866 3.879810 0
M  V30 39 H 2.566562 -0.244318 2.939054 0
M  V30 40 H 0.821316 0.354424 2.210739 0
M  V30 41 H -0.413888 2.101345 2.890538 0
M  V30 42 H -4.383010 4.767121 2.415948 0
M  V30 43 H -6.214910 4.573091 0.888218 0
M  V30 44 H -5.240930 3.114774 -1.318432 0
M  V30 45 H -5.154680 4.865028 -1.070420 0
M  V30 46 H -3.741792 3.895193 -0.588315 0
M  V30 47 H -6.344491 1.988505 -0.043381 0
M  V30 48 H -7.181290 2.574533 1.413181 0
M  V30 49 H -5.611245 1.785692 1.622827 0
M  V30 50 H 0.196208 -3.928963 -2.119176 0
M  V30 51 H -0.963398 -5.030051 -3.956735 0
M  V30 52 H -3.130815 -4.118122 -4.705694 0
M  V30 53 H -4.078810 -2.151560 -3.615723 0
M  V30 54 H 4.911458 -4.101248 1.163959 0
M  V30 END ATOM
M  V30 BEGIN BOND
M  V30 1 1 1 2
M  V30 2 1 2 3
M  V30 3 1 3 4
M  V30 4 2 4 5
M  V30 5 1 5 6
M  V30 6 2 6 7
M  V30 7 1 7 8
M  V30 8 2 8 9
M  V30 9 1 9 10
M  V30 10 1 10 11
M  V30 11 2 11 12
M  V30 12 1 12 13
M  V30 13 2 13 14
M  V30 14 1 14 15
M  V30 15 1 15 16
M  V30 16 1 16 17
M  V30 17 1 16 18
M  V30 18 1 14 19
M  V30 19 2 10 20
M  V30 20 1 20 21
M  V30 21 1 21 22
M  V30 22 2 22 23
M  V30 23 1 23 24
M  V30 24 2 24 25
M  V30 25 1 25 26
M  V30 26 2 26 27
M  V30 27 1 27 28
M  V30 28 2 21 29
M  V30 29 1 7 30
M  V30 30 1 30 31
M  V30 31 2 30 32
M  V30 32 1 32 4
M  V30 33 1 29 8
M  V30 34 1 19 11
M  V30 35 1 27 22
M  V30 36 1 1 33
M  V30 37 1 1 34
M  V30 38 1 1 35
M  V30 39 1 2 36
M  V30 40 1 2 37
M  V30 41 1 5 38
M  V30 42 1 6 39
M  V30 43 1 9 40
M  V30 44 1 12 41
M  V30 45 1 15 42
M  V30 46 1 16 43
M  V30 47 1 17 44
M  V30 48 1 17 45
M  V30 49 1 17 46
M  V30 50 1 18 47
M  V30 51 1 18 48
M  V30 52 1 18 49
M  V30 53 1 23 50
M  V30 54 1 24 51
M  V30 55 1 25 52
M  V30 56 1 26 53
M  V30 57 1 32 54
M  V30 END BOND
M  V30 END CTAB
M  END
>  <Dataset>  (552) 
ChEMBL_Kinases

>  <Ligand_Instance>  (552) 
nan

>  <PDB_ID>  (552) 
nan

>  <Standardized_SMILES>  (552) 
CCOc1ccc(-c2cc(-c3cnc(NC(C)C)s3)nc(-c3ccccc3F)n2)c(Cl)c1

>  <Name>  (552) 
nan

>  <Pocket>  (552) 
nan

>  <ATP_Site>  (552) 
nan

>  <Peripheral>  (552) 
nan

>  <Num_H_Atoms_ProtBoundConf>  (552) 
nan

>  <Num_Resolved_Atoms>  (552) 
nan

>  <Num_Not_Resolved_Atoms>  (552) 
nan

$$$$
CHEMBL2063439
     RDKit          3D

  0  0  0  0  0  0  0  0  0  0999 V3000
M  V30 BEGIN CTAB
M  V30 COUNTS 49 52 0 0 0
M  V30 BEGIN ATOM
M  V30 1 C 0.874113 -5.624442 -2.019134 0
M  V30 2 C 1.872392 -4.588241 -1.602682 0
M  V30 3 C 2.631484 -4.809326 -0.479899 0
M  V30 4 C 3.528769 -3.840229 -0.082269 0
M  V30 5 C 3.596764 -2.705409 -0.854600 0
M  V30 6 N 4.410697 -1.528590 -0.558574 0
M  V30 7 C 3.576583 -0.566912 0.137422 0
M  V30 8 O 2.362496 -0.934624 0.303458 0
M  V30 9 N 3.822131 0.745522 0.697807 0
M  V30 10 C 2.584405 1.252192 1.251556 0
M  V30 11 C 1.788249 2.083053 0.497658 0
M  V30 12 C 0.586479 2.419179 1.069974 0
M  V30 13 C 0.308093 1.903938 2.314204 0
M  V30 14 N -0.994765 2.251968 2.832422 0
M  V30 15 C -1.721164 1.111024 2.306195 0
M  V30 16 O -0.922538 0.338014 1.648050 0
M  V30 17 C -3.023508 0.463607 2.217284 0
M  V30 18 C -3.137859 -0.777425 2.861792 0
M  V30 19 C -4.349831 -1.457276 2.808872 0
M  V30 20 C -5.348040 -0.824839 2.108150 0
M  V30 21 C -5.326502 0.379727 1.452032 0
M  V30 22 O -6.110075 1.133818 0.760880 0
M  V30 23 N -5.486551 2.222164 0.381555 0
M  V30 24 C -4.226706 2.232786 0.818747 0
M  V30 25 N -3.159268 3.172453 0.679119 0
M  V30 26 C -4.085053 1.031906 1.530141 0
M  V30 27 C 1.116769 1.074729 3.064488 0
M  V30 28 C 2.319576 0.734747 2.495834 0
M  V30 29 C 2.849959 -2.440157 -1.998211 0
M  V30 30 C 1.943113 -3.433667 -2.388367 0
M  V30 31 H 1.320714 -6.505378 -2.494678 0
M  V30 32 H 0.106667 -5.161220 -2.692304 0
M  V30 33 H 0.285706 -5.955424 -1.109764 0
M  V30 34 H 2.588293 -5.692493 0.130243 0
M  V30 35 H 4.195270 -3.841135 0.756855 0
M  V30 36 H 5.367999 -1.110335 -0.658116 0
M  V30 37 H 4.809404 1.026959 0.580273 0
M  V30 38 H 2.091587 2.440502 -0.472520 0
M  V30 39 H -0.070317 3.068126 0.519168 0
M  V30 40 H -1.731579 2.779277 3.325774 0
M  V30 41 H -2.315074 -1.222821 3.400146 0
M  V30 42 H -4.502148 -2.424851 3.284507 0
M  V30 43 H -6.327397 -1.326613 2.038234 0
M  V30 44 H -2.389692 2.766130 0.087555 0
M  V30 45 H -3.090829 4.139189 1.078422 0
M  V30 46 H 0.816575 0.719570 4.036442 0
M  V30 47 H 2.976534 0.087172 3.055939 0
M  V30 48 H 2.871040 -1.568924 -2.624106 0
M  V30 49 H 1.309933 -3.344871 -3.250373 0
M  V30 END ATOM
M  V30 BEGIN BOND
M  V30 1 1 1 2
M  V30 2 2 2 3
M  V30 3 1 3 4
M  V30 4 2 4 5
M  V30 5 1 5 6
M  V30 6 1 6 7
M  V30 7 2 7 8
M  V30 8 1 7 9
M  V30 9 1 9 10
M  V30 10 2 10 11
M  V30 11 1 11 12
M  V30 12 2 12 13
M  V30 13 1 13 14
M  V30 14 1 14 15
M  V30 15 2 15 16
M  V30 16 1 15 17
M  V30 17 2 17 18
M  V30 18 1 18 19
M  V30 19 2 19 20
M  V30 20 1 20 21
M  V30 21 1 21 22
M  V30 22 1 22 23
M  V30 23 2 23 24
M  V30 24 1 24 25
M  V30 25 1 24 26
M  V30 26 1 13 27
M  V30 27 2 27 28
M  V30 28 1 5 29
M  V30 29 2 29 30
M  V30 30 1 30 2
M  V30 31 1 28 10
M  V30 32 1 26 17
M  V30 33 2 26 21
M  V30 34 1 1 31
M  V30 35 1 1 32
M  V30 36 1 1 33
M  V30 37 1 3 34
M  V30 38 1 4 35
M  V30 39 1 6 36
M  V30 40 1 9 37
M  V30 41 1 11 38
M  V30 42 1 12 39
M  V30 43 1 14 40
M  V30 44 1 18 41
M  V30 45 1 19 42
M  V30 46 1 20 43
M  V30 47 1 25 44
M  V30 48 1 25 45
M  V30 49 1 27 46
M  V30 50 1 28 47
M  V30 51 1 29 48
M  V30 52 1 30 49
M  V30 END BOND
M  V30 END CTAB
M  END
>  <Dataset>  (553) 
ChEMBL_Kinases

>  <Ligand_Instance>  (553) 
nan

>  <PDB_ID>  (553) 
nan

>  <Standardized_SMILES>  (553) 
Cc1ccc(NC(=O)Nc2ccc(NC(=O)c3cccc4onc(N)c34)cc2)cc1

>  <Name>  (553) 
nan

>  <Pocket>  (553) 
nan

>  <ATP_Site>  (553) 
nan

>  <Peripheral>  (553) 
nan

>  <Num_H_Atoms_ProtBoundConf>  (553) 
nan

>  <Num_Resolved_Atoms>  (553) 
nan

>  <Num_Not_Resolved_Atoms>  (553) 
nan

$$$$
CHEMBL2063440
     RDKit          3D

  0  0  0  0  0  0  0  0  0  0999 V3000
M  V30 BEGIN CTAB
M  V30 COUNTS 46 49 0 0 0
M  V30 BEGIN ATOM
M  V30 1 N 2.537128 -1.437370 3.083975 0
M  V30 2 C 3.917853 -1.212563 2.902683 0
M  V30 3 N 4.796280 -2.120140 3.334904 0
M  V30 4 O 6.026013 -1.725596 3.071913 0
M  V30 5 C 5.993552 -0.560682 2.465815 0
M  V30 6 C 6.873242 0.357610 1.945816 0
M  V30 7 C 6.515734 1.536505 1.347509 0
M  V30 8 C 5.156179 1.849224 1.247711 0
M  V30 9 C 4.207680 0.957500 1.757067 0
M  V30 10 C 2.758691 1.237940 1.676854 0
M  V30 11 O 2.285023 0.286053 0.973433 0
M  V30 12 N 1.932616 2.291619 2.211104 0
M  V30 13 C 0.613781 1.939908 1.744196 0
M  V30 14 C -0.068489 1.125199 2.624014 0
M  V30 15 C -1.352050 0.739739 2.240197 0
M  V30 16 C -1.825603 1.200485 1.027335 0
M  V30 17 N -3.162605 0.738647 0.729958 0
M  V30 18 C -3.109368 -0.489737 0.021528 0
M  V30 19 O -1.935355 -0.888824 -0.183158 0
M  V30 20 N -4.196631 -1.236719 -0.434259 0
M  V30 21 C -4.214020 -2.461600 -1.141814 0
M  V30 22 C -3.119368 -3.190789 -1.540625 0
M  V30 23 C -3.177715 -4.381600 -2.229853 0
M  V30 24 C -4.405164 -4.906179 -2.558331 0
M  V30 25 Cl -4.618909 -6.397702 -3.424470 0
M  V30 26 C -5.522538 -4.196868 -2.171510 0
M  V30 27 C -5.423193 -3.008619 -1.482837 0
M  V30 28 C -1.109568 2.015847 0.174681 0
M  V30 29 C 0.178594 2.410834 0.545198 0
M  V30 30 C 4.659284 -0.201177 2.340637 0
M  V30 31 H 1.822230 -1.081927 3.757545 0
M  V30 32 H 2.194071 -2.112621 2.367539 0
M  V30 33 H 7.938637 0.091831 2.034770 0
M  V30 34 H 7.248024 2.234266 0.949493 0
M  V30 35 H 4.791569 2.760089 0.789387 0
M  V30 36 H 2.549729 2.940006 2.744022 0
M  V30 37 H 0.329044 0.781350 3.566823 0
M  V30 38 H -1.915902 0.101405 2.904405 0
M  V30 39 H -4.128698 1.133954 0.936621 0
M  V30 40 H -5.091073 -0.770818 -0.185742 0
M  V30 41 H -2.137157 -2.842911 -1.319122 0
M  V30 42 H -2.278056 -4.915768 -2.519867 0
M  V30 43 H -6.522885 -4.540797 -2.391549 0
M  V30 44 H -6.335348 -2.475437 -1.193226 0
M  V30 45 H -1.556973 2.332537 -0.759786 0
M  V30 46 H 0.770010 3.047427 -0.093083 0
M  V30 END ATOM
M  V30 BEGIN BOND
M  V30 1 1 1 2
M  V30 2 2 2 3
M  V30 3 1 3 4
M  V30 4 1 4 5
M  V30 5 2 5 6
M  V30 6 1 6 7
M  V30 7 2 7 8
M  V30 8 1 8 9
M  V30 9 1 9 10
M  V30 10 2 10 11
M  V30 11 1 10 12
M  V30 12 1 12 13
M  V30 13 2 13 14
M  V30 14 1 14 15
M  V30 15 2 15 16
M  V30 16 1 16 17
M  V30 17 1 17 18
M  V30 18 2 18 19
M  V30 19 1 18 20
M  V30 20 1 20 21
M  V30 21 2 21 22
M  V30 22 1 22 23
M  V30 23 2 23 24
M  V30 24 1 24 25
M  V30 25 1 24 26
M  V30 26 2 26 27
M  V30 27 1 16 28
M  V30 28 2 28 29
M  V30 29 2 9 30
M  V30 30 1 30 2
M  V30 31 1 30 5
M  V30 32 1 29 13
M  V30 33 1 27 21
M  V30 34 1 1 31
M  V30 35 1 1 32
M  V30 36 1 6 33
M  V30 37 1 7 34
M  V30 38 1 8 35
M  V30 39 1 12 36
M  V30 40 1 14 37
M  V30 41 1 15 38
M  V30 42 1 17 39
M  V30 43 1 20 40
M  V30 44 1 22 41
M  V30 45 1 23 42
M  V30 46 1 26 43
M  V30 47 1 27 44
M  V30 48 1 28 45
M  V30 49 1 29 46
M  V30 END BOND
M  V30 END CTAB
M  END
>  <Dataset>  (554) 
ChEMBL_Kinases

>  <Ligand_Instance>  (554) 
nan

>  <PDB_ID>  (554) 
nan

>  <Standardized_SMILES>  (554) 
Nc1noc2cccc(C(=O)Nc3ccc(NC(=O)Nc4ccc(Cl)cc4)cc3)c12

>  <Name>  (554) 
nan

>  <Pocket>  (554) 
nan

>  <ATP_Site>  (554) 
nan

>  <Peripheral>  (554) 
nan

>  <Num_H_Atoms_ProtBoundConf>  (554) 
nan

>  <Num_Resolved_Atoms>  (554) 
nan

>  <Num_Not_Resolved_Atoms>  (554) 
nan

$$$$
CHEMBL2063442
     RDKit          3D

  0  0  0  0  0  0  0  0  0  0999 V3000
M  V30 BEGIN CTAB
M  V30 COUNTS 49 52 0 0 0
M  V30 BEGIN ATOM
M  V30 1 N 1.123619 -2.192735 2.179297 0
M  V30 2 C 2.433344 -2.753288 2.191689 0
M  V30 3 N 2.805954 -3.904350 2.766274 0
M  V30 4 O 4.087483 -4.089645 2.570342 0
M  V30 5 C 4.552474 -3.062008 1.869072 0
M  V30 6 C 5.837290 -2.789279 1.408848 0
M  V30 7 C 6.100835 -1.650094 0.690906 0
M  V30 8 C 5.067614 -0.762222 0.423604 0
M  V30 9 C 3.788525 -1.010665 0.868626 0
M  V30 10 C 2.610920 -0.182283 0.669679 0
M  V30 11 O 1.910858 -0.464925 -0.332368 0
M  V30 12 N 2.208328 0.888798 1.500197 0
M  V30 13 C 1.092130 1.750705 1.398345 0
M  V30 14 C 0.932648 2.714606 2.361936 0
M  V30 15 C -0.118353 3.593385 2.343678 0
M  V30 16 C -1.048036 3.533582 1.353888 0
M  V30 17 C -0.943427 2.598275 0.369007 0
M  V30 18 C -1.966056 2.573952 -0.677179 0
M  V30 19 N -3.106170 1.720484 -0.370750 0
M  V30 20 C -3.127528 0.303054 -0.445139 0
M  V30 21 O -2.134035 -0.384354 -0.793764 0
M  V30 22 N -4.282838 -0.455179 -0.128905 0
M  V30 23 C -4.029898 -1.859416 -0.288621 0
M  V30 24 C -3.546632 -2.544274 0.831504 0
M  V30 25 C -3.276090 -3.912830 0.754286 0
M  V30 26 C -3.474834 -4.622338 -0.414597 0
M  V30 27 F -3.209341 -5.954578 -0.482512 0
M  V30 28 C -3.952451 -3.910634 -1.496370 0
M  V30 29 C -4.236719 -2.561070 -1.478533 0
M  V30 30 C 0.130038 1.736367 0.429107 0
M  V30 31 C 3.552598 -2.179766 1.597260 0
M  V30 32 H 0.499980 -1.662409 2.817081 0
M  V30 33 H 0.581035 -2.323869 1.285069 0
M  V30 34 H 6.682837 -3.426501 1.576256 0
M  V30 35 H 7.068386 -1.346549 0.287931 0
M  V30 36 H 5.146080 0.165514 -0.129597 0
M  V30 37 H 2.883710 1.001634 2.286271 0
M  V30 38 H 1.661165 2.789930 3.170688 0
M  V30 39 H -0.176407 4.324757 3.136486 0
M  V30 40 H -1.853301 4.259207 1.401141 0
M  V30 41 H -1.484681 2.077346 -1.571893 0
M  V30 42 H -2.278971 3.558498 -1.053422 0
M  V30 43 H -3.966634 2.216838 -0.074374 0
M  V30 44 H -5.145899 0.053240 0.169184 0
M  V30 45 H -3.359735 -2.065820 1.797585 0
M  V30 46 H -2.907583 -4.444569 1.600902 0
M  V30 47 H -4.117749 -4.453858 -2.435668 0
M  V30 48 H -4.609564 -2.007006 -2.324307 0
M  V30 49 H 0.187981 1.008891 -0.362540 0
M  V30 END ATOM
M  V30 BEGIN BOND
M  V30 1 1 1 2
M  V30 2 2 2 3
M  V30 3 1 3 4
M  V30 4 1 4 5
M  V30 5 2 5 6
M  V30 6 1 6 7
M  V30 7 2 7 8
M  V30 8 1 8 9
M  V30 9 1 9 10
M  V30 10 2 10 11
M  V30 11 1 10 12
M  V30 12 1 12 13
M  V30 13 2 13 14
M  V30 14 1 14 15
M  V30 15 2 15 16
M  V30 16 1 16 17
M  V30 17 1 17 18
M  V30 18 1 18 19
M  V30 19 1 19 20
M  V30 20 2 20 21
M  V30 21 1 20 22
M  V30 22 1 22 23
M  V30 23 2 23 24
M  V30 24 1 24 25
M  V30 25 2 25 26
M  V30 26 1 26 27
M  V30 27 1 26 28
M  V30 28 2 28 29
M  V30 29 2 17 30
M  V30 30 2 9 31
M  V30 31 1 31 2
M  V30 32 1 31 5
M  V30 33 1 30 13
M  V30 34 1 29 23
M  V30 35 1 1 32
M  V30 36 1 1 33
M  V30 37 1 6 34
M  V30 38 1 7 35
M  V30 39 1 8 36
M  V30 40 1 12 37
M  V30 41 1 14 38
M  V30 42 1 15 39
M  V30 43 1 16 40
M  V30 44 1 18 41
M  V30 45 1 18 42
M  V30 46 1 19 43
M  V30 47 1 22 44
M  V30 48 1 24 45
M  V30 49 1 25 46
M  V30 50 1 28 47
M  V30 51 1 29 48
M  V30 52 1 30 49
M  V30 END BOND
M  V30 END CTAB
M  END
>  <Dataset>  (555) 
ChEMBL_Kinases

>  <Ligand_Instance>  (555) 
nan

>  <PDB_ID>  (555) 
nan

>  <Standardized_SMILES>  (555) 
Nc1noc2cccc(C(=O)Nc3cccc(CNC(=O)Nc4ccc(F)cc4)c3)c12

>  <Name>  (555) 
nan

>  <Pocket>  (555) 
nan

>  <ATP_Site>  (555) 
nan

>  <Peripheral>  (555) 
nan

>  <Num_H_Atoms_ProtBoundConf>  (555) 
nan

>  <Num_Resolved_Atoms>  (555) 
nan

>  <Num_Not_Resolved_Atoms>  (555) 
nan

$$$$
CHEMBL2063445
     RDKit          3D

  0  0  0  0  0  0  0  0  0  0999 V3000
M  V30 BEGIN CTAB
M  V30 COUNTS 49 52 0 0 0
M  V30 BEGIN ATOM
M  V30 1 N 2.436105 -1.549517 -0.739210 0
M  V30 2 C 3.766071 -1.781477 -0.353976 0
M  V30 3 N 4.246818 -3.055807 -0.259621 0
M  V30 4 O 5.510019 -2.955360 0.112163 0
M  V30 5 C 5.818186 -1.678297 0.248449 0
M  V30 6 C 6.967267 -0.979956 0.606663 0
M  V30 7 C 7.082081 0.384080 0.686297 0
M  V30 8 C 5.946193 1.142721 0.382171 0
M  V30 9 C 4.757910 0.505402 0.016196 0
M  V30 10 C 3.589122 1.324289 -0.279002 0
M  V30 11 O 3.125805 2.082058 -1.139845 0
M  V30 12 N 2.629637 1.230764 0.797120 0
M  V30 13 C 1.354710 1.755014 1.135273 0
M  V30 14 C 1.390223 2.927760 1.911055 0
M  V30 15 C 0.170317 3.508165 2.297905 0
M  V30 16 C -1.015251 2.921193 1.912609 0
M  V30 17 C -1.095493 1.775680 1.154448 0
M  V30 18 C -2.214745 0.983194 0.660106 0
M  V30 19 N -2.510296 -0.171901 1.485811 0
M  V30 20 C -3.513938 -1.085649 1.010014 0
M  V30 21 O -3.995802 -0.724459 -0.080654 0
M  V30 22 N -3.823114 -2.244153 1.808313 0
M  V30 23 C -4.838162 -3.072318 1.215714 0
M  V30 24 C -6.183392 -3.010174 1.401245 0
M  V30 25 C -6.965729 -3.906042 0.723652 0
M  V30 26 C -6.443740 -4.857803 -0.129690 0
M  V30 27 C -5.055367 -4.914536 -0.314536 0
M  V30 28 C -4.245575 -4.003322 0.373174 0
M  V30 29 F -2.932281 -4.174296 0.101293 0
M  V30 30 C 0.145636 1.240579 0.796076 0
M  V30 31 C 4.741407 -0.865840 -0.035642 0
M  V30 32 H 1.423728 -1.470469 -0.726020 0
M  V30 33 H 1.942142 -1.222294 -1.604003 0
M  V30 34 H 7.861973 -1.573606 0.846082 0
M  V30 35 H 8.003148 0.839754 0.969272 0
M  V30 36 H 5.970260 2.203407 0.425888 0
M  V30 37 H 2.745900 0.636580 1.675707 0
M  V30 38 H 2.286229 3.430287 2.242930 0
M  V30 39 H 0.066179 4.390266 2.883660 0
M  V30 40 H -1.995891 3.301662 2.166649 0
M  V30 41 H -2.027123 0.619679 -0.363126 0
M  V30 42 H -3.154292 1.610651 0.619288 0
M  V30 43 H -1.988756 -0.295503 2.385610 0
M  V30 44 H -3.305414 -2.362478 2.699789 0
M  V30 45 H -6.500420 -2.239425 2.082805 0
M  V30 46 H -8.044558 -3.819753 0.899936 0
M  V30 47 H -7.086231 -5.563076 -0.662984 0
M  V30 48 H -4.713881 -5.690572 -1.003445 0
M  V30 49 H 0.265287 0.347448 0.203992 0
M  V30 END ATOM
M  V30 BEGIN BOND
M  V30 1 1 1 2
M  V30 2 2 2 3
M  V30 3 1 3 4
M  V30 4 1 4 5
M  V30 5 2 5 6
M  V30 6 1 6 7
M  V30 7 2 7 8
M  V30 8 1 8 9
M  V30 9 1 9 10
M  V30 10 2 10 11
M  V30 11 1 10 12
M  V30 12 1 12 13
M  V30 13 2 13 14
M  V30 14 1 14 15
M  V30 15 2 15 16
M  V30 16 1 16 17
M  V30 17 1 17 18
M  V30 18 1 18 19
M  V30 19 1 19 20
M  V30 20 2 20 21
M  V30 21 1 20 22
M  V30 22 1 22 23
M  V30 23 2 23 24
M  V30 24 1 24 25
M  V30 25 2 25 26
M  V30 26 1 26 27
M  V30 27 2 27 28
M  V30 28 1 28 29
M  V30 29 2 17 30
M  V30 30 2 9 31
M  V30 31 1 31 2
M  V30 32 1 31 5
M  V30 33 1 30 13
M  V30 34 1 28 23
M  V30 35 1 1 32
M  V30 36 1 1 33
M  V30 37 1 6 34
M  V30 38 1 7 35
M  V30 39 1 8 36
M  V30 40 1 12 37
M  V30 41 1 14 38
M  V30 42 1 15 39
M  V30 43 1 16 40
M  V30 44 1 18 41
M  V30 45 1 18 42
M  V30 46 1 19 43
M  V30 47 1 22 44
M  V30 48 1 24 45
M  V30 49 1 25 46
M  V30 50 1 26 47
M  V30 51 1 27 48
M  V30 52 1 30 49
M  V30 END BOND
M  V30 END CTAB
M  END
>  <Dataset>  (556) 
ChEMBL_Kinases

>  <Ligand_Instance>  (556) 
nan

>  <PDB_ID>  (556) 
nan

>  <Standardized_SMILES>  (556) 
Nc1noc2cccc(C(=O)Nc3cccc(CNC(=O)Nc4ccccc4F)c3)c12

>  <Name>  (556) 
nan

>  <Pocket>  (556) 
nan

>  <ATP_Site>  (556) 
nan

>  <Peripheral>  (556) 
nan

>  <Num_H_Atoms_ProtBoundConf>  (556) 
nan

>  <Num_Resolved_Atoms>  (556) 
nan

>  <Num_Not_Resolved_Atoms>  (556) 
nan

$$$$
CHEMBL2063447
     RDKit          3D

  0  0  0  0  0  0  0  0  0  0999 V3000
M  V30 BEGIN CTAB
M  V30 COUNTS 52 55 0 0 0
M  V30 BEGIN ATOM
M  V30 1 N -2.692079 -1.567066 -3.417160 0
M  V30 2 C -4.051999 -1.305224 -3.167013 0
M  V30 3 N -5.047725 -1.596703 -4.005479 0
M  V30 4 O -6.186724 -1.215848 -3.466078 0
M  V30 5 C -5.939061 -0.681088 -2.286877 0
M  V30 6 C -6.723700 -0.125344 -1.298102 0
M  V30 7 C -6.238348 0.381860 -0.122013 0
M  V30 8 C -4.859682 0.355334 0.136205 0
M  V30 9 C -4.100694 -0.205973 -0.870687 0
M  V30 10 C -2.658500 -0.249191 -0.645422 0
M  V30 11 O -1.509395 0.120298 -0.905642 0
M  V30 12 N -2.446890 -1.206913 0.419877 0
M  V30 13 C -1.107175 -1.476148 0.887134 0
M  V30 14 C -0.612611 -0.727828 1.959910 0
M  V30 15 C 0.670076 -0.920248 2.469015 0
M  V30 16 C 1.430900 -1.891743 1.856946 0
M  V30 17 C 0.992138 -2.656582 0.797231 0
M  V30 18 C 1.779555 -3.708577 0.103799 0
M  V30 19 N 2.478885 -2.996069 -0.977578 0
M  V30 20 C 2.436389 -1.614565 -1.199365 0
M  V30 21 O 1.827156 -0.678639 -0.572308 0
M  V30 22 N 3.144836 -0.982399 -2.274975 0
M  V30 23 C 2.910449 0.445324 -2.237047 0
M  V30 24 C 1.908848 1.177933 -2.846895 0
M  V30 25 C 1.913858 2.532275 -2.649005 0
M  V30 26 C 2.871229 3.157825 -1.875272 0
M  V30 27 C 2.761551 4.630435 -1.744771 0
M  V30 28 F 3.239257 5.190742 -2.927482 0
M  V30 29 F 3.575973 5.004625 -0.675189 0
M  V30 30 F 1.471112 5.013656 -1.504969 0
M  V30 31 C 3.888123 2.444639 -1.251902 0
M  V30 32 C 3.871044 1.062481 -1.462722 0
M  V30 33 C -0.303327 -2.436027 0.311448 0
M  V30 34 C -4.587072 -0.714638 -2.048960 0
M  V30 35 H -1.792481 -1.321130 -3.854889 0
M  V30 36 H -1.990144 -1.028553 -3.985103 0
M  V30 37 H -7.801520 -0.057098 -1.396104 0
M  V30 38 H -6.844655 0.811703 0.644829 0
M  V30 39 H -4.457461 0.746496 1.049338 0
M  V30 40 H -2.997947 -1.860695 1.056238 0
M  V30 41 H -1.251686 0.012205 2.392858 0
M  V30 42 H 1.057200 -0.341455 3.300126 0
M  V30 43 H 2.452740 -2.090304 2.214117 0
M  V30 44 H 2.540324 -4.119303 0.789342 0
M  V30 45 H 1.098101 -4.452768 -0.304849 0
M  V30 46 H 3.043693 -3.597541 -1.610838 0
M  V30 47 H 3.723822 -1.556503 -2.944936 0
M  V30 48 H 1.243305 0.570390 -3.409891 0
M  V30 49 H 1.121185 3.071349 -3.137120 0
M  V30 50 H 4.630097 2.951089 -0.649537 0
M  V30 51 H 4.702439 0.572944 -0.939331 0
M  V30 52 H -0.705724 -3.003752 -0.517010 0
M  V30 END ATOM
M  V30 BEGIN BOND
M  V30 1 1 1 2
M  V30 2 2 2 3
M  V30 3 1 3 4
M  V30 4 1 4 5
M  V30 5 2 5 6
M  V30 6 1 6 7
M  V30 7 2 7 8
M  V30 8 1 8 9
M  V30 9 1 9 10
M  V30 10 2 10 11
M  V30 11 1 10 12
M  V30 12 1 12 13
M  V30 13 2 13 14
M  V30 14 1 14 15
M  V30 15 2 15 16
M  V30 16 1 16 17
M  V30 17 1 17 18
M  V30 18 1 18 19
M  V30 19 1 19 20
M  V30 20 2 20 21
M  V30 21 1 20 22
M  V30 22 1 22 23
M  V30 23 2 23 24
M  V30 24 1 24 25
M  V30 25 2 25 26
M  V30 26 1 26 27
M  V30 27 1 27 28
M  V30 28 1 27 29
M  V30 29 1 27 30
M  V30 30 1 26 31
M  V30 31 2 31 32
M  V30 32 2 17 33
M  V30 33 2 9 34
M  V30 34 1 34 2
M  V30 35 1 34 5
M  V30 36 1 33 13
M  V30 37 1 32 23
M  V30 38 1 1 35
M  V30 39 1 1 36
M  V30 40 1 6 37
M  V30 41 1 7 38
M  V30 42 1 8 39
M  V30 43 1 12 40
M  V30 44 1 14 41
M  V30 45 1 15 42
M  V30 46 1 16 43
M  V30 47 1 18 44
M  V30 48 1 18 45
M  V30 49 1 19 46
M  V30 50 1 22 47
M  V30 51 1 24 48
M  V30 52 1 25 49
M  V30 53 1 31 50
M  V30 54 1 32 51
M  V30 55 1 33 52
M  V30 END BOND
M  V30 END CTAB
M  END
>  <Dataset>  (557) 
ChEMBL_Kinases

>  <Ligand_Instance>  (557) 
nan

>  <PDB_ID>  (557) 
nan

>  <Standardized_SMILES>  (557) 
Nc1noc2cccc(C(=O)Nc3cccc(CNC(=O)Nc4ccc(C(F)(F)F)cc4)c3)c12

>  <Name>  (557) 
nan

>  <Pocket>  (557) 
nan

>  <ATP_Site>  (557) 
nan

>  <Peripheral>  (557) 
nan

>  <Num_H_Atoms_ProtBoundConf>  (557) 
nan

>  <Num_Resolved_Atoms>  (557) 
nan

>  <Num_Not_Resolved_Atoms>  (557) 
nan

$$$$
CHEMBL2063449
     RDKit          3D

  0  0  0  0  0  0  0  0  0  0999 V3000
M  V30 BEGIN CTAB
M  V30 COUNTS 35 37 0 0 0
M  V30 BEGIN ATOM
M  V30 1 N 0.146001 -3.811351 4.199767 0
M  V30 2 C 0.356231 -4.171417 2.830139 0
M  V30 3 C 1.274713 -3.196294 2.140914 0
M  V30 4 C 2.637288 -3.325098 2.090963 0
M  V30 5 C 3.442763 -2.408026 1.447929 0
M  V30 6 C 2.875989 -1.310678 0.824717 0
M  V30 7 C 1.497561 -1.172144 0.871677 0
M  V30 8 N 0.868479 -0.047172 0.239005 0
M  V30 9 C 0.317438 0.290961 -1.051143 0
M  V30 10 O 0.305953 -0.524380 -2.011730 0
M  V30 11 C -0.202207 1.679730 -1.051854 0
M  V30 12 C 0.596335 2.798210 -1.197342 0
M  V30 13 C -0.029132 4.031394 -1.174362 0
M  V30 14 C -1.393595 4.190835 -1.015142 0
M  V30 15 C -2.199173 3.065305 -0.868824 0
M  V30 16 O -3.493089 2.887034 -0.704520 0
M  V30 17 N -3.733556 1.606062 -0.619434 0
M  V30 18 C -2.584488 0.908146 -0.729241 0
M  V30 19 N -2.496753 -0.509578 -0.677523 0
M  V30 20 C -1.565167 1.833090 -0.892883 0
M  V30 21 C 0.709671 -2.102051 1.519712 0
M  V30 22 H 0.119852 -4.645526 4.829455 0
M  V30 23 H -0.763208 -3.307354 4.275342 0
M  V30 24 H 0.769392 -5.190749 2.700415 0
M  V30 25 H -0.609602 -4.151401 2.281930 0
M  V30 26 H 3.045230 -4.199784 2.592564 0
M  V30 27 H 4.506733 -2.512423 1.411191 0
M  V30 28 H 3.448011 -0.547304 0.300060 0
M  V30 29 H 0.905528 0.580216 1.068251 0
M  V30 30 H 1.652046 2.641827 -1.319620 0
M  V30 31 H 0.600108 4.903391 -1.289284 0
M  V30 32 H -1.832845 5.196689 -1.004170 0
M  V30 33 H -2.442880 -1.128464 -1.537915 0
M  V30 34 H -2.458987 -1.285849 0.029798 0
M  V30 35 H -0.376478 -1.937299 1.520449 0
M  V30 END ATOM
M  V30 BEGIN BOND
M  V30 1 1 1 2
M  V30 2 1 2 3
M  V30 3 2 3 4
M  V30 4 1 4 5
M  V30 5 2 5 6
M  V30 6 1 6 7
M  V30 7 1 7 8
M  V30 8 1 8 9
M  V30 9 2 9 10
M  V30 10 1 9 11
M  V30 11 2 11 12
M  V30 12 1 12 13
M  V30 13 2 13 14
M  V30 14 1 14 15
M  V30 15 1 15 16
M  V30 16 1 16 17
M  V30 17 2 17 18
M  V30 18 1 18 19
M  V30 19 1 18 20
M  V30 20 2 7 21
M  V30 21 1 21 3
M  V30 22 1 20 11
M  V30 23 2 20 15
M  V30 24 1 1 22
M  V30 25 1 1 23
M  V30 26 1 2 24
M  V30 27 1 2 25
M  V30 28 1 4 26
M  V30 29 1 5 27
M  V30 30 1 6 28
M  V30 31 1 8 29
M  V30 32 1 12 30
M  V30 33 1 13 31
M  V30 34 1 14 32
M  V30 35 1 19 33
M  V30 36 1 19 34
M  V30 37 1 21 35
M  V30 END BOND
M  V30 END CTAB
M  END
>  <Dataset>  (558) 
ChEMBL_Kinases

>  <Ligand_Instance>  (558) 
nan

>  <PDB_ID>  (558) 
nan

>  <Standardized_SMILES>  (558) 
NCc1cccc(NC(=O)c2cccc3onc(N)c23)c1

>  <Name>  (558) 
nan

>  <Pocket>  (558) 
nan

>  <ATP_Site>  (558) 
nan

>  <Peripheral>  (558) 
nan

>  <Num_H_Atoms_ProtBoundConf>  (558) 
nan

>  <Num_Resolved_Atoms>  (558) 
nan

>  <Num_Not_Resolved_Atoms>  (558) 
nan

$$$$
CHEMBL2063451
     RDKit          3D

  0  0  0  0  0  0  0  0  0  0999 V3000
M  V30 BEGIN CTAB
M  V30 COUNTS 47 50 0 0 0
M  V30 BEGIN ATOM
M  V30 1 N 3.238035 -1.745885 3.061171 0
M  V30 2 C 4.384803 -1.878201 2.211380 0
M  V30 3 N 5.454238 -2.687272 2.330148 0
M  V30 4 O 6.287089 -2.521603 1.366184 0
M  V30 5 C 5.870396 -1.597133 0.508420 0
M  V30 6 C 6.298022 -1.016183 -0.649777 0
M  V30 7 C 5.537349 -0.031057 -1.283430 0
M  V30 8 C 4.313522 0.383846 -0.741495 0
M  V30 9 C 3.882066 -0.212390 0.439981 0
M  V30 10 C 2.600413 0.288471 0.902469 0
M  V30 11 O 1.914429 -0.761307 0.965852 0
M  V30 12 N 2.093393 1.558493 1.234119 0
M  V30 13 C 0.789326 1.858691 1.676940 0
M  V30 14 C 0.521821 3.201514 1.836951 0
M  V30 15 C -0.730577 3.594005 2.261073 0
M  V30 16 C -1.740310 2.695904 2.536052 0
M  V30 17 C -1.498912 1.367238 2.385715 0
M  V30 18 C -2.465758 0.232809 2.620713 0
M  V30 19 C -2.955024 -0.328040 1.311305 0
M  V30 20 O -2.654993 0.037344 0.145662 0
M  V30 21 N -3.878997 -1.421375 1.461371 0
M  V30 22 C -4.357822 -1.986268 0.240458 0
M  V30 23 C -5.433034 -1.719667 -0.567455 0
M  V30 24 C -5.634251 -2.456295 -1.708520 0
M  V30 25 C -4.802308 -3.462287 -2.089934 0
M  V30 26 C -3.707739 -3.761137 -1.302023 0
M  V30 27 F -2.921330 -4.770202 -1.739381 0
M  V30 28 C -3.497345 -3.020593 -0.147037 0
M  V30 29 C -0.229097 0.981263 1.956559 0
M  V30 30 C 4.657315 -1.180486 1.038764 0
M  V30 31 H 3.120884 -0.941880 3.715554 0
M  V30 32 H 2.438196 -2.447216 3.085589 0
M  V30 33 H 7.249310 -1.353130 -1.046306 0
M  V30 34 H 5.879605 0.426862 -2.199461 0
M  V30 35 H 3.754490 1.146913 -1.263129 0
M  V30 36 H 2.845728 2.265073 1.106016 0
M  V30 37 H 1.255270 3.982644 1.642938 0
M  V30 38 H -0.923166 4.658442 2.381617 0
M  V30 39 H -2.730732 2.963826 2.869951 0
M  V30 40 H -1.895484 -0.544834 3.161271 0
M  V30 41 H -3.318021 0.563046 3.266456 0
M  V30 42 H -4.229927 -1.836435 2.355341 0
M  V30 43 H -6.013368 -0.890669 -0.146292 0
M  V30 44 H -6.522946 -2.145019 -2.262396 0
M  V30 45 H -5.036980 -3.994502 -3.010071 0
M  V30 46 H -2.591229 -3.375506 0.366706 0
M  V30 47 H -0.026264 -0.064081 1.835577 0
M  V30 END ATOM
M  V30 BEGIN BOND
M  V30 1 1 1 2
M  V30 2 2 2 3
M  V30 3 1 3 4
M  V30 4 1 4 5
M  V30 5 2 5 6
M  V30 6 1 6 7
M  V30 7 2 7 8
M  V30 8 1 8 9
M  V30 9 1 9 10
M  V30 10 2 10 11
M  V30 11 1 10 12
M  V30 12 1 12 13
M  V30 13 2 13 14
M  V30 14 1 14 15
M  V30 15 2 15 16
M  V30 16 1 16 17
M  V30 17 1 17 18
M  V30 18 1 18 19
M  V30 19 2 19 20
M  V30 20 1 19 21
M  V30 21 1 21 22
M  V30 22 2 22 23
M  V30 23 1 23 24
M  V30 24 2 24 25
M  V30 25 1 25 26
M  V30 26 1 26 27
M  V30 27 2 26 28
M  V30 28 2 17 29
M  V30 29 2 9 30
M  V30 30 1 30 2
M  V30 31 1 30 5
M  V30 32 1 29 13
M  V30 33 1 28 22
M  V30 34 1 1 31
M  V30 35 1 1 32
M  V30 36 1 6 33
M  V30 37 1 7 34
M  V30 38 1 8 35
M  V30 39 1 12 36
M  V30 40 1 14 37
M  V30 41 1 15 38
M  V30 42 1 16 39
M  V30 43 1 18 40
M  V30 44 1 18 41
M  V30 45 1 21 42
M  V30 46 1 23 43
M  V30 47 1 24 44
M  V30 48 1 25 45
M  V30 49 1 28 46
M  V30 50 1 29 47
M  V30 END BOND
M  V30 END CTAB
M  END
>  <Dataset>  (559) 
ChEMBL_Kinases

>  <Ligand_Instance>  (559) 
nan

>  <PDB_ID>  (559) 
nan

>  <Standardized_SMILES>  (559) 
Nc1noc2cccc(C(=O)Nc3cccc(CC(=O)Nc4cccc(F)c4)c3)c12

>  <Name>  (559) 
nan

>  <Pocket>  (559) 
nan

>  <ATP_Site>  (559) 
nan

>  <Peripheral>  (559) 
nan

>  <Num_H_Atoms_ProtBoundConf>  (559) 
nan

>  <Num_Resolved_Atoms>  (559) 
nan

>  <Num_Not_Resolved_Atoms>  (559) 
nan

$$$$
CHEMBL2064556
     RDKit          3D

  0  0  0  0  0  0  0  0  0  0999 V3000
M  V30 BEGIN CTAB
M  V30 COUNTS 80 86 0 0 0
M  V30 BEGIN ATOM
M  V30 1 C 6.316409 -5.234651 1.135677 0
M  V30 2 N 5.957214 -4.104742 0.260203 0
M  V30 3 C 6.755276 -4.082100 -0.924783 0
M  V30 4 C 4.526401 -4.204379 0.016699 0
M  V30 5 C 3.865902 -3.885916 1.347030 0 CFG=1
M  V30 6 N 4.165975 -2.572856 1.811632 0
M  V30 7 C 5.047001 -1.855194 2.666054 0
M  V30 8 O 5.930822 -2.445759 3.293721 0
M  V30 9 C 4.894644 -0.408964 2.788051 0
M  V30 10 C 5.992610 0.332805 3.168508 0
M  V30 11 C 5.814777 1.715743 3.295069 0
M  V30 12 C 4.610483 2.345420 3.060645 0
M  V30 13 N 4.131537 3.604237 3.097323 0
M  V30 14 N 2.855535 3.620779 2.770525 0
M  V30 15 C 2.391319 2.390270 2.494572 0
M  V30 16 C 1.029362 2.068304 2.130775 0
M  V30 17 N 0.060931 2.998811 2.060706 0
M  V30 18 C -1.118124 2.452787 1.728870 0
M  V30 19 C -2.319642 3.098185 1.578884 0
M  V30 20 C -3.404122 2.281441 1.240848 0
M  V30 21 N -4.724623 2.747045 1.065688 0
M  V30 22 C -5.999603 2.222347 0.724511 0
M  V30 23 C -6.025178 1.768142 -0.674141 0
M  V30 24 C -5.864357 0.569065 -1.300424 0
M  V30 25 C -5.896393 0.258870 -2.629551 0
M  V30 26 C -6.127968 1.326087 -3.463753 0
M  V30 27 C -6.183636 1.112850 -4.894724 0
M  V30 28 C -6.019988 -0.097555 -5.526168 0
M  V30 29 C -6.074882 -0.279602 -6.888271 0
M  V30 30 C -6.307356 0.792179 -7.715435 0
M  V30 31 C -6.468050 1.987906 -7.066110 0
M  V30 32 N -6.407972 2.127692 -5.743669 0
M  V30 33 C -6.311723 2.604356 -2.980865 0
M  V30 34 C -6.256885 2.799065 -1.603452 0
M  V30 35 C -3.225749 0.922176 1.079565 0
M  V30 36 C -1.982000 0.299804 1.240599 0
M  V30 37 C -0.911116 1.098910 1.573905 0
M  V30 38 N 0.393955 0.940845 1.828508 0
M  V30 39 C 3.496198 1.601118 2.677128 0
M  V30 40 C 3.711668 0.250065 2.563101 0
M  V30 41 C 2.446476 -4.254258 1.419131 0
M  V30 42 C 1.429223 -3.422295 0.981444 0
M  V30 43 C 0.097633 -3.783037 1.055822 0
M  V30 44 C -0.324000 -4.991103 1.571096 0
M  V30 45 C 0.695082 -5.802645 1.999731 0
M  V30 46 C 2.025448 -5.487346 1.942994 0
M  V30 47 H 7.209189 -5.768517 0.744087 0
M  V30 48 H 6.414584 -4.891052 2.160631 0
M  V30 49 H 5.506391 -6.013379 1.119781 0
M  V30 50 H 7.671310 -4.681224 -0.744904 0
M  V30 51 H 7.068468 -3.036276 -1.110370 0
M  V30 52 H 6.244184 -4.469690 -1.821616 0
M  V30 53 H 4.191187 -3.602771 -0.821718 0
M  V30 54 H 4.306681 -5.266195 -0.200095 0
M  V30 55 H 4.422306 -4.584879 2.063242 0
M  V30 56 H 3.458922 -2.004108 1.290755 0
M  V30 57 H 6.942078 -0.132310 3.359237 0
M  V30 58 H 6.664125 2.343342 3.591327 0
M  V30 59 H 4.709726 4.436120 3.351149 0
M  V30 60 H -2.482515 4.145382 1.698622 0
M  V30 61 H -4.757967 3.804326 1.242834 0
M  V30 62 H -6.312448 1.393570 1.423425 0
M  V30 63 H -6.795406 2.995001 0.850144 0
M  V30 64 H -5.701427 -0.253132 -0.599242 0
M  V30 65 H -5.743434 -0.760931 -2.926252 0
M  V30 66 H -5.836429 -0.974970 -4.930667 0
M  V30 67 H -5.937830 -1.268564 -7.335229 0
M  V30 68 H -6.360425 0.726289 -8.785080 0
M  V30 69 H -6.662160 2.918264 -7.609817 0
M  V30 70 H -6.493938 3.437974 -3.652013 0
M  V30 71 H -6.412612 3.829404 -1.292882 0
M  V30 72 H -3.945303 0.167458 0.834202 0
M  V30 73 H -1.758026 -0.743306 1.132053 0
M  V30 74 H 0.783780 -0.012557 1.769215 0
M  V30 75 H 2.910572 -0.376641 2.284262 0
M  V30 76 H 1.636494 -2.444967 0.553997 0
M  V30 77 H -0.675952 -3.104370 0.703594 0
M  V30 78 H -1.343640 -5.299590 1.644346 0
M  V30 79 H 0.395849 -6.771237 2.409627 0
M  V30 80 H 2.766567 -6.189915 2.309500 0
M  V30 END ATOM
M  V30 BEGIN BOND
M  V30 1 1 1 2
M  V30 2 1 2 3
M  V30 3 1 2 4
M  V30 4 1 4 5
M  V30 5 1 5 6
M  V30 6 1 6 7
M  V30 7 2 7 8
M  V30 8 1 7 9
M  V30 9 2 9 10
M  V30 10 1 10 11
M  V30 11 2 11 12
M  V30 12 1 12 13
M  V30 13 1 13 14
M  V30 14 2 14 15
M  V30 15 1 15 16
M  V30 16 2 16 17
M  V30 17 1 17 18
M  V30 18 2 18 19
M  V30 19 1 19 20
M  V30 20 1 20 21
M  V30 21 1 21 22
M  V30 22 1 22 23
M  V30 23 2 23 24
M  V30 24 1 24 25
M  V30 25 2 25 26
M  V30 26 1 26 27
M  V30 27 2 27 28
M  V30 28 1 28 29
M  V30 29 2 29 30
M  V30 30 1 30 31
M  V30 31 2 31 32
M  V30 32 1 26 33
M  V30 33 2 33 34
M  V30 34 2 20 35
M  V30 35 1 35 36
M  V30 36 2 36 37
M  V30 37 1 37 38
M  V30 38 1 15 39
M  V30 39 2 39 40
M  V30 40 1 5 41
M  V30 41 2 41 42
M  V30 42 1 42 43
M  V30 43 2 43 44
M  V30 44 1 44 45
M  V30 45 2 45 46
M  V30 46 1 40 9
M  V30 47 1 46 41
M  V30 48 1 39 12
M  V30 49 1 38 16
M  V30 50 1 37 18
M  V30 51 1 34 23
M  V30 52 1 32 27
M  V30 53 1 1 47
M  V30 54 1 1 48
M  V30 55 1 1 49
M  V30 56 1 3 50
M  V30 57 1 3 51
M  V30 58 1 3 52
M  V30 59 1 4 53
M  V30 60 1 4 54
M  V30 61 1 5 55 CFG=1
M  V30 62 1 6 56
M  V30 63 1 10 57
M  V30 64 1 11 58
M  V30 65 1 13 59
M  V30 66 1 19 60
M  V30 67 1 21 61
M  V30 68 1 22 62
M  V30 69 1 22 63
M  V30 70 1 24 64
M  V30 71 1 25 65
M  V30 72 1 28 66
M  V30 73 1 29 67
M  V30 74 1 30 68
M  V30 75 1 31 69
M  V30 76 1 33 70
M  V30 77 1 34 71
M  V30 78 1 35 72
M  V30 79 1 36 73
M  V30 80 1 38 74
M  V30 81 1 40 75
M  V30 82 1 42 76
M  V30 83 1 43 77
M  V30 84 1 44 78
M  V30 85 1 45 79
M  V30 86 1 46 80
M  V30 END BOND
M  V30 END CTAB
M  END
>  <Dataset>  (560) 
ChEMBL_Kinases

>  <Ligand_Instance>  (560) 
nan

>  <PDB_ID>  (560) 
nan

>  <Standardized_SMILES>  (560) 
CN(C)C[C@@H](NC(=O)c1ccc2[nH]nc(-c3nc4cc(NCc5ccc(-c6ccccn6)cc5)ccc4[nH]3)c2c1)c1ccccc1

>  <Name>  (560) 
nan

>  <Pocket>  (560) 
nan

>  <ATP_Site>  (560) 
nan

>  <Peripheral>  (560) 
nan

>  <Num_H_Atoms_ProtBoundConf>  (560) 
nan

>  <Num_Resolved_Atoms>  (560) 
nan

>  <Num_Not_Resolved_Atoms>  (560) 
nan

$$$$
CHEMBL2063454
     RDKit          3D

  0  0  0  0  0  0  0  0  0  0999 V3000
M  V30 BEGIN CTAB
M  V30 COUNTS 49 52 0 0 0
M  V30 BEGIN ATOM
M  V30 1 N 1.656665 -1.706203 3.113132 0
M  V30 2 C 2.924264 -2.155807 2.715063 0
M  V30 3 N 3.227820 -3.138701 3.638097 0
M  V30 4 S 4.877283 -3.607363 2.984887 0
M  V30 5 C 4.853112 -2.469759 1.678452 0
M  V30 6 C 5.776946 -2.190638 0.680335 0
M  V30 7 C 5.581321 -1.229981 -0.296370 0
M  V30 8 C 4.392293 -0.579710 -0.188776 0
M  V30 9 C 3.402946 -0.766193 0.747941 0
M  V30 10 C 2.167897 0.001446 0.752877 0
M  V30 11 O 1.206436 -0.784361 0.707564 0
M  V30 12 N 2.068466 1.416696 0.801552 0
M  V30 13 C 0.851832 2.132510 0.826276 0
M  V30 14 C 0.837605 3.476287 0.524013 0
M  V30 15 C -0.320601 4.240843 0.557228 0
M  V30 16 C -1.494046 3.601763 0.911988 0
M  V30 17 C -1.534765 2.244299 1.227688 0
M  V30 18 C -2.881402 1.775526 1.555342 0
M  V30 19 N -3.551832 1.133745 0.421354 0
M  V30 20 C -3.263329 -0.253290 0.139332 0
M  V30 21 O -2.485760 -1.070719 0.760735 0
M  V30 22 N -3.799598 -1.044630 -0.926871 0
M  V30 23 C -3.268420 -2.375144 -0.805348 0
M  V30 24 C -4.176785 -3.057603 0.008264 0
M  V30 25 C -3.970485 -4.401061 0.343523 0
M  V30 26 C -2.840981 -5.054440 -0.146747 0
M  V30 27 F -2.554184 -6.350591 0.120256 0
M  V30 28 C -1.964620 -4.345793 -0.949036 0
M  V30 29 F -0.842571 -4.893680 -1.469491 0
M  V30 30 C -2.159024 -3.027042 -1.283364 0
M  V30 31 C -0.339512 1.579174 1.165886 0
M  V30 32 C 3.690556 -1.737181 1.670454 0
M  V30 33 H 0.724598 -1.430690 3.393692 0
M  V30 34 H 1.234633 -0.786783 3.407922 0
M  V30 35 H 6.675119 -2.797043 0.726468 0
M  V30 36 H 6.322124 -1.041752 -1.055211 0
M  V30 37 H 4.192118 0.187623 -0.933628 0
M  V30 38 H 2.975365 1.961846 0.821384 0
M  V30 39 H 1.757755 4.011879 0.239606 0
M  V30 40 H -0.260379 5.290227 0.309024 0
M  V30 41 H -2.349604 4.259497 0.913332 0
M  V30 42 H -2.795162 0.954804 2.322279 0
M  V30 43 H -3.520343 2.539861 1.983029 0
M  V30 44 H -4.246538 1.491884 -0.275696 0
M  V30 45 H -4.453511 -0.539332 -1.587886 0
M  V30 46 H -5.107469 -2.735849 0.487937 0
M  V30 47 H -4.591633 -5.031817 0.955794 0
M  V30 48 H -1.583131 -2.351239 -1.886473 0
M  V30 49 H -0.448568 0.547032 1.437793 0
M  V30 END ATOM
M  V30 BEGIN BOND
M  V30 1 1 1 2
M  V30 2 2 2 3
M  V30 3 1 3 4
M  V30 4 1 4 5
M  V30 5 2 5 6
M  V30 6 1 6 7
M  V30 7 2 7 8
M  V30 8 1 8 9
M  V30 9 1 9 10
M  V30 10 2 10 11
M  V30 11 1 10 12
M  V30 12 1 12 13
M  V30 13 2 13 14
M  V30 14 1 14 15
M  V30 15 2 15 16
M  V30 16 1 16 17
M  V30 17 1 17 18
M  V30 18 1 18 19
M  V30 19 1 19 20
M  V30 20 2 20 21
M  V30 21 1 20 22
M  V30 22 1 22 23
M  V30 23 2 23 24
M  V30 24 1 24 25
M  V30 25 2 25 26
M  V30 26 1 26 27
M  V30 27 1 26 28
M  V30 28 1 28 29
M  V30 29 2 28 30
M  V30 30 2 17 31
M  V30 31 2 9 32
M  V30 32 1 32 2
M  V30 33 1 32 5
M  V30 34 1 31 13
M  V30 35 1 30 23
M  V30 36 1 1 33
M  V30 37 1 1 34
M  V30 38 1 6 35
M  V30 39 1 7 36
M  V30 40 1 8 37
M  V30 41 1 12 38
M  V30 42 1 14 39
M  V30 43 1 15 40
M  V30 44 1 16 41
M  V30 45 1 18 42
M  V30 46 1 18 43
M  V30 47 1 19 44
M  V30 48 1 22 45
M  V30 49 1 24 46
M  V30 50 1 25 47
M  V30 51 1 30 48
M  V30 52 1 31 49
M  V30 END BOND
M  V30 END CTAB
M  END
>  <Dataset>  (561) 
ChEMBL_Kinases

>  <Ligand_Instance>  (561) 
nan

>  <PDB_ID>  (561) 
nan

>  <Standardized_SMILES>  (561) 
Nc1nsc2cccc(C(=O)Nc3cccc(CNC(=O)Nc4ccc(F)c(F)c4)c3)c12

>  <Name>  (561) 
nan

>  <Pocket>  (561) 
nan

>  <ATP_Site>  (561) 
nan

>  <Peripheral>  (561) 
nan

>  <Num_H_Atoms_ProtBoundConf>  (561) 
nan

>  <Num_Resolved_Atoms>  (561) 
nan

>  <Num_Not_Resolved_Atoms>  (561) 
nan

$$$$
CHEMBL2063457
     RDKit          3D

  0  0  0  0  0  0  0  0  0  0999 V3000
M  V30 BEGIN CTAB
M  V30 COUNTS 53 56 0 0 0
M  V30 BEGIN ATOM
M  V30 1 C 2.136831 -3.390445 6.058653 0
M  V30 2 N 2.457996 -2.490509 4.945124 0
M  V30 3 N 2.811829 -1.210005 4.985705 0
M  V30 4 C 3.007473 -0.753529 3.729014 0
M  V30 5 N 3.392578 0.543640 3.309134 0
M  V30 6 C 2.748050 -1.844476 2.930427 0
M  V30 7 C 2.799656 -1.929305 1.564723 0
M  V30 8 C 3.130505 -0.843100 0.614797 0
M  V30 9 O 4.111515 -0.656188 -0.174385 0
M  V30 10 N 2.072647 0.120918 0.683229 0
M  V30 11 C 1.662891 1.383078 0.101464 0
M  V30 12 C 1.900090 2.675591 0.502209 0
M  V30 13 C 1.372487 3.697888 -0.256201 0
M  V30 14 C 0.631237 3.425797 -1.379017 0
M  V30 15 C 0.343119 2.147242 -1.857110 0
M  V30 16 C -0.461646 1.875279 -3.063021 0
M  V30 17 N -1.892853 1.756018 -2.783188 0
M  V30 18 C -2.369426 0.536121 -2.232508 0
M  V30 19 O -1.828187 -0.547925 -1.910438 0
M  V30 20 N -3.754718 0.382949 -1.930507 0
M  V30 21 C -4.402594 -0.750352 -1.380692 0
M  V30 22 C -4.590295 -0.988223 -0.044342 0
M  V30 23 C -5.228075 -2.094666 0.477859 0
M  V30 24 C -5.730216 -3.062207 -0.398121 0
M  V30 25 C -5.550774 -2.840079 -1.727352 0
M  V30 26 F -6.033991 -3.776242 -2.611899 0
M  V30 27 C -4.912226 -1.730515 -2.219452 0
M  V30 28 C 0.901119 1.156062 -1.052502 0
M  V30 29 C 2.511222 -3.106286 0.887114 0
M  V30 30 C 2.164782 -4.207050 1.645898 0
M  V30 31 C 2.106491 -4.141861 3.023328 0
M  V30 32 C 2.398675 -2.958340 3.663803 0
M  V30 33 H 2.958587 -4.119186 6.207914 0
M  V30 34 H 1.904885 -2.800602 6.980914 0
M  V30 35 H 1.226066 -3.980142 5.844401 0
M  V30 36 H 4.337725 0.600402 2.888183 0
M  V30 37 H 2.873177 1.427059 3.363890 0
M  V30 38 H 1.216960 0.072848 1.318018 0
M  V30 39 H 2.484181 2.715806 1.386327 0
M  V30 40 H 1.588431 4.690789 0.098716 0
M  V30 41 H 0.249948 4.279717 -1.926648 0
M  V30 42 H -0.139603 0.882848 -3.461857 0
M  V30 43 H -0.282086 2.602065 -3.874538 0
M  V30 44 H -2.614550 2.488639 -2.949089 0
M  V30 45 H -4.480640 1.139744 -2.093125 0
M  V30 46 H -4.213715 -0.259914 0.657499 0
M  V30 47 H -5.361965 -2.255422 1.525356 0
M  V30 48 H -6.231989 -3.930193 -0.004519 0
M  V30 49 H -4.791801 -1.598973 -3.290824 0
M  V30 50 H 0.695975 0.143397 -1.422324 0
M  V30 51 H 2.507927 -3.315834 -0.171302 0
M  V30 52 H 1.913865 -5.192914 1.239929 0
M  V30 53 H 1.838496 -4.983398 3.648937 0
M  V30 END ATOM
M  V30 BEGIN BOND
M  V30 1 1 1 2
M  V30 2 1 2 3
M  V30 3 2 3 4
M  V30 4 1 4 5
M  V30 5 1 4 6
M  V30 6 2 6 7
M  V30 7 1 7 8
M  V30 8 2 8 9
M  V30 9 1 8 10
M  V30 10 1 10 11
M  V30 11 2 11 12
M  V30 12 1 12 13
M  V30 13 2 13 14
M  V30 14 1 14 15
M  V30 15 1 15 16
M  V30 16 1 16 17
M  V30 17 1 17 18
M  V30 18 2 18 19
M  V30 19 1 18 20
M  V30 20 1 20 21
M  V30 21 2 21 22
M  V30 22 1 22 23
M  V30 23 2 23 24
M  V30 24 1 24 25
M  V30 25 1 25 26
M  V30 26 2 25 27
M  V30 27 2 15 28
M  V30 28 1 7 29
M  V30 29 2 29 30
M  V30 30 1 30 31
M  V30 31 2 31 32
M  V30 32 1 32 2
M  V30 33 1 32 6
M  V30 34 1 28 11
M  V30 35 1 27 21
M  V30 36 1 1 33
M  V30 37 1 1 34
M  V30 38 1 1 35
M  V30 39 1 5 36
M  V30 40 1 5 37
M  V30 41 1 10 38
M  V30 42 1 12 39
M  V30 43 1 13 40
M  V30 44 1 14 41
M  V30 45 1 16 42
M  V30 46 1 16 43
M  V30 47 1 17 44
M  V30 48 1 20 45
M  V30 49 1 22 46
M  V30 50 1 23 47
M  V30 51 1 24 48
M  V30 52 1 27 49
M  V30 53 1 28 50
M  V30 54 1 29 51
M  V30 55 1 30 52
M  V30 56 1 31 53
M  V30 END BOND
M  V30 END CTAB
M  END
>  <Dataset>  (562) 
ChEMBL_Kinases

>  <Ligand_Instance>  (562) 
nan

>  <PDB_ID>  (562) 
nan

>  <Standardized_SMILES>  (562) 
Cn1nc(N)c2c(C(=O)Nc3cccc(CNC(=O)Nc4cccc(F)c4)c3)cccc21

>  <Name>  (562) 
nan

>  <Pocket>  (562) 
nan

>  <ATP_Site>  (562) 
nan

>  <Peripheral>  (562) 
nan

>  <Num_H_Atoms_ProtBoundConf>  (562) 
nan

>  <Num_Resolved_Atoms>  (562) 
nan

>  <Num_Not_Resolved_Atoms>  (562) 
nan

$$$$
CHEMBL2063458
     RDKit          3D

  0  0  0  0  0  0  0  0  0  0999 V3000
M  V30 BEGIN CTAB
M  V30 COUNTS 56 59 0 0 0
M  V30 BEGIN ATOM
M  V30 1 C 6.066650 -3.622927 2.830872 0
M  V30 2 N 5.222262 -2.493540 2.420274 0
M  V30 3 N 4.659250 -1.582508 3.188117 0
M  V30 4 C 3.953321 -0.702461 2.424684 0
M  V30 5 N 3.197573 0.428369 2.843220 0
M  V30 6 C 4.129323 -1.143864 1.154306 0
M  V30 7 C 3.647047 -0.643700 -0.031665 0
M  V30 8 C 2.795196 0.532558 -0.178056 0
M  V30 9 O 3.274574 1.466603 -0.864078 0
M  V30 10 N 1.517299 0.673016 0.384787 0
M  V30 11 C 0.612462 1.758323 0.306676 0
M  V30 12 C 0.795347 2.939491 -0.368346 0
M  V30 13 C -0.115180 3.969024 -0.412219 0
M  V30 14 C -1.308737 3.836197 0.260350 0
M  V30 15 C -1.510756 2.643551 0.950828 0
M  V30 16 C -2.811238 2.554169 1.661889 0
M  V30 17 N -3.874072 2.006811 0.860898 0
M  V30 18 C -4.031868 0.628048 0.560254 0
M  V30 19 O -3.278231 -0.272631 0.949687 0
M  V30 20 N -5.113074 0.131172 -0.248197 0
M  V30 21 C -4.992499 -1.298630 -0.365030 0
M  V30 22 C -4.221681 -1.639650 -1.472562 0
M  V30 23 C -3.957841 -2.973800 -1.800977 0
M  V30 24 C -4.504850 -3.949291 -0.964507 0
M  V30 25 C -4.290591 -5.398524 -1.216669 0
M  V30 26 F -5.498769 -6.011350 -1.525213 0
M  V30 27 F -3.349027 -5.563105 -2.222239 0
M  V30 28 F -3.834021 -6.003243 -0.053150 0
M  V30 29 C -5.267527 -3.597684 0.130615 0
M  V30 30 C -5.522481 -2.280009 0.446952 0
M  V30 31 C -0.586423 1.652496 0.968940 0
M  V30 32 C 3.937962 -1.237990 -1.244259 0
M  V30 33 C 4.738502 -2.374032 -1.287538 0
M  V30 34 C 5.229643 -2.885893 -0.095343 0
M  V30 35 C 4.929123 -2.279372 1.107457 0
M  V30 36 H 5.892550 -3.864852 3.912391 0
M  V30 37 H 5.748575 -4.530511 2.277331 0
M  V30 38 H 7.128304 -3.391949 2.724581 0
M  V30 39 H 2.183519 0.287922 3.115410 0
M  V30 40 H 3.397600 1.445623 2.962432 0
M  V30 41 H 1.253685 -0.179317 0.925678 0
M  V30 42 H 1.710316 3.099028 -0.912513 0
M  V30 43 H 0.101987 4.879884 -0.971418 0
M  V30 44 H -2.032230 4.631108 0.236245 0
M  V30 45 H -3.058463 3.505260 2.130419 0
M  V30 46 H -2.620735 1.823800 2.505201 0
M  V30 47 H -4.600604 2.634540 0.453768 0
M  V30 48 H -5.824507 0.814320 -0.639908 0
M  V30 49 H -3.759852 -0.952430 -2.173268 0
M  V30 50 H -3.373291 -3.276827 -2.639112 0
M  V30 51 H -5.701879 -4.330797 0.792865 0
M  V30 52 H -6.095386 -1.885201 1.264199 0
M  V30 53 H -0.806239 0.753747 1.525510 0
M  V30 54 H 3.589957 -0.893776 -2.212315 0
M  V30 55 H 4.990167 -2.869895 -2.218633 0
M  V30 56 H 5.863360 -3.771166 -0.036776 0
M  V30 END ATOM
M  V30 BEGIN BOND
M  V30 1 1 1 2
M  V30 2 1 2 3
M  V30 3 2 3 4
M  V30 4 1 4 5
M  V30 5 1 4 6
M  V30 6 2 6 7
M  V30 7 1 7 8
M  V30 8 2 8 9
M  V30 9 1 8 10
M  V30 10 1 10 11
M  V30 11 2 11 12
M  V30 12 1 12 13
M  V30 13 2 13 14
M  V30 14 1 14 15
M  V30 15 1 15 16
M  V30 16 1 16 17
M  V30 17 1 17 18
M  V30 18 2 18 19
M  V30 19 1 18 20
M  V30 20 1 20 21
M  V30 21 2 21 22
M  V30 22 1 22 23
M  V30 23 2 23 24
M  V30 24 1 24 25
M  V30 25 1 25 26
M  V30 26 1 25 27
M  V30 27 1 25 28
M  V30 28 1 24 29
M  V30 29 2 29 30
M  V30 30 2 15 31
M  V30 31 1 7 32
M  V30 32 2 32 33
M  V30 33 1 33 34
M  V30 34 2 34 35
M  V30 35 1 35 2
M  V30 36 1 35 6
M  V30 37 1 31 11
M  V30 38 1 30 21
M  V30 39 1 1 36
M  V30 40 1 1 37
M  V30 41 1 1 38
M  V30 42 1 5 39
M  V30 43 1 5 40
M  V30 44 1 10 41
M  V30 45 1 12 42
M  V30 46 1 13 43
M  V30 47 1 14 44
M  V30 48 1 16 45
M  V30 49 1 16 46
M  V30 50 1 17 47
M  V30 51 1 20 48
M  V30 52 1 22 49
M  V30 53 1 23 50
M  V30 54 1 29 51
M  V30 55 1 30 52
M  V30 56 1 31 53
M  V30 57 1 32 54
M  V30 58 1 33 55
M  V30 59 1 34 56
M  V30 END BOND
M  V30 END CTAB
M  END
>  <Dataset>  (563) 
ChEMBL_Kinases

>  <Ligand_Instance>  (563) 
nan

>  <PDB_ID>  (563) 
nan

>  <Standardized_SMILES>  (563) 
Cn1nc(N)c2c(C(=O)Nc3cccc(CNC(=O)Nc4ccc(C(F)(F)F)cc4)c3)cccc21

>  <Name>  (563) 
nan

>  <Pocket>  (563) 
nan

>  <ATP_Site>  (563) 
nan

>  <Peripheral>  (563) 
nan

>  <Num_H_Atoms_ProtBoundConf>  (563) 
nan

>  <Num_Resolved_Atoms>  (563) 
nan

>  <Num_Not_Resolved_Atoms>  (563) 
nan

$$$$
CHEMBL206382
     RDKit          3D

  0  0  0  0  0  0  0  0  0  0999 V3000
M  V30 BEGIN CTAB
M  V30 COUNTS 33 34 0 0 0
M  V30 BEGIN ATOM
M  V30 1 N -1.223651 -2.801836 2.794110 0
M  V30 2 C -1.072795 -4.207368 2.655445 0
M  V30 3 C 0.028772 -4.668513 1.749866 0
M  V30 4 O -0.002977 -4.297479 0.447684 0
M  V30 5 C 0.037034 -3.180859 -0.286709 0
M  V30 6 C -0.067573 -3.637822 -1.618835 0
M  V30 7 N -0.064297 -2.785884 -2.696040 0
M  V30 8 C 0.042845 -1.451885 -2.488543 0
M  V30 9 C 0.148191 -0.948706 -1.209793 0
M  V30 10 C 0.265676 0.473393 -0.928082 0
M  V30 11 C 0.371492 1.073684 0.233848 0
M  V30 12 C 0.486438 2.512000 0.446688 0
M  V30 13 C 0.500941 3.460665 -0.550455 0
M  V30 14 C 0.611311 4.813466 -0.308064 0
M  V30 15 N 0.711217 5.250314 0.962746 0
M  V30 16 C 0.702577 4.360432 1.990171 0
M  V30 17 C 0.591438 3.013407 1.725801 0
M  V30 18 C 0.143434 -1.816468 -0.144088 0
M  V30 19 H -1.922890 -2.451877 2.103423 0
M  V30 20 H -1.529999 -2.538158 3.751843 0
M  V30 21 H -0.961972 -4.642319 3.691187 0
M  V30 22 H -2.064390 -4.611514 2.294279 0
M  V30 23 H 0.981962 -4.408389 2.292346 0
M  V30 24 H 0.061397 -5.809076 1.781438 0
M  V30 25 H -0.164072 -4.643265 -2.067713 0
M  V30 26 H 0.053503 -0.715335 -3.270520 0
M  V30 27 H 0.266138 1.128563 -1.793891 0
M  V30 28 H 0.370986 0.422107 1.094482 0
M  V30 29 H 0.422262 3.135515 -1.576530 0
M  V30 30 H 0.616270 5.507152 -1.141953 0
M  V30 31 H 0.783885 4.713161 3.028169 0
M  V30 32 H 0.590111 2.346943 2.590657 0
M  V30 33 H 0.227715 -1.576119 0.882141 0
M  V30 END ATOM
M  V30 BEGIN BOND
M  V30 1 1 1 2
M  V30 2 1 2 3
M  V30 3 1 3 4
M  V30 4 1 4 5
M  V30 5 2 5 6
M  V30 6 1 6 7
M  V30 7 2 7 8
M  V30 8 1 8 9
M  V30 9 1 9 10
M  V30 10 2 10 11
M  V30 11 1 11 12
M  V30 12 2 12 13
M  V30 13 1 13 14
M  V30 14 2 14 15
M  V30 15 1 15 16
M  V30 16 2 16 17
M  V30 17 2 9 18
M  V30 18 1 18 5
M  V30 19 1 17 12
M  V30 20 1 1 19
M  V30 21 1 1 20
M  V30 22 1 2 21
M  V30 23 1 2 22
M  V30 24 1 3 23
M  V30 25 1 3 24
M  V30 26 1 6 25
M  V30 27 1 8 26
M  V30 28 1 10 27
M  V30 29 1 11 28
M  V30 30 1 13 29
M  V30 31 1 14 30
M  V30 32 1 16 31
M  V30 33 1 17 32
M  V30 34 1 18 33
M  V30 END BOND
M  V30 END CTAB
M  END
>  <Dataset>  (564) 
ChEMBL_Kinases

>  <Ligand_Instance>  (564) 
nan

>  <PDB_ID>  (564) 
nan

>  <Standardized_SMILES>  (564) 
NCCOc1cncc(/C=C/c2ccncc2)c1

>  <Name>  (564) 
nan

>  <Pocket>  (564) 
nan

>  <ATP_Site>  (564) 
nan

>  <Peripheral>  (564) 
nan

>  <Num_H_Atoms_ProtBoundConf>  (564) 
nan

>  <Num_Resolved_Atoms>  (564) 
nan

>  <Num_Not_Resolved_Atoms>  (564) 
nan

$$$$
CHEMBL2063990
     RDKit          3D

  0  0  0  0  0  0  0  0  0  0999 V3000
M  V30 BEGIN CTAB
M  V30 COUNTS 69 71 0 0 0
M  V30 BEGIN ATOM
M  V30 1 C -1.577864 0.589938 5.678578 0
M  V30 2 O -0.677726 -0.486298 5.557240 0
M  V30 3 C -0.065059 -0.823131 4.393778 0
M  V30 4 C -0.248630 -0.205393 3.186617 0
M  V30 5 C 0.394449 -0.578570 2.037904 0
M  V30 6 C 0.352800 -0.050306 0.704558 0
M  V30 7 C 0.373800 -0.554738 -0.527632 0
M  V30 8 C 0.310419 0.494946 -1.505953 0
M  V30 9 O 0.334980 0.432809 -2.740700 0
M  V30 10 C 0.211783 1.809064 -1.785735 0
M  V30 11 C 0.128313 2.995464 -2.261854 0
M  V30 12 C 0.006059 4.365083 -1.787489 0
M  V30 13 C 0.005468 4.575830 -0.430738 0
M  V30 14 C -0.145030 5.903726 -0.090996 0
M  V30 15 C -0.279350 6.935535 -1.031228 0
M  V30 16 C -0.268175 6.639991 -2.393790 0
M  V30 17 O -0.389574 7.487463 -3.482427 0
M  V30 18 C -0.564536 8.888559 -3.183670 0
M  V30 19 C -0.117790 5.301251 -2.785558 0
M  V30 20 O -0.099040 4.929237 -4.126307 0
M  V30 21 C 1.086213 4.877792 -4.892980 0
M  V30 22 C 0.291745 -1.868518 -1.219278 0
M  V30 23 O 0.473237 -1.695729 -2.499990 0
M  V30 24 C 0.093484 -3.282062 -1.087608 0
M  V30 25 C -0.188459 -4.131999 -0.071033 0
M  V30 26 C -0.343494 -5.561530 -0.208257 0
M  V30 27 C -0.098351 -6.294677 -1.346141 0
M  V30 28 C -0.342733 -7.674182 -1.332122 0
M  V30 29 C -0.828551 -8.328005 -0.206554 0
M  V30 30 C -1.059333 -7.559339 0.901433 0
M  V30 31 O -1.547160 -8.232108 2.029882 0
M  V30 32 C -1.804141 -9.618630 2.057319 0
M  V30 33 C -0.825897 -6.173148 0.936472 0
M  V30 34 O -1.142179 -5.657776 2.157136 0
M  V30 35 C -0.368221 -5.523222 3.304443 0
M  V30 36 C 1.257876 -1.647160 2.210262 0
M  V30 37 C 1.535809 -2.367693 3.387419 0
M  V30 38 C 0.798249 -1.876977 4.499766 0
M  V30 39 O 1.066285 -2.597311 5.686380 0
M  V30 40 H -2.560203 0.428417 5.222312 0
M  V30 41 H -1.621298 0.851313 6.773278 0
M  V30 42 H -1.028814 1.450868 5.211587 0
M  V30 43 H -0.933612 0.632772 3.074142 0
M  V30 44 H 0.291504 0.983507 0.906569 0
M  V30 45 H 0.170221 2.087539 -0.694884 0
M  V30 46 H 0.177772 2.655748 -3.310087 0
M  V30 47 H 0.112329 3.853356 0.337625 0
M  V30 48 H -0.163167 6.303873 0.904776 0
M  V30 49 H -0.398861 7.996378 -0.896746 0
M  V30 50 H -1.568262 9.118188 -2.834000 0
M  V30 51 H 0.201766 9.252733 -2.475747 0
M  V30 52 H -0.402456 9.486505 -4.123176 0
M  V30 53 H 1.196483 5.722268 -5.596898 0
M  V30 54 H 1.994274 4.881355 -4.253997 0
M  V30 55 H 1.034822 3.949099 -5.507004 0
M  V30 56 H 0.167081 -3.896404 -1.968856 0
M  V30 57 H -0.295931 -3.576437 0.854100 0
M  V30 58 H 0.275530 -5.828477 -2.227100 0
M  V30 59 H -0.129123 -8.202547 -2.268607 0
M  V30 60 H -1.008151 -9.392237 -0.232734 0
M  V30 61 H -1.992408 -9.914897 3.134664 0
M  V30 62 H -1.006021 -10.241394 1.632764 0
M  V30 63 H -2.745337 -9.892874 1.528200 0
M  V30 64 H -0.373124 -4.449780 3.625035 0
M  V30 65 H -0.840319 -6.082346 4.178703 0
M  V30 66 H 0.650898 -5.916068 3.244016 0
M  V30 67 H 1.853028 -2.059287 1.368508 0
M  V30 68 H 2.208553 -3.184443 3.449660 0
M  V30 69 H 0.601987 -2.260691 6.517074 0
M  V30 END ATOM
M  V30 BEGIN BOND
M  V30 1 1 1 2
M  V30 2 1 2 3
M  V30 3 2 3 4
M  V30 4 1 4 5
M  V30 5 1 5 6
M  V30 6 2 6 7 CFG=2
M  V30 7 1 7 8
M  V30 8 2 8 9
M  V30 9 1 8 10
M  V30 10 2 10 11
M  V30 11 1 11 12
M  V30 12 2 12 13
M  V30 13 1 13 14
M  V30 14 2 14 15
M  V30 15 1 15 16
M  V30 16 1 16 17
M  V30 17 1 17 18
M  V30 18 2 16 19
M  V30 19 1 19 20
M  V30 20 1 20 21
M  V30 21 1 7 22
M  V30 22 2 22 23
M  V30 23 1 22 24
M  V30 24 2 24 25
M  V30 25 1 25 26
M  V30 26 2 26 27
M  V30 27 1 27 28
M  V30 28 2 28 29
M  V30 29 1 29 30
M  V30 30 1 30 31
M  V30 31 1 31 32
M  V30 32 2 30 33
M  V30 33 1 33 34
M  V30 34 1 34 35
M  V30 35 2 5 36
M  V30 36 1 36 37
M  V30 37 2 37 38
M  V30 38 1 38 39
M  V30 39 1 38 3
M  V30 40 1 19 12
M  V30 41 1 33 26
M  V30 42 1 1 40
M  V30 43 1 1 41
M  V30 44 1 1 42
M  V30 45 1 4 43
M  V30 46 1 6 44
M  V30 47 1 10 45
M  V30 48 1 11 46
M  V30 49 1 13 47
M  V30 50 1 14 48
M  V30 51 1 15 49
M  V30 52 1 18 50
M  V30 53 1 18 51
M  V30 54 1 18 52
M  V30 55 1 21 53
M  V30 56 1 21 54
M  V30 57 1 21 55
M  V30 58 1 24 56
M  V30 59 1 25 57
M  V30 60 1 27 58
M  V30 61 1 28 59
M  V30 62 1 29 60
M  V30 63 1 32 61
M  V30 64 1 32 62
M  V30 65 1 32 63
M  V30 66 1 35 64
M  V30 67 1 35 65
M  V30 68 1 35 66
M  V30 69 1 36 67
M  V30 70 1 37 68
M  V30 71 1 39 69
M  V30 END BOND
M  V30 END CTAB
M  END
>  <Dataset>  (565) 
ChEMBL_Kinases

>  <Ligand_Instance>  (565) 
nan

>  <PDB_ID>  (565) 
nan

>  <Standardized_SMILES>  (565) 
COc1cc(C=C(C(=O)/C=C/c2cccc(OC)c2OC)C(=O)/C=C/c2cccc(OC)c2OC)ccc1O

>  <Name>  (565) 
nan

>  <Pocket>  (565) 
nan

>  <ATP_Site>  (565) 
nan

>  <Peripheral>  (565) 
nan

>  <Num_H_Atoms_ProtBoundConf>  (565) 
nan

>  <Num_Resolved_Atoms>  (565) 
nan

>  <Num_Not_Resolved_Atoms>  (565) 
nan

$$$$
CHEMBL2064002
     RDKit          3D

  0  0  0  0  0  0  0  0  0  0999 V3000
M  V30 BEGIN CTAB
M  V30 COUNTS 69 71 0 0 0
M  V30 BEGIN ATOM
M  V30 1 C 2.140957 -8.705281 -3.751832 0
M  V30 2 O 1.499624 -7.512020 -3.415157 0
M  V30 3 C 1.980630 -6.619085 -2.469053 0
M  V30 4 C 3.149993 -6.975738 -1.863327 0
M  V30 5 C 3.689971 -6.145626 -0.916728 0
M  V30 6 C 3.062488 -4.974248 -0.584808 0
M  V30 7 O 3.634836 -4.142053 0.386546 0
M  V30 8 C 4.839584 -4.464065 1.040941 0
M  V30 9 C 1.881464 -4.566022 -1.164365 0
M  V30 10 C 1.176572 -3.340141 -0.851777 0
M  V30 11 C 0.058058 -2.835235 -1.322522 0
M  V30 12 C -0.621588 -1.604049 -0.988474 0
M  V30 13 O -1.602491 -1.776755 -1.808611 0
M  V30 14 C -0.800165 -0.354744 -0.288407 0
M  V30 15 C -1.885178 0.363923 -0.536086 0
M  V30 16 C -3.113852 0.349366 -1.351840 0
M  V30 17 C -3.522636 1.296417 -2.289187 0
M  V30 18 C -4.715021 1.182277 -2.961523 0
M  V30 19 Br -5.137649 2.552753 -4.212052 0
M  V30 20 C -5.514189 0.105049 -2.694168 0
M  V30 21 O -6.698737 0.066298 -3.416488 0
M  V30 22 C -5.166919 -0.864924 -1.777912 0
M  V30 23 O -6.092823 -1.886871 -1.629928 0
M  V30 24 C -5.794609 -2.913838 -0.703722 0
M  V30 25 C -3.970827 -0.723064 -1.122983 0
M  V30 26 C 0.091109 0.213655 0.668287 0
M  V30 27 O 1.072663 -0.565476 0.807431 0
M  V30 28 C 0.432432 1.253750 1.569866 0
M  V30 29 C -0.120929 2.386510 1.941608 0
M  V30 30 C 0.214318 3.449092 2.853921 0
M  V30 31 C -0.691253 4.521099 2.954358 0
M  V30 32 C -0.529214 5.610789 3.769883 0
M  V30 33 O -1.440214 6.629785 3.832297 0
M  V30 34 C -1.205010 7.713015 4.691845 0
M  V30 35 C 0.615076 5.618197 4.528790 0
M  V30 36 C 1.556827 4.625021 4.503495 0
M  V30 37 C 1.325124 3.566701 3.662482 0
M  V30 38 O 2.249198 2.574618 3.626244 0
M  V30 39 C 3.404025 2.631500 4.424373 0
M  V30 40 C 1.367032 -5.445505 -2.125609 0
M  V30 41 H 2.289846 -9.265084 -2.790312 0
M  V30 42 H 1.428822 -9.306754 -4.358929 0
M  V30 43 H 3.078904 -8.580799 -4.310007 0
M  V30 44 H 3.715616 -7.868343 -2.053052 0
M  V30 45 H 4.613035 -6.374464 -0.403238 0
M  V30 46 H 5.665783 -4.670346 0.351347 0
M  V30 47 H 5.067599 -3.605867 1.709943 0
M  V30 48 H 4.699941 -5.354449 1.682381 0
M  V30 49 H 1.719388 -2.808793 -0.099004 0
M  V30 50 H -0.233233 -3.586904 -2.038257 0
M  V30 51 H -2.109292 1.283863 -0.069291 0
M  V30 52 H -2.795920 2.101691 -2.406750 0
M  V30 53 H -7.317733 0.867875 -3.347578 0
M  V30 54 H -5.564688 -2.454610 0.263946 0
M  V30 55 H -6.686286 -3.570426 -0.594282 0
M  V30 56 H -4.960073 -3.550520 -1.080525 0
M  V30 57 H -3.854782 -1.565435 -0.421766 0
M  V30 58 H 1.348723 1.266242 2.182434 0
M  V30 59 H -1.062473 2.514681 1.403325 0
M  V30 60 H -1.622809 4.563364 2.368052 0
M  V30 61 H -0.955234 7.364256 5.722205 0
M  V30 62 H -2.179009 8.265905 4.824169 0
M  V30 63 H -0.493818 8.462280 4.305578 0
M  V30 64 H 0.791055 6.454891 5.188897 0
M  V30 65 H 2.450304 4.657441 5.113430 0
M  V30 66 H 4.048628 1.750229 4.140548 0
M  V30 67 H 3.212144 2.676092 5.512390 0
M  V30 68 H 4.032935 3.535089 4.175474 0
M  V30 69 H 0.462789 -5.301957 -2.682612 0
M  V30 END ATOM
M  V30 BEGIN BOND
M  V30 1 1 1 2
M  V30 2 1 2 3
M  V30 3 2 3 4
M  V30 4 1 4 5
M  V30 5 2 5 6
M  V30 6 1 6 7
M  V30 7 1 7 8
M  V30 8 1 6 9
M  V30 9 1 9 10
M  V30 10 2 10 11
M  V30 11 1 11 12
M  V30 12 2 12 13
M  V30 13 1 12 14
M  V30 14 2 14 15 CFG=2
M  V30 15 1 15 16
M  V30 16 2 16 17
M  V30 17 1 17 18
M  V30 18 1 18 19
M  V30 19 2 18 20
M  V30 20 1 20 21
M  V30 21 1 20 22
M  V30 22 1 22 23
M  V30 23 1 23 24
M  V30 24 2 22 25
M  V30 25 1 14 26
M  V30 26 2 26 27
M  V30 27 1 26 28
M  V30 28 2 28 29
M  V30 29 1 29 30
M  V30 30 2 30 31
M  V30 31 1 31 32
M  V30 32 1 32 33
M  V30 33 1 33 34
M  V30 34 2 32 35
M  V30 35 1 35 36
M  V30 36 2 36 37
M  V30 37 1 37 38
M  V30 38 1 38 39
M  V30 39 2 9 40
M  V30 40 1 40 3
M  V30 41 1 25 16
M  V30 42 1 37 30
M  V30 43 1 1 41
M  V30 44 1 1 42
M  V30 45 1 1 43
M  V30 46 1 4 44
M  V30 47 1 5 45
M  V30 48 1 8 46
M  V30 49 1 8 47
M  V30 50 1 8 48
M  V30 51 1 10 49
M  V30 52 1 11 50
M  V30 53 1 15 51
M  V30 54 1 17 52
M  V30 55 1 21 53
M  V30 56 1 24 54
M  V30 57 1 24 55
M  V30 58 1 24 56
M  V30 59 1 25 57
M  V30 60 1 28 58
M  V30 61 1 29 59
M  V30 62 1 31 60
M  V30 63 1 34 61
M  V30 64 1 34 62
M  V30 65 1 34 63
M  V30 66 1 35 64
M  V30 67 1 36 65
M  V30 68 1 39 66
M  V30 69 1 39 67
M  V30 70 1 39 68
M  V30 71 1 40 69
M  V30 END BOND
M  V30 END CTAB
M  END
>  <Dataset>  (566) 
ChEMBL_Kinases

>  <Ligand_Instance>  (566) 
nan

>  <PDB_ID>  (566) 
nan

>  <Standardized_SMILES>  (566) 
COc1ccc(OC)c(/C=C/C(=O)C(=Cc2cc(Br)c(O)c(OC)c2)C(=O)/C=C/c2cc(OC)ccc2OC)c1

>  <Name>  (566) 
nan

>  <Pocket>  (566) 
nan

>  <ATP_Site>  (566) 
nan

>  <Peripheral>  (566) 
nan

>  <Num_H_Atoms_ProtBoundConf>  (566) 
nan

>  <Num_Resolved_Atoms>  (566) 
nan

>  <Num_Not_Resolved_Atoms>  (566) 
nan

$$$$
CHEMBL2064009
     RDKit          3D

  0  0  0  0  0  0  0  0  0  0999 V3000
M  V30 BEGIN CTAB
M  V30 COUNTS 69 71 0 0 0
M  V30 BEGIN ATOM
M  V30 1 C 9.512469 -1.541610 4.197285 0
M  V30 2 O 9.291035 -0.734156 3.057666 0
M  V30 3 C 7.991539 -0.646821 2.571256 0
M  V30 4 C 7.721935 0.140248 1.445151 0
M  V30 5 C 6.391138 0.181072 1.011722 0
M  V30 6 C 5.351613 -0.487934 1.607454 0
M  V30 7 C 4.031275 -0.355177 1.056658 0
M  V30 8 C 3.608461 0.334005 0.021490 0
M  V30 9 C 2.265784 0.430255 -0.486865 0
M  V30 10 O 2.598485 1.226617 -1.452290 0
M  V30 11 C 0.837175 0.191807 -0.573935 0
M  V30 12 C 0.229484 0.804367 -1.562094 0
M  V30 13 C -0.887424 1.167877 -2.368424 0
M  V30 14 C -1.511882 0.039731 -2.923461 0
M  V30 15 C -2.642767 0.112161 -3.709152 0
M  V30 16 C -3.113979 1.386580 -3.907392 0
M  V30 17 O -4.245384 1.576072 -4.680787 0
M  V30 18 C -4.938191 0.498504 -5.277663 0
M  V30 19 C -2.563537 2.537487 -3.402335 0
M  V30 20 O -3.024643 3.825244 -3.592015 0
M  V30 21 C -1.428284 2.407902 -2.619990 0
M  V30 22 C 0.094192 -0.600248 0.386876 0
M  V30 23 O 0.856934 -1.131070 1.202432 0
M  V30 24 C -1.154779 -1.089625 0.876582 0
M  V30 25 C -2.387769 -0.867834 0.465312 0
M  V30 26 C -3.663212 -1.361803 0.954125 0
M  V30 27 C -3.789012 -2.212957 2.017521 0
M  V30 28 C -4.976826 -2.704910 2.512421 0
M  V30 29 C -6.143143 -2.302011 1.877420 0
M  V30 30 O -7.373119 -2.734920 2.293263 0
M  V30 31 C -7.579631 -3.613207 3.382465 0
M  V30 32 C -6.053144 -1.457620 0.818612 0
M  V30 33 C -4.848351 -0.992784 0.359795 0
M  V30 34 O -4.829345 -0.135878 -0.722604 0
M  V30 35 C -6.019981 0.269170 -1.362694 0
M  V30 36 C 5.670377 -1.246564 2.709541 0
M  V30 37 O 4.640752 -1.935315 3.334354 0
M  V30 38 C 4.958203 -2.717492 4.467183 0
M  V30 39 C 6.961612 -1.320506 3.175994 0
M  V30 40 H 10.587485 -1.605370 4.459513 0
M  V30 41 H 8.872498 -1.260960 5.054310 0
M  V30 42 H 9.221389 -2.599502 3.962654 0
M  V30 43 H 8.568752 0.636666 1.024608 0
M  V30 44 H 6.375285 0.835820 0.134085 0
M  V30 45 H 3.335096 -0.936201 1.630812 0
M  V30 46 H 4.507633 0.795971 -0.336459 0
M  V30 47 H 0.908027 1.396367 -2.216958 0
M  V30 48 H -1.162981 -1.000515 -2.786966 0
M  V30 49 H -3.128371 -0.751792 -4.139419 0
M  V30 50 H -5.112591 -0.352900 -4.584151 0
M  V30 51 H -5.975133 0.860613 -5.531581 0
M  V30 52 H -4.482598 0.177903 -6.230925 0
M  V30 53 H -3.502327 4.031787 -4.445541 0
M  V30 54 H -0.872744 3.195879 -2.149459 0
M  V30 55 H -1.327783 -1.773882 1.724010 0
M  V30 56 H -2.465600 -0.185040 -0.369403 0
M  V30 57 H -2.938696 -2.578300 2.571833 0
M  V30 58 H -5.062596 -3.376878 3.353694 0
M  V30 59 H -6.960559 -3.318175 4.261323 0
M  V30 60 H -7.306481 -4.619566 3.046326 0
M  V30 61 H -8.660859 -3.595767 3.611207 0
M  V30 62 H -6.965685 -1.142201 0.321765 0
M  V30 63 H -5.745113 0.843595 -2.294275 0
M  V30 64 H -6.539259 1.003262 -0.715484 0
M  V30 65 H -6.632440 -0.609934 -1.616971 0
M  V30 66 H 5.814651 -3.390259 4.258867 0
M  V30 67 H 4.086158 -3.387112 4.725007 0
M  V30 68 H 5.137399 -2.123899 5.385755 0
M  V30 69 H 7.198220 -1.914045 4.035271 0
M  V30 END ATOM
M  V30 BEGIN BOND
M  V30 1 1 1 2
M  V30 2 1 2 3
M  V30 3 2 3 4
M  V30 4 1 4 5
M  V30 5 2 5 6
M  V30 6 1 6 7
M  V30 7 2 7 8
M  V30 8 1 8 9
M  V30 9 2 9 10
M  V30 10 1 9 11
M  V30 11 2 11 12 CFG=2
M  V30 12 1 12 13
M  V30 13 2 13 14
M  V30 14 1 14 15
M  V30 15 2 15 16
M  V30 16 1 16 17
M  V30 17 1 17 18
M  V30 18 1 16 19
M  V30 19 1 19 20
M  V30 20 2 19 21
M  V30 21 1 11 22
M  V30 22 2 22 23
M  V30 23 1 22 24
M  V30 24 2 24 25
M  V30 25 1 25 26
M  V30 26 2 26 27
M  V30 27 1 27 28
M  V30 28 2 28 29
M  V30 29 1 29 30
M  V30 30 1 30 31
M  V30 31 1 29 32
M  V30 32 2 32 33
M  V30 33 1 33 34
M  V30 34 1 34 35
M  V30 35 1 6 36
M  V30 36 1 36 37
M  V30 37 1 37 38
M  V30 38 2 36 39
M  V30 39 1 39 3
M  V30 40 1 21 13
M  V30 41 1 33 26
M  V30 42 1 1 40
M  V30 43 1 1 41
M  V30 44 1 1 42
M  V30 45 1 4 43
M  V30 46 1 5 44
M  V30 47 1 7 45
M  V30 48 1 8 46
M  V30 49 1 12 47
M  V30 50 1 14 48
M  V30 51 1 15 49
M  V30 52 1 18 50
M  V30 53 1 18 51
M  V30 54 1 18 52
M  V30 55 1 20 53
M  V30 56 1 21 54
M  V30 57 1 24 55
M  V30 58 1 25 56
M  V30 59 1 27 57
M  V30 60 1 28 58
M  V30 61 1 31 59
M  V30 62 1 31 60
M  V30 63 1 31 61
M  V30 64 1 32 62
M  V30 65 1 35 63
M  V30 66 1 35 64
M  V30 67 1 35 65
M  V30 68 1 38 66
M  V30 69 1 38 67
M  V30 70 1 38 68
M  V30 71 1 39 69
M  V30 END BOND
M  V30 END CTAB
M  END
>  <Dataset>  (567) 
ChEMBL_Kinases

>  <Ligand_Instance>  (567) 
nan

>  <PDB_ID>  (567) 
nan

>  <Standardized_SMILES>  (567) 
COc1ccc(/C=C/C(=O)C(=Cc2ccc(OC)c(O)c2)C(=O)/C=C/c2ccc(OC)cc2OC)c(OC)c1

>  <Name>  (567) 
nan

>  <Pocket>  (567) 
nan

>  <ATP_Site>  (567) 
nan

>  <Peripheral>  (567) 
nan

>  <Num_H_Atoms_ProtBoundConf>  (567) 
nan

>  <Num_Resolved_Atoms>  (567) 
nan

>  <Num_Not_Resolved_Atoms>  (567) 
nan

$$$$
CHEMBL2064533
     RDKit          3D

  0  0  0  0  0  0  0  0  0  0999 V3000
M  V30 BEGIN CTAB
M  V30 COUNTS 45 49 0 0 0
M  V30 BEGIN ATOM
M  V30 1 N 0.884619 -2.266604 0.460102 0
M  V30 2 C 1.288980 -1.835093 -0.529733 0
M  V30 3 C 1.775208 -1.309307 -1.775499 0
M  V30 4 C 2.015976 -2.250882 -2.780369 0
M  V30 5 C 2.485499 -1.839049 -4.009119 0
M  V30 6 C 2.719644 -0.482745 -4.247888 0
M  V30 7 C 2.469845 0.434414 -3.224505 0
M  V30 8 C 1.994199 0.043880 -1.971420 0
M  V30 9 C 1.727970 0.986151 -0.900010 0
M  V30 10 C 2.063557 0.868774 0.431790 0
M  V30 11 C 1.751146 1.843186 1.351565 0
M  V30 12 C 1.074209 3.005029 0.974034 0
M  V30 13 C 0.775197 4.004261 2.024921 0
M  V30 14 S -0.837852 3.725770 2.817944 0
M  V30 15 C -0.813957 2.171539 3.742780 0
M  V30 16 N -0.530782 1.673456 4.959933 0
M  V30 17 N -0.752812 0.386686 4.918144 0
M  V30 18 C -1.179007 0.027378 3.689827 0
M  V30 19 C -1.543108 -1.320327 3.207275 0
M  V30 20 C -1.953272 -1.379293 1.888257 0
M  V30 21 C -2.298610 -2.625296 1.409214 0
M  V30 22 C -2.230094 -3.745830 2.226371 0
M  V30 23 C -1.812751 -3.645258 3.546859 0
M  V30 24 C -1.457917 -2.401365 4.058052 0
M  V30 25 O -1.863899 -4.948840 4.066111 0
M  V30 26 C -1.933006 -5.857667 2.968757 0
M  V30 27 O -2.534780 -5.078408 1.925381 0
M  V30 28 O -1.201459 1.139661 3.010113 0
M  V30 29 C 0.733916 3.132018 -0.356778 0
M  V30 30 C 1.050629 2.149553 -1.275545 0
M  V30 31 H 1.842449 -3.309386 -2.621013 0
M  V30 32 H 2.663232 -2.590390 -4.769439 0
M  V30 33 H 3.089744 -0.155395 -5.216037 0
M  V30 34 H 2.654373 1.503855 -3.410276 0
M  V30 35 H 2.581367 -0.036445 0.680252 0
M  V30 36 H 2.037081 1.704177 2.391059 0
M  V30 37 H 1.527751 3.890234 2.855205 0
M  V30 38 H 0.806896 5.044531 1.670341 0
M  V30 39 H -2.004729 -0.503166 1.254851 0
M  V30 40 H -2.621535 -2.668247 0.369232 0
M  V30 41 H -1.133153 -2.320270 5.083298 0
M  V30 42 H -2.531550 -6.742619 3.174713 0
M  V30 43 H -0.911028 -6.145774 2.613313 0
M  V30 44 H 0.206780 4.033666 -0.660896 0
M  V30 45 H 0.753865 2.316433 -2.301023 0
M  V30 END ATOM
M  V30 BEGIN BOND
M  V30 1 3 1 2
M  V30 2 1 2 3
M  V30 3 2 3 4
M  V30 4 1 4 5
M  V30 5 2 5 6
M  V30 6 1 6 7
M  V30 7 2 7 8
M  V30 8 1 8 9
M  V30 9 2 9 10
M  V30 10 1 10 11
M  V30 11 2 11 12
M  V30 12 1 12 13
M  V30 13 1 13 14
M  V30 14 1 14 15
M  V30 15 2 15 16
M  V30 16 1 16 17
M  V30 17 2 17 18
M  V30 18 1 18 19
M  V30 19 2 19 20
M  V30 20 1 20 21
M  V30 21 2 21 22
M  V30 22 1 22 23
M  V30 23 2 23 24
M  V30 24 1 23 25
M  V30 25 1 25 26
M  V30 26 1 26 27
M  V30 27 1 18 28
M  V30 28 1 12 29
M  V30 29 2 29 30
M  V30 30 1 8 3
M  V30 31 1 30 9
M  V30 32 1 28 15
M  V30 33 1 24 19
M  V30 34 1 27 22
M  V30 35 1 4 31
M  V30 36 1 5 32
M  V30 37 1 6 33
M  V30 38 1 7 34
M  V30 39 1 10 35
M  V30 40 1 11 36
M  V30 41 1 13 37
M  V30 42 1 13 38
M  V30 43 1 20 39
M  V30 44 1 21 40
M  V30 45 1 24 41
M  V30 46 1 26 42
M  V30 47 1 26 43
M  V30 48 1 29 44
M  V30 49 1 30 45
M  V30 END BOND
M  V30 END CTAB
M  END
>  <Dataset>  (568) 
ChEMBL_Kinases

>  <Ligand_Instance>  (568) 
nan

>  <PDB_ID>  (568) 
nan

>  <Standardized_SMILES>  (568) 
N#Cc1ccccc1-c1ccc(CSc2nnc(-c3ccc4c(c3)OCO4)o2)cc1

>  <Name>  (568) 
nan

>  <Pocket>  (568) 
nan

>  <ATP_Site>  (568) 
nan

>  <Peripheral>  (568) 
nan

>  <Num_H_Atoms_ProtBoundConf>  (568) 
nan

>  <Num_Resolved_Atoms>  (568) 
nan

>  <Num_Not_Resolved_Atoms>  (568) 
nan

$$$$
CHEMBL2063453
     RDKit          3D

  0  0  0  0  0  0  0  0  0  0999 V3000
M  V30 BEGIN CTAB
M  V30 COUNTS 52 55 0 0 0
M  V30 BEGIN ATOM
M  V30 1 N 1.529365 -0.801758 0.169221 0
M  V30 2 C 2.673208 -1.231055 0.887820 0
M  V30 3 N 3.115294 -2.525285 0.515387 0
M  V30 4 S 4.534181 -2.852621 1.524941 0
M  V30 5 C 4.459172 -1.233350 2.394706 0
M  V30 6 C 5.302001 -0.707174 3.409543 0
M  V30 7 C 5.008270 0.546541 3.883969 0
M  V30 8 C 3.934428 1.156702 3.328891 0
M  V30 9 C 3.081944 0.703135 2.347670 0
M  V30 10 C 1.960789 1.486784 1.852730 0
M  V30 11 O 0.986135 0.907266 2.403121 0
M  V30 12 N 1.881819 2.597481 0.996836 0
M  V30 13 C 0.492843 2.962580 0.854680 0
M  V30 14 C -0.132070 3.863051 1.695941 0
M  V30 15 C -1.460011 4.115142 1.440496 0
M  V30 16 C -2.098437 3.484701 0.393407 0
M  V30 17 C -1.475312 2.580453 -0.453197 0
M  V30 18 C -2.336169 2.018364 -1.517557 0
M  V30 19 N -3.044987 0.836688 -1.145839 0
M  V30 20 C -2.462849 -0.441535 -1.060594 0
M  V30 21 O -1.261574 -0.536487 -1.328507 0
M  V30 22 N -3.164077 -1.609025 -0.690815 0
M  V30 23 C -2.705759 -2.942428 -0.567050 0
M  V30 24 C -3.581340 -3.936331 -0.185338 0
M  V30 25 C -3.228588 -5.237626 -0.042342 0
M  V30 26 C -1.958242 -5.659179 -0.271146 0
M  V30 27 C -1.509987 -7.064618 -0.132714 0
M  V30 28 F -2.582869 -7.920051 -0.144647 0
M  V30 29 F -0.803892 -7.290603 1.035244 0
M  V30 30 F -0.712874 -7.359776 -1.235202 0
M  V30 31 C -1.044789 -4.712559 -0.653614 0
M  V30 32 C -1.432770 -3.407647 -0.788879 0
M  V30 33 C -0.157460 2.330668 -0.199349 0
M  V30 34 C 3.348116 -0.543585 1.853922 0
M  V30 35 H 0.635183 -1.134834 0.595018 0
M  V30 36 H 1.929956 -0.238688 -0.632721 0
M  V30 37 H 6.102253 -1.345678 3.717291 0
M  V30 38 H 5.637588 0.940877 4.642401 0
M  V30 39 H 3.699581 2.165949 3.712152 0
M  V30 40 H 2.846510 2.861235 0.693317 0
M  V30 41 H 0.464627 4.290652 2.475711 0
M  V30 42 H -1.967663 4.819087 2.090087 0
M  V30 43 H -3.139174 3.755372 0.283095 0
M  V30 44 H -3.088569 2.787939 -1.842701 0
M  V30 45 H -1.692421 1.878100 -2.412893 0
M  V30 46 H -4.081564 0.900359 -0.912695 0
M  V30 47 H -4.173744 -1.425695 -0.483426 0
M  V30 48 H -4.624722 -3.671561 0.016865 0
M  V30 49 H -3.968365 -5.963104 0.260423 0
M  V30 50 H -0.024225 -5.015787 -0.843608 0
M  V30 51 H -0.667369 -2.712723 -1.092187 0
M  V30 52 H 0.322947 1.635096 -0.854175 0
M  V30 END ATOM
M  V30 BEGIN BOND
M  V30 1 1 1 2
M  V30 2 2 2 3
M  V30 3 1 3 4
M  V30 4 1 4 5
M  V30 5 2 5 6
M  V30 6 1 6 7
M  V30 7 2 7 8
M  V30 8 1 8 9
M  V30 9 1 9 10
M  V30 10 2 10 11
M  V30 11 1 10 12
M  V30 12 1 12 13
M  V30 13 2 13 14
M  V30 14 1 14 15
M  V30 15 2 15 16
M  V30 16 1 16 17
M  V30 17 1 17 18
M  V30 18 1 18 19
M  V30 19 1 19 20
M  V30 20 2 20 21
M  V30 21 1 20 22
M  V30 22 1 22 23
M  V30 23 2 23 24
M  V30 24 1 24 25
M  V30 25 2 25 26
M  V30 26 1 26 27
M  V30 27 1 27 28
M  V30 28 1 27 29
M  V30 29 1 27 30
M  V30 30 1 26 31
M  V30 31 2 31 32
M  V30 32 2 17 33
M  V30 33 2 9 34
M  V30 34 1 34 2
M  V30 35 1 34 5
M  V30 36 1 33 13
M  V30 37 1 32 23
M  V30 38 1 1 35
M  V30 39 1 1 36
M  V30 40 1 6 37
M  V30 41 1 7 38
M  V30 42 1 8 39
M  V30 43 1 12 40
M  V30 44 1 14 41
M  V30 45 1 15 42
M  V30 46 1 16 43
M  V30 47 1 18 44
M  V30 48 1 18 45
M  V30 49 1 19 46
M  V30 50 1 22 47
M  V30 51 1 24 48
M  V30 52 1 25 49
M  V30 53 1 31 50
M  V30 54 1 32 51
M  V30 55 1 33 52
M  V30 END BOND
M  V30 END CTAB
M  END
>  <Dataset>  (569) 
ChEMBL_Kinases

>  <Ligand_Instance>  (569) 
nan

>  <PDB_ID>  (569) 
nan

>  <Standardized_SMILES>  (569) 
Nc1nsc2cccc(C(=O)Nc3cccc(CNC(=O)Nc4ccc(C(F)(F)F)cc4)c3)c12

>  <Name>  (569) 
nan

>  <Pocket>  (569) 
nan

>  <ATP_Site>  (569) 
nan

>  <Peripheral>  (569) 
nan

>  <Num_H_Atoms_ProtBoundConf>  (569) 
nan

>  <Num_Resolved_Atoms>  (569) 
nan

>  <Num_Not_Resolved_Atoms>  (569) 
nan

$$$$
CHEMBL2070489
     RDKit          3D

  0  0  0  0  0  0  0  0  0  0999 V3000
M  V30 BEGIN CTAB
M  V30 COUNTS 53 56 0 0 0
M  V30 BEGIN ATOM
M  V30 1 C -0.568352 3.002762 8.973281 0
M  V30 2 C -0.731912 2.104196 7.778620 0
M  V30 3 O -0.199946 2.686484 6.603862 0
M  V30 4 C -0.228717 2.058069 5.376734 0
M  V30 5 C -0.791993 0.823081 5.283512 0
M  V30 6 C -0.833973 0.173850 4.071892 0
M  V30 7 C -0.323649 0.710604 2.897740 0
M  V30 8 C -0.444347 -0.091657 1.713510 0
M  V30 9 C -0.040708 0.162486 0.438667 0
M  V30 10 C -0.193533 -0.660067 -0.642076 0
M  V30 11 C 0.301206 -0.245310 -1.982204 0
M  V30 12 C 0.921997 0.775220 -2.586465 0
M  V30 13 N 1.160964 0.680399 -3.869364 0
M  V30 14 C 0.864938 -0.269812 -4.579608 0
M  V30 15 N 1.113046 -0.406051 -5.992879 0
M  V30 16 C 2.385451 -1.019621 -6.187242 0
M  V30 17 C 2.504015 -2.393176 -5.575646 0
M  V30 18 C 2.791184 -1.125442 -7.644884 0
M  V30 19 S 0.056864 -1.404467 -3.375741 0
M  V30 20 N -0.795798 -1.822937 -0.426675 0
M  V30 21 C -1.233028 -2.158280 0.825097 0
M  V30 22 C -1.888053 -3.436691 1.029505 0
M  V30 23 C -2.314830 -3.738967 2.305456 0
M  V30 24 C -2.941963 -4.977694 2.469234 0
M  V30 25 C -3.084326 -5.792330 1.357576 0
M  V30 26 C -2.644195 -5.461432 0.082970 0
M  V30 27 N -2.047936 -4.259987 -0.021700 0
M  V30 28 N -1.031754 -1.277079 1.813386 0
M  V30 29 C 0.220639 1.950240 3.087740 0
M  V30 30 Cl 0.908421 2.771697 1.712656 0
M  V30 31 C 0.297526 2.652738 4.254877 0
M  V30 32 H -0.575779 4.077495 8.700805 0
M  V30 33 H -1.353150 2.840520 9.740563 0
M  V30 34 H 0.432389 2.830974 9.461356 0
M  V30 35 H -0.284340 1.101838 7.982541 0
M  V30 36 H -1.820634 1.945519 7.593644 0
M  V30 37 H -1.201461 0.367686 6.172181 0
M  V30 38 H -1.313052 -0.818786 4.117597 0
M  V30 39 H 0.447981 1.089384 0.229769 0
M  V30 40 H 1.156790 1.588962 -1.893674 0
M  V30 41 H 0.433926 -0.088844 -6.739927 0
M  V30 42 H 3.166836 -0.390077 -5.703969 0
M  V30 43 H 1.622975 -3.046396 -5.799291 0
M  V30 44 H 2.757241 -2.381091 -4.494481 0
M  V30 45 H 3.361874 -2.889427 -6.084090 0
M  V30 46 H 3.891976 -1.013735 -7.789211 0
M  V30 47 H 2.231713 -0.442748 -8.288403 0
M  V30 48 H 2.561680 -2.157321 -8.033324 0
M  V30 49 H -2.187492 -3.080032 3.149667 0
M  V30 50 H -3.313096 -5.306965 3.435843 0
M  V30 51 H -3.570043 -6.736260 1.517723 0
M  V30 52 H -2.780771 -6.134527 -0.750065 0
M  V30 53 H 0.733268 3.619023 4.350518 0
M  V30 END ATOM
M  V30 BEGIN BOND
M  V30 1 1 1 2
M  V30 2 1 2 3
M  V30 3 1 3 4
M  V30 4 2 4 5
M  V30 5 1 5 6
M  V30 6 2 6 7
M  V30 7 1 7 8
M  V30 8 2 8 9
M  V30 9 1 9 10
M  V30 10 1 10 11
M  V30 11 2 11 12
M  V30 12 1 12 13
M  V30 13 2 13 14
M  V30 14 1 14 15
M  V30 15 1 15 16
M  V30 16 1 16 17
M  V30 17 1 16 18
M  V30 18 1 14 19
M  V30 19 2 10 20
M  V30 20 1 20 21
M  V30 21 1 21 22
M  V30 22 2 22 23
M  V30 23 1 23 24
M  V30 24 2 24 25
M  V30 25 1 25 26
M  V30 26 2 26 27
M  V30 27 2 21 28
M  V30 28 1 7 29
M  V30 29 1 29 30
M  V30 30 2 29 31
M  V30 31 1 31 4
M  V30 32 1 28 8
M  V30 33 1 19 11
M  V30 34 1 27 22
M  V30 35 1 1 32
M  V30 36 1 1 33
M  V30 37 1 1 34
M  V30 38 1 2 35
M  V30 39 1 2 36
M  V30 40 1 5 37
M  V30 41 1 6 38
M  V30 42 1 9 39
M  V30 43 1 12 40
M  V30 44 1 15 41
M  V30 45 1 16 42
M  V30 46 1 17 43
M  V30 47 1 17 44
M  V30 48 1 17 45
M  V30 49 1 18 46
M  V30 50 1 18 47
M  V30 51 1 18 48
M  V30 52 1 23 49
M  V30 53 1 24 50
M  V30 54 1 25 51
M  V30 55 1 26 52
M  V30 56 1 31 53
M  V30 END BOND
M  V30 END CTAB
M  END
>  <Dataset>  (570) 
ChEMBL_Kinases

>  <Ligand_Instance>  (570) 
nan

>  <PDB_ID>  (570) 
nan

>  <Standardized_SMILES>  (570) 
CCOc1ccc(-c2cc(-c3cnc(NC(C)C)s3)nc(-c3ccccn3)n2)c(Cl)c1

>  <Name>  (570) 
nan

>  <Pocket>  (570) 
nan

>  <ATP_Site>  (570) 
nan

>  <Peripheral>  (570) 
nan

>  <Num_H_Atoms_ProtBoundConf>  (570) 
nan

>  <Num_Resolved_Atoms>  (570) 
nan

>  <Num_Not_Resolved_Atoms>  (570) 
nan

$$$$
CHEMBL2070438
     RDKit          3D

  0  0  0  0  0  0  0  0  0  0999 V3000
M  V30 BEGIN CTAB
M  V30 COUNTS 66 69 0 0 0
M  V30 BEGIN ATOM
M  V30 1 C 5.030037 -2.939797 3.873462 0
M  V30 2 C 6.276847 -3.574252 3.378198 0
M  V30 3 N 6.415274 -3.507559 1.965798 0
M  V30 4 C 5.528739 -4.315053 1.227926 0
M  V30 5 C 4.104175 -3.888667 1.226603 0
M  V30 6 C 6.594797 -2.180829 1.476063 0
M  V30 7 C 6.752675 -2.052210 -0.008234 0
M  V30 8 C 6.942229 -0.618236 -0.445240 0
M  V30 9 O 5.915583 0.245855 -0.123862 0
M  V30 10 C 4.599400 0.233958 -0.500380 0
M  V30 11 C 3.805521 -0.559235 -1.294722 0
M  V30 12 C 2.465154 -0.310121 -1.484405 0
M  V30 13 C 1.875765 0.770988 -0.864340 0
M  V30 14 N 0.475871 0.883145 -1.157958 0
M  V30 15 C -0.540350 0.264734 -0.381656 0
M  V30 16 O -0.288260 -0.448518 0.650706 0
M  V30 17 C -1.894743 0.481579 -0.817925 0
M  V30 18 C -2.977080 -0.055155 -0.342585 0
M  V30 19 C -4.295768 0.253394 -0.880180 0
M  V30 20 C -4.596521 0.474886 -2.207466 0
M  V30 21 C -5.971636 0.721099 -2.171939 0
M  V30 22 C -6.432548 0.642096 -0.875095 0
M  V30 23 C -7.808355 0.834969 -0.416725 0
M  V30 24 C -8.839933 1.126393 -1.285583 0
M  V30 25 C -10.112056 1.286846 -0.744375 0
M  V30 26 C -10.375426 1.165073 0.623553 0
M  V30 27 C -9.325810 0.870881 1.492056 0
M  V30 28 C -9.584820 0.739548 2.922096 0
M  V30 29 N -8.450851 0.455678 3.752553 0
M  V30 30 O -10.786449 0.888110 3.302299 0
M  V30 31 C -8.089452 0.719569 0.929216 0
M  V30 32 O -5.369108 0.358853 -0.163249 0
M  V30 33 S -1.780969 1.664938 -2.172010 0
M  V30 34 C 0.010165 1.637923 -2.268843 0
M  V30 35 S 0.903327 2.351993 -3.421821 0
M  V30 36 C 2.618725 1.604174 -0.056110 0
M  V30 37 C 3.983197 1.330956 0.123273 0
M  V30 38 H 5.255557 -2.250754 4.760344 0
M  V30 39 H 4.269041 -3.665130 4.269416 0
M  V30 40 H 4.514018 -2.268213 3.172461 0
M  V30 41 H 6.349802 -4.647129 3.753530 0
M  V30 42 H 7.201064 -3.117421 3.868995 0
M  V30 43 H 5.522913 -5.390007 1.617350 0
M  V30 44 H 5.838064 -4.432135 0.158633 0
M  V30 45 H 3.955416 -2.805651 0.975485 0
M  V30 46 H 3.518510 -4.132744 2.108663 0
M  V30 47 H 3.562439 -4.424403 0.382659 0
M  V30 48 H 7.525083 -1.784426 1.986728 0
M  V30 49 H 5.759156 -1.488055 1.790450 0
M  V30 50 H 5.972758 -2.567581 -0.555035 0
M  V30 51 H 7.719792 -2.566759 -0.275785 0
M  V30 52 H 7.892742 -0.238993 -0.012359 0
M  V30 53 H 7.059036 -0.620057 -1.549260 0
M  V30 54 H 4.361316 -1.353921 -1.725064 0
M  V30 55 H 1.957368 -1.019143 -2.138037 0
M  V30 56 H -2.923658 -0.770589 0.494491 0
M  V30 57 H -3.912156 0.450375 -3.015681 0
M  V30 58 H -6.567224 0.941397 -3.061495 0
M  V30 59 H -8.659544 1.223675 -2.341155 0
M  V30 60 H -10.969356 1.517435 -1.372279 0
M  V30 61 H -11.383115 1.297143 0.998504 0
M  V30 62 H -8.044488 -0.484823 4.005894 0
M  V30 63 H -8.205954 1.457284 3.989172 0
M  V30 64 H -7.269069 0.491796 1.594359 0
M  V30 65 H 2.072105 2.421563 0.382984 0
M  V30 66 H 4.407816 2.094959 0.794171 0
M  V30 END ATOM
M  V30 BEGIN BOND
M  V30 1 1 1 2
M  V30 2 1 2 3
M  V30 3 1 3 4
M  V30 4 1 4 5
M  V30 5 1 3 6
M  V30 6 1 6 7
M  V30 7 1 7 8
M  V30 8 1 8 9
M  V30 9 1 9 10
M  V30 10 2 10 11
M  V30 11 1 11 12
M  V30 12 2 12 13
M  V30 13 1 13 14
M  V30 14 1 14 15
M  V30 15 2 15 16
M  V30 16 1 15 17
M  V30 17 2 17 18
M  V30 18 1 18 19
M  V30 19 2 19 20
M  V30 20 1 20 21
M  V30 21 2 21 22
M  V30 22 1 22 23
M  V30 23 2 23 24
M  V30 24 1 24 25
M  V30 25 2 25 26
M  V30 26 1 26 27
M  V30 27 1 27 28
M  V30 28 1 28 29
M  V30 29 2 28 30
M  V30 30 2 27 31
M  V30 31 1 22 32
M  V30 32 1 17 33
M  V30 33 1 33 34
M  V30 34 2 34 35
M  V30 35 1 13 36
M  V30 36 2 36 37
M  V30 37 1 37 10
M  V30 38 1 34 14
M  V30 39 1 32 19
M  V30 40 1 31 23
M  V30 41 1 1 38
M  V30 42 1 1 39
M  V30 43 1 1 40
M  V30 44 1 2 41
M  V30 45 1 2 42
M  V30 46 1 4 43
M  V30 47 1 4 44
M  V30 48 1 5 45
M  V30 49 1 5 46
M  V30 50 1 5 47
M  V30 51 1 6 48
M  V30 52 1 6 49
M  V30 53 1 7 50
M  V30 54 1 7 51
M  V30 55 1 8 52
M  V30 56 1 8 53
M  V30 57 1 11 54
M  V30 58 1 12 55
M  V30 59 1 18 56
M  V30 60 1 20 57
M  V30 61 1 21 58
M  V30 62 1 24 59
M  V30 63 1 25 60
M  V30 64 1 26 61
M  V30 65 1 29 62
M  V30 66 1 29 63
M  V30 67 1 31 64
M  V30 68 1 36 65
M  V30 69 1 37 66
M  V30 END BOND
M  V30 END CTAB
M  END
>  <Dataset>  (571) 
ChEMBL_Kinases

>  <Ligand_Instance>  (571) 
nan

>  <PDB_ID>  (571) 
nan

>  <Standardized_SMILES>  (571) 
CCN(CC)CCCOc1ccc(N2C(=O)/C(=C/c3ccc(-c4cccc(C(N)=O)c4)o3)SC2=S)cc1

>  <Name>  (571) 
nan

>  <Pocket>  (571) 
nan

>  <ATP_Site>  (571) 
nan

>  <Peripheral>  (571) 
nan

>  <Num_H_Atoms_ProtBoundConf>  (571) 
nan

>  <Num_Resolved_Atoms>  (571) 
nan

>  <Num_Not_Resolved_Atoms>  (571) 
nan

$$$$
CHEMBL2070434
     RDKit          3D

  0  0  0  0  0  0  0  0  0  0999 V3000
M  V30 BEGIN CTAB
M  V30 COUNTS 55 57 0 0 0
M  V30 BEGIN ATOM
M  V30 1 C -1.034949 4.567260 7.103468 0
M  V30 2 C -0.028777 4.474506 5.980761 0
M  V30 3 N -0.547898 3.768810 4.837620 0
M  V30 4 C -0.724138 2.381280 5.177758 0
M  V30 5 C 0.553730 1.621246 5.399088 0
M  V30 6 C 0.320345 3.968699 3.712661 0
M  V30 7 C -0.173123 3.220061 2.474026 0
M  V30 8 C 0.751825 3.467118 1.334649 0
M  V30 9 O 0.471074 2.861656 0.132703 0
M  V30 10 C 0.396200 1.572529 -0.251680 0
M  V30 11 C 0.057851 1.284320 -1.578021 0
M  V30 12 C -0.039979 -0.002665 -2.062066 0
M  V30 13 C 0.188167 -1.107354 -1.274563 0
M  V30 14 N 0.053341 -2.405135 -1.821896 0
M  V30 15 C -0.440641 -2.742926 -3.094700 0
M  V30 16 O -0.886806 -2.009727 -4.025567 0
M  V30 17 C -0.457109 -4.137279 -3.427934 0
M  V30 18 C -0.580772 -4.848640 -4.515463 0
M  V30 19 C -0.565131 -6.300579 -4.601437 0
M  V30 20 C -1.103107 -7.214292 -3.724266 0
M  V30 21 C -1.044245 -8.572004 -3.881314 0
M  V30 22 C -0.414801 -9.100869 -4.975122 0
M  V30 23 Cl -0.383696 -10.856253 -5.100650 0
M  V30 24 C 0.157525 -8.256365 -5.914746 0
M  V30 25 Cl 0.947573 -8.961060 -7.295091 0
M  V30 26 C 0.065747 -6.891128 -5.700744 0
M  V30 27 S -0.239686 -4.975332 -1.832984 0
M  V30 28 C 0.467450 -3.525431 -1.054006 0
M  V30 29 S 1.328203 -3.914777 0.217852 0
M  V30 30 C 0.520208 -0.842472 0.026730 0
M  V30 31 C 0.620827 0.435899 0.519316 0
M  V30 32 H -1.118220 5.590628 7.528485 0
M  V30 33 H -2.060602 4.237061 6.804792 0
M  V30 34 H -0.749180 3.909499 7.971305 0
M  V30 35 H 0.850584 3.946105 6.355689 0
M  V30 36 H 0.184215 5.511759 5.646742 0
M  V30 37 H -1.374844 1.853126 4.424604 0
M  V30 38 H -1.319089 2.285522 6.129373 0
M  V30 39 H 0.470218 0.902973 6.268249 0
M  V30 40 H 1.459411 2.237697 5.468441 0
M  V30 41 H 0.680128 0.937863 4.522018 0
M  V30 42 H 0.426492 5.022567 3.446339 0
M  V30 43 H 1.328516 3.567133 3.935052 0
M  V30 44 H -1.195089 3.657915 2.278796 0
M  V30 45 H -0.350186 2.160615 2.683538 0
M  V30 46 H 0.789305 4.578413 1.166989 0
M  V30 47 H 1.800028 3.193132 1.661535 0
M  V30 48 H -0.128702 2.159576 -2.224024 0
M  V30 49 H -0.307823 -0.028861 -3.108814 0
M  V30 50 H -0.706081 -4.260844 -5.428690 0
M  V30 51 H -1.606382 -6.812571 -2.858381 0
M  V30 52 H -1.501975 -9.214177 -3.130497 0
M  V30 53 H 0.535108 -6.306785 -6.478277 0
M  V30 54 H 0.710653 -1.614766 0.724413 0
M  V30 55 H 0.893389 0.586389 1.535193 0
M  V30 END ATOM
M  V30 BEGIN BOND
M  V30 1 1 1 2
M  V30 2 1 2 3
M  V30 3 1 3 4
M  V30 4 1 4 5
M  V30 5 1 3 6
M  V30 6 1 6 7
M  V30 7 1 7 8
M  V30 8 1 8 9
M  V30 9 1 9 10
M  V30 10 2 10 11
M  V30 11 1 11 12
M  V30 12 2 12 13
M  V30 13 1 13 14
M  V30 14 1 14 15
M  V30 15 2 15 16
M  V30 16 1 15 17
M  V30 17 2 17 18
M  V30 18 1 18 19
M  V30 19 2 19 20
M  V30 20 1 20 21
M  V30 21 2 21 22
M  V30 22 1 22 23
M  V30 23 1 22 24
M  V30 24 1 24 25
M  V30 25 2 24 26
M  V30 26 1 17 27
M  V30 27 1 27 28
M  V30 28 2 28 29
M  V30 29 1 13 30
M  V30 30 2 30 31
M  V30 31 1 31 10
M  V30 32 1 28 14
M  V30 33 1 26 19
M  V30 34 1 1 32
M  V30 35 1 1 33
M  V30 36 1 1 34
M  V30 37 1 2 35
M  V30 38 1 2 36
M  V30 39 1 4 37
M  V30 40 1 4 38
M  V30 41 1 5 39
M  V30 42 1 5 40
M  V30 43 1 5 41
M  V30 44 1 6 42
M  V30 45 1 6 43
M  V30 46 1 7 44
M  V30 47 1 7 45
M  V30 48 1 8 46
M  V30 49 1 8 47
M  V30 50 1 11 48
M  V30 51 1 12 49
M  V30 52 1 18 50
M  V30 53 1 20 51
M  V30 54 1 21 52
M  V30 55 1 26 53
M  V30 56 1 30 54
M  V30 57 1 31 55
M  V30 END BOND
M  V30 END CTAB
M  END
>  <Dataset>  (572) 
ChEMBL_Kinases

>  <Ligand_Instance>  (572) 
nan

>  <PDB_ID>  (572) 
nan

>  <Standardized_SMILES>  (572) 
CCN(CC)CCCOc1ccc(N2C(=O)/C(=C/c3ccc(Cl)c(Cl)c3)SC2=S)cc1

>  <Name>  (572) 
nan

>  <Pocket>  (572) 
nan

>  <ATP_Site>  (572) 
nan

>  <Peripheral>  (572) 
nan

>  <Num_H_Atoms_ProtBoundConf>  (572) 
nan

>  <Num_Resolved_Atoms>  (572) 
nan

>  <Num_Not_Resolved_Atoms>  (572) 
nan

$$$$
CHEMBL2070423
     RDKit          3D

  0  0  0  0  0  0  0  0  0  0999 V3000
M  V30 BEGIN CTAB
M  V30 COUNTS 67 70 0 0 0
M  V30 BEGIN ATOM
M  V30 1 C 4.153233 -5.444669 3.986898 0
M  V30 2 C 5.481892 -5.014638 3.474208 0
M  V30 3 N 5.506883 -4.436443 2.148135 0
M  V30 4 C 5.257111 -5.467186 1.175401 0
M  V30 5 C 3.890397 -6.035157 1.115915 0
M  V30 6 C 6.776548 -3.838182 1.951827 0
M  V30 7 C 7.018462 -3.011951 0.748172 0
M  V30 8 O 6.267513 -1.883363 0.545957 0
M  V30 9 C 4.992103 -1.548649 0.352039 0
M  V30 10 C 3.761676 -2.126211 0.235579 0
M  V30 11 C 2.548874 -1.516193 0.032490 0
M  V30 12 C 2.617411 -0.136904 -0.062511 0
M  V30 13 N 1.353181 0.535164 -0.275358 0
M  V30 14 C 0.823432 0.865573 -1.546056 0
M  V30 15 O 1.431060 0.593956 -2.640384 0
M  V30 16 C -0.458812 1.535629 -1.556072 0
M  V30 17 C -1.025194 2.318430 -2.471988 0
M  V30 18 C -2.356797 2.839562 -2.164636 0
M  V30 19 C -3.246874 1.873805 -1.667019 0
M  V30 20 C -4.554198 2.200951 -1.302347 0
M  V30 21 C -4.940985 3.530059 -1.453389 0
M  V30 22 O -6.264880 3.850819 -1.081550 0
M  V30 23 C -7.116770 2.819253 -0.638133 0
M  V30 24 C -7.878646 2.233561 -1.620466 0
M  V30 25 C -8.756976 1.206231 -1.321174 0
M  V30 26 C -8.836253 0.796315 -0.007287 0
M  V30 27 C -8.070229 1.383248 0.984788 0
M  V30 28 C -8.213127 0.885301 2.362065 0
M  V30 29 N -7.476615 1.415863 3.449195 0
M  V30 30 O -9.022935 -0.041107 2.546263 0
M  V30 31 C -7.202263 2.403766 0.669923 0
M  V30 32 C -4.100907 4.489829 -1.933665 0
M  V30 33 C -2.815290 4.134275 -2.285022 0
M  V30 34 S -1.150246 1.095609 0.061416 0
M  V30 35 C 0.494561 0.937237 0.817939 0
M  V30 36 S 0.995814 1.165715 2.331345 0
M  V30 37 C 3.795718 0.575114 0.036342 0
M  V30 38 C 4.992611 -0.139809 0.245314 0
M  V30 39 H 4.027993 -6.537840 4.134896 0
M  V30 40 H 3.359369 -5.032566 3.363865 0
M  V30 41 H 3.943791 -5.005122 5.018293 0
M  V30 42 H 5.882612 -4.240269 4.183664 0
M  V30 43 H 6.202160 -5.862588 3.542394 0
M  V30 44 H 5.469954 -5.047650 0.152176 0
M  V30 45 H 5.951075 -6.345839 1.362862 0
M  V30 46 H 3.755561 -6.832977 1.850718 0
M  V30 47 H 3.841532 -6.592402 0.112431 0
M  V30 48 H 3.059539 -5.296584 1.070268 0
M  V30 49 H 7.599020 -4.620832 1.966148 0
M  V30 50 H 7.014082 -3.174946 2.850836 0
M  V30 51 H 8.133104 -2.742484 0.685040 0
M  V30 52 H 6.895248 -3.678329 -0.176542 0
M  V30 53 H 3.845852 -3.187159 0.316523 0
M  V30 54 H 1.676721 -2.145835 -0.034059 0
M  V30 55 H -0.374812 2.441983 -3.329609 0
M  V30 56 H -3.061666 0.798738 -1.512370 0
M  V30 57 H -5.258817 1.473178 -0.916574 0
M  V30 58 H -7.819952 2.550788 -2.652877 0
M  V30 59 H -9.354719 0.757569 -2.131180 0
M  V30 60 H -9.546091 -0.015061 0.155063 0
M  V30 61 H -7.847213 1.697197 4.393823 0
M  V30 62 H -6.448840 1.630235 3.537838 0
M  V30 63 H -6.594079 2.880206 1.414235 0
M  V30 64 H -4.403748 5.525270 -2.050939 0
M  V30 65 H -2.066891 4.817915 -2.677815 0
M  V30 66 H 3.661204 1.626267 -0.060572 0
M  V30 67 H 5.798286 0.614121 0.292087 0
M  V30 END ATOM
M  V30 BEGIN BOND
M  V30 1 1 1 2
M  V30 2 1 2 3
M  V30 3 1 3 4
M  V30 4 1 4 5
M  V30 5 1 3 6
M  V30 6 1 6 7
M  V30 7 1 7 8
M  V30 8 1 8 9
M  V30 9 2 9 10
M  V30 10 1 10 11
M  V30 11 2 11 12
M  V30 12 1 12 13
M  V30 13 1 13 14
M  V30 14 2 14 15
M  V30 15 1 14 16
M  V30 16 2 16 17
M  V30 17 1 17 18
M  V30 18 2 18 19
M  V30 19 1 19 20
M  V30 20 2 20 21
M  V30 21 1 21 22
M  V30 22 1 22 23
M  V30 23 2 23 24
M  V30 24 1 24 25
M  V30 25 2 25 26
M  V30 26 1 26 27
M  V30 27 1 27 28
M  V30 28 1 28 29
M  V30 29 2 28 30
M  V30 30 2 27 31
M  V30 31 1 21 32
M  V30 32 2 32 33
M  V30 33 1 16 34
M  V30 34 1 34 35
M  V30 35 2 35 36
M  V30 36 1 12 37
M  V30 37 2 37 38
M  V30 38 1 38 9
M  V30 39 1 35 13
M  V30 40 1 33 18
M  V30 41 1 31 23
M  V30 42 1 1 39
M  V30 43 1 1 40
M  V30 44 1 1 41
M  V30 45 1 2 42
M  V30 46 1 2 43
M  V30 47 1 4 44
M  V30 48 1 4 45
M  V30 49 1 5 46
M  V30 50 1 5 47
M  V30 51 1 5 48
M  V30 52 1 6 49
M  V30 53 1 6 50
M  V30 54 1 7 51
M  V30 55 1 7 52
M  V30 56 1 10 53
M  V30 57 1 11 54
M  V30 58 1 17 55
M  V30 59 1 19 56
M  V30 60 1 20 57
M  V30 61 1 24 58
M  V30 62 1 25 59
M  V30 63 1 26 60
M  V30 64 1 29 61
M  V30 65 1 29 62
M  V30 66 1 31 63
M  V30 67 1 32 64
M  V30 68 1 33 65
M  V30 69 1 37 66
M  V30 70 1 38 67
M  V30 END BOND
M  V30 END CTAB
M  END
>  <Dataset>  (573) 
ChEMBL_Kinases

>  <Ligand_Instance>  (573) 
nan

>  <PDB_ID>  (573) 
nan

>  <Standardized_SMILES>  (573) 
CCN(CC)CCOc1ccc(N2C(=O)/C(=C/c3ccc(Oc4cccc(C(N)=O)c4)cc3)SC2=S)cc1

>  <Name>  (573) 
nan

>  <Pocket>  (573) 
nan

>  <ATP_Site>  (573) 
nan

>  <Peripheral>  (573) 
nan

>  <Num_H_Atoms_ProtBoundConf>  (573) 
nan

>  <Num_Resolved_Atoms>  (573) 
nan

>  <Num_Not_Resolved_Atoms>  (573) 
nan

$$$$
CHEMBL2070419
     RDKit          3D

  0  0  0  0  0  0  0  0  0  0999 V3000
M  V30 BEGIN CTAB
M  V30 COUNTS 71 75 0 0 0
M  V30 BEGIN ATOM
M  V30 1 N 9.128883 2.345058 7.347520 0
M  V30 2 C 8.033279 2.063407 6.457362 0
M  V30 3 O 8.258565 1.045862 5.750600 0
M  V30 4 C 6.833568 2.885020 6.417619 0
M  V30 5 C 6.594098 3.995319 7.200943 0
M  V30 6 C 5.413302 4.699844 7.076045 0
M  V30 7 C 4.425776 4.343326 6.180844 0
M  V30 8 O 3.226747 5.030974 6.031290 0
M  V30 9 C 2.316238 4.567769 5.073417 0
M  V30 10 C 2.259523 4.966692 3.749993 0
M  V30 11 C 1.307787 4.428562 2.906363 0
M  V30 12 C 0.380115 3.476532 3.347570 0
M  V30 13 C -0.536650 3.043111 2.303012 0
M  V30 14 C -0.905343 1.795369 2.227737 0
M  V30 15 S -0.411731 0.427076 3.304623 0
M  V30 16 C -1.394984 -0.810920 2.413515 0
M  V30 17 S -1.220905 -2.261532 3.084415 0
M  V30 18 N -2.059779 -0.142644 1.348181 0
M  V30 19 C -2.840354 -1.092820 0.634585 0
M  V30 20 C -4.146977 -1.465502 0.842145 0
M  V30 21 C -4.755520 -2.415643 0.060412 0
M  V30 22 C -4.066725 -3.026186 -0.961995 0
M  V30 23 O -4.617221 -4.011299 -1.808841 0
M  V30 24 C -3.828181 -4.581647 -2.833912 0
M  V30 25 C -4.615444 -5.604866 -3.598370 0
M  V30 26 C -3.758828 -6.216332 -4.697455 0
M  V30 27 N -3.272597 -5.257115 -5.642349 0
M  V30 28 C -2.376863 -5.820785 -6.648725 0
M  V30 29 C -1.773929 -4.638712 -7.402181 0
M  V30 30 C -2.233368 -3.340314 -6.747020 0
M  V30 31 C -3.754943 -3.264215 -6.863632 0
M  V30 32 C -4.323437 -4.605158 -6.414802 0
M  V30 33 C -2.736396 -2.651306 -1.180055 0
M  V30 34 C -2.105298 -1.689967 -0.396557 0
M  V30 35 C -1.811489 1.225048 1.240097 0
M  V30 36 O -2.422383 1.799513 0.274705 0
M  V30 37 C 0.439317 3.081877 4.665664 0
M  V30 38 C 1.387539 3.614642 5.515460 0
M  V30 39 C 4.718320 3.226980 5.424543 0
M  V30 40 C 5.870382 2.471389 5.489511 0
M  V30 41 H 9.990632 2.819345 6.992073 0
M  V30 42 H 8.645662 1.923396 8.194544 0
M  V30 43 H 7.362896 4.282717 7.905877 0
M  V30 44 H 5.262618 5.563669 7.707093 0
M  V30 45 H 2.988543 5.702335 3.441010 0
M  V30 46 H 1.352346 4.811936 1.886089 0
M  V30 47 H -0.928726 3.739468 1.573986 0
M  V30 48 H -4.634558 -0.953934 1.656112 0
M  V30 49 H -5.780930 -2.697068 0.236315 0
M  V30 50 H -2.903736 -5.071490 -2.449454 0
M  V30 51 H -3.477331 -3.757932 -3.523179 0
M  V30 52 H -4.838905 -6.426149 -2.858528 0
M  V30 53 H -5.540429 -5.183545 -4.020903 0
M  V30 54 H -2.944735 -6.835825 -4.274858 0
M  V30 55 H -4.415078 -6.932077 -5.266783 0
M  V30 56 H -1.564230 -6.424418 -6.210917 0
M  V30 57 H -2.900090 -6.479917 -7.367430 0
M  V30 58 H -0.658188 -4.668335 -7.308175 0
M  V30 59 H -2.123922 -4.668508 -8.442317 0
M  V30 60 H -1.999779 -3.368538 -5.657223 0
M  V30 61 H -1.737907 -2.491153 -7.254903 0
M  V30 62 H -4.147049 -2.508111 -6.136784 0
M  V30 63 H -4.022439 -3.016736 -7.913581 0
M  V30 64 H -5.267565 -4.466460 -5.867441 0
M  V30 65 H -4.551744 -5.211035 -7.339170 0
M  V30 66 H -2.187545 -3.138494 -1.996007 0
M  V30 67 H -1.067557 -1.486072 -0.666023 0
M  V30 68 H -0.287382 2.361344 4.942665 0
M  V30 69 H 1.415953 3.288694 6.551431 0
M  V30 70 H 3.952819 2.919638 4.705109 0
M  V30 71 H 6.021535 1.607417 4.858695 0
M  V30 END ATOM
M  V30 BEGIN BOND
M  V30 1 1 1 2
M  V30 2 2 2 3
M  V30 3 1 2 4
M  V30 4 2 4 5
M  V30 5 1 5 6
M  V30 6 2 6 7
M  V30 7 1 7 8
M  V30 8 1 8 9
M  V30 9 2 9 10
M  V30 10 1 10 11
M  V30 11 2 11 12
M  V30 12 1 12 13
M  V30 13 2 13 14
M  V30 14 1 14 15
M  V30 15 1 15 16
M  V30 16 2 16 17
M  V30 17 1 16 18
M  V30 18 1 18 19
M  V30 19 2 19 20
M  V30 20 1 20 21
M  V30 21 2 21 22
M  V30 22 1 22 23
M  V30 23 1 23 24
M  V30 24 1 24 25
M  V30 25 1 25 26
M  V30 26 1 26 27
M  V30 27 1 27 28
M  V30 28 1 28 29
M  V30 29 1 29 30
M  V30 30 1 30 31
M  V30 31 1 31 32
M  V30 32 1 22 33
M  V30 33 2 33 34
M  V30 34 1 18 35
M  V30 35 2 35 36
M  V30 36 1 12 37
M  V30 37 2 37 38
M  V30 38 1 7 39
M  V30 39 2 39 40
M  V30 40 1 40 4
M  V30 41 1 38 9
M  V30 42 1 35 14
M  V30 43 1 34 19
M  V30 44 1 32 27
M  V30 45 1 1 41
M  V30 46 1 1 42
M  V30 47 1 5 43
M  V30 48 1 6 44
M  V30 49 1 10 45
M  V30 50 1 11 46
M  V30 51 1 13 47
M  V30 52 1 20 48
M  V30 53 1 21 49
M  V30 54 1 24 50
M  V30 55 1 24 51
M  V30 56 1 25 52
M  V30 57 1 25 53
M  V30 58 1 26 54
M  V30 59 1 26 55
M  V30 60 1 28 56
M  V30 61 1 28 57
M  V30 62 1 29 58
M  V30 63 1 29 59
M  V30 64 1 30 60
M  V30 65 1 30 61
M  V30 66 1 31 62
M  V30 67 1 31 63
M  V30 68 1 32 64
M  V30 69 1 32 65
M  V30 70 1 33 66
M  V30 71 1 34 67
M  V30 72 1 37 68
M  V30 73 1 38 69
M  V30 74 1 39 70
M  V30 75 1 40 71
M  V30 END BOND
M  V30 END CTAB
M  END
>  <Dataset>  (574) 
ChEMBL_Kinases

>  <Ligand_Instance>  (574) 
nan

>  <PDB_ID>  (574) 
nan

>  <Standardized_SMILES>  (574) 
NC(=O)c1ccc(Oc2ccc(/C=C3\SC(=S)N(c4ccc(OCCCN5CCCCC5)cc4)C3=O)cc2)cc1

>  <Name>  (574) 
nan

>  <Pocket>  (574) 
nan

>  <ATP_Site>  (574) 
nan

>  <Peripheral>  (574) 
nan

>  <Num_H_Atoms_ProtBoundConf>  (574) 
nan

>  <Num_Resolved_Atoms>  (574) 
nan

>  <Num_Not_Resolved_Atoms>  (574) 
nan

$$$$
CHEMBL2070418
     RDKit          3D

  0  0  0  0  0  0  0  0  0  0999 V3000
M  V30 BEGIN CTAB
M  V30 COUNTS 71 75 0 0 0
M  V30 BEGIN ATOM
M  V30 1 N 8.037549 3.562003 7.048397 0
M  V30 2 C 7.822558 3.753463 5.663911 0
M  V30 3 O 8.698540 3.264602 4.905630 0
M  V30 4 C 6.623115 4.491407 5.222400 0
M  V30 5 C 5.724326 4.972557 6.142838 0
M  V30 6 C 4.609124 5.669202 5.662690 0
M  V30 7 C 4.486552 5.826088 4.305515 0
M  V30 8 C 5.414535 5.327328 3.388538 0
M  V30 9 O 4.988801 5.660558 2.103031 0
M  V30 10 C 4.157501 4.798516 1.404422 0
M  V30 11 C 3.714545 5.175810 0.146999 0
M  V30 12 C 2.880622 4.248941 -0.484842 0
M  V30 13 C 2.486762 3.039657 0.034892 0
M  V30 14 C 1.603095 2.166036 -0.721721 0
M  V30 15 C 1.777532 0.854114 -0.680061 0
M  V30 16 S 2.959034 -0.201343 0.168024 0
M  V30 17 C 1.926314 -1.688112 0.098327 0
M  V30 18 S 2.062405 -2.989847 1.072062 0
M  V30 19 N 1.011728 -1.423402 -0.981677 0
M  V30 20 C 0.286881 -2.555330 -1.498722 0
M  V30 21 C -0.876755 -2.724776 -0.794369 0
M  V30 22 C -1.686469 -3.772037 -1.165556 0
M  V30 23 C -1.432253 -4.662736 -2.180582 0
M  V30 24 O -1.979206 -5.729151 -2.767896 0
M  V30 25 C -3.074756 -6.507905 -2.709840 0
M  V30 26 C -4.432769 -5.960747 -3.029291 0
M  V30 27 C -4.908879 -4.815881 -2.222738 0
M  V30 28 N -6.279405 -4.412769 -2.587373 0
M  V30 29 C -7.179109 -5.413404 -2.186065 0
M  V30 30 C -8.212376 -5.061168 -1.170624 0
M  V30 31 C -7.670540 -3.944123 -0.296811 0
M  V30 32 C -7.535782 -2.747367 -1.239063 0
M  V30 33 C -6.466934 -3.066208 -2.226088 0
M  V30 34 C -0.222292 -4.435231 -2.865104 0
M  V30 35 C 0.658136 -3.392338 -2.549377 0
M  V30 36 C 0.928946 -0.090046 -1.395983 0
M  V30 37 O 0.145337 0.244617 -2.349205 0
M  V30 38 C 2.944012 2.692843 1.286007 0
M  V30 39 C 3.779751 3.578918 1.963962 0
M  V30 40 C 6.509631 4.642961 3.861326 0
M  V30 41 H 8.931706 3.231701 7.467370 0
M  V30 42 H 7.457470 3.679193 7.902742 0
M  V30 43 H 5.879927 4.815407 7.192559 0
M  V30 44 H 3.941897 6.021771 6.433529 0
M  V30 45 H 3.563788 6.390093 4.091905 0
M  V30 46 H 3.979741 6.101192 -0.318089 0
M  V30 47 H 2.539010 4.565305 -1.481350 0
M  V30 48 H 0.821052 2.602486 -1.303697 0
M  V30 49 H -1.252545 -2.136837 0.027453 0
M  V30 50 H -2.618343 -4.027265 -0.686255 0
M  V30 51 H -3.143451 -7.086034 -1.711555 0
M  V30 52 H -2.935640 -7.371620 -3.458281 0
M  V30 53 H -5.154109 -6.812444 -3.045071 0
M  V30 54 H -4.376662 -5.664056 -4.126807 0
M  V30 55 H -4.248043 -3.904803 -2.345784 0
M  V30 56 H -4.945811 -5.078170 -1.155562 0
M  V30 57 H -7.679051 -5.800147 -3.124483 0
M  V30 58 H -6.603272 -6.280919 -1.752505 0
M  V30 59 H -8.399933 -5.919069 -0.513228 0
M  V30 60 H -9.162327 -4.691838 -1.611597 0
M  V30 61 H -6.718347 -4.182588 0.179640 0
M  V30 62 H -8.430841 -3.708243 0.481708 0
M  V30 63 H -8.526950 -2.564746 -1.704977 0
M  V30 64 H -7.243236 -1.890230 -0.629195 0
M  V30 65 H -6.642688 -2.484371 -3.170527 0
M  V30 66 H -5.511690 -2.646139 -1.825058 0
M  V30 67 H 0.254078 -4.966733 -3.709986 0
M  V30 68 H 1.592768 -3.118867 -2.987827 0
M  V30 69 H 2.684189 1.765676 1.765366 0
M  V30 70 H 4.161311 3.343889 2.951666 0
M  V30 71 H 7.143468 4.313276 3.061507 0
M  V30 END ATOM
M  V30 BEGIN BOND
M  V30 1 1 1 2
M  V30 2 2 2 3
M  V30 3 1 2 4
M  V30 4 2 4 5
M  V30 5 1 5 6
M  V30 6 2 6 7
M  V30 7 1 7 8
M  V30 8 1 8 9
M  V30 9 1 9 10
M  V30 10 2 10 11
M  V30 11 1 11 12
M  V30 12 2 12 13
M  V30 13 1 13 14
M  V30 14 2 14 15
M  V30 15 1 15 16
M  V30 16 1 16 17
M  V30 17 2 17 18
M  V30 18 1 17 19
M  V30 19 1 19 20
M  V30 20 2 20 21
M  V30 21 1 21 22
M  V30 22 2 22 23
M  V30 23 1 23 24
M  V30 24 1 24 25
M  V30 25 1 25 26
M  V30 26 1 26 27
M  V30 27 1 27 28
M  V30 28 1 28 29
M  V30 29 1 29 30
M  V30 30 1 30 31
M  V30 31 1 31 32
M  V30 32 1 32 33
M  V30 33 1 23 34
M  V30 34 2 34 35
M  V30 35 1 19 36
M  V30 36 2 36 37
M  V30 37 1 13 38
M  V30 38 2 38 39
M  V30 39 2 8 40
M  V30 40 1 40 4
M  V30 41 1 39 10
M  V30 42 1 36 15
M  V30 43 1 35 20
M  V30 44 1 33 28
M  V30 45 1 1 41
M  V30 46 1 1 42
M  V30 47 1 5 43
M  V30 48 1 6 44
M  V30 49 1 7 45
M  V30 50 1 11 46
M  V30 51 1 12 47
M  V30 52 1 14 48
M  V30 53 1 21 49
M  V30 54 1 22 50
M  V30 55 1 25 51
M  V30 56 1 25 52
M  V30 57 1 26 53
M  V30 58 1 26 54
M  V30 59 1 27 55
M  V30 60 1 27 56
M  V30 61 1 29 57
M  V30 62 1 29 58
M  V30 63 1 30 59
M  V30 64 1 30 60
M  V30 65 1 31 61
M  V30 66 1 31 62
M  V30 67 1 32 63
M  V30 68 1 32 64
M  V30 69 1 33 65
M  V30 70 1 33 66
M  V30 71 1 34 67
M  V30 72 1 35 68
M  V30 73 1 38 69
M  V30 74 1 39 70
M  V30 75 1 40 71
M  V30 END BOND
M  V30 END CTAB
M  END
>  <Dataset>  (575) 
ChEMBL_Kinases

>  <Ligand_Instance>  (575) 
nan

>  <PDB_ID>  (575) 
nan

>  <Standardized_SMILES>  (575) 
NC(=O)c1cccc(Oc2ccc(/C=C3\SC(=S)N(c4ccc(OCCCN5CCCCC5)cc4)C3=O)cc2)c1

>  <Name>  (575) 
nan

>  <Pocket>  (575) 
nan

>  <ATP_Site>  (575) 
nan

>  <Peripheral>  (575) 
nan

>  <Num_H_Atoms_ProtBoundConf>  (575) 
nan

>  <Num_Resolved_Atoms>  (575) 
nan

>  <Num_Not_Resolved_Atoms>  (575) 
nan

$$$$
CHEMBL2070415
     RDKit          3D

  0  0  0  0  0  0  0  0  0  0999 V3000
M  V30 BEGIN CTAB
M  V30 COUNTS 79 83 0 0 0
M  V30 BEGIN ATOM
M  V30 1 C -5.107535 1.217239 -8.219602 0
M  V30 2 N -4.906672 -0.079566 -7.616176 0
M  V30 3 C -4.015326 -0.824929 -8.456194 0
M  V30 4 C -3.709864 -2.145136 -7.780585 0
M  V30 5 N -4.905882 -2.885563 -7.506391 0
M  V30 6 C -4.806388 -3.787630 -6.408147 0
M  V30 7 C -4.658121 -3.130835 -5.073796 0
M  V30 8 C -4.553336 -4.262276 -4.045171 0
M  V30 9 C -4.389105 -3.695716 -2.648461 0
M  V30 10 C -4.278523 -4.862879 -1.708829 0
M  V30 11 O -4.119328 -4.578272 -0.372601 0
M  V30 12 C -3.130239 -3.913955 0.297101 0
M  V30 13 C -1.962907 -3.315899 -0.122913 0
M  V30 14 C -1.060267 -2.674723 0.694271 0
M  V30 15 C -1.347803 -2.625684 2.057596 0
M  V30 16 N -0.345276 -1.926239 2.831037 0
M  V30 17 C -0.499560 -0.525950 3.024629 0
M  V30 18 O -1.420976 0.228783 2.605466 0
M  V30 19 C 0.572340 0.098221 3.823385 0
M  V30 20 C 0.607380 1.249593 4.414793 0
M  V30 21 C 1.756043 1.728058 5.174586 0
M  V30 22 C 2.604335 1.022058 5.989031 0
M  V30 23 C 3.650028 1.656954 6.628281 0
M  V30 24 C 3.891414 3.005674 6.484490 0
M  V30 25 O 4.915782 3.700075 7.094068 0
M  V30 26 C 6.160118 3.861227 6.538446 0
M  V30 27 C 7.104148 4.606015 7.223523 0
M  V30 28 C 8.372741 4.812416 6.730882 0
M  V30 29 C 8.723803 4.262905 5.516563 0
M  V30 30 C 10.040208 4.402139 4.874709 0
M  V30 31 N 11.114541 5.146395 5.482830 0
M  V30 32 O 10.393659 3.918105 3.766211 0
M  V30 33 C 7.817077 3.502362 4.778574 0
M  V30 34 C 6.561996 3.335723 5.332164 0
M  V30 35 C 3.046522 3.740429 5.665472 0
M  V30 36 C 2.009755 3.091635 5.036457 0
M  V30 37 S 1.906378 -1.124597 3.821626 0
M  V30 38 C 0.795199 -2.504001 3.423922 0
M  V30 39 S 0.978522 -4.089885 3.659582 0
M  V30 40 C -2.519103 -3.213513 2.563191 0
M  V30 41 C -3.352267 -3.828370 1.656100 0
M  V30 42 C -6.131682 -2.183918 -7.656876 0
M  V30 43 C -6.117646 -0.745713 -7.258198 0
M  V30 44 H -5.744801 1.883228 -7.637785 0
M  V30 45 H -4.106070 1.701195 -8.308252 0
M  V30 46 H -5.444021 1.050519 -9.266905 0
M  V30 47 H -4.348584 -0.938387 -9.507659 0
M  V30 48 H -3.048997 -0.237053 -8.462122 0
M  V30 49 H -3.118915 -1.916524 -6.868914 0
M  V30 50 H -3.108681 -2.738329 -8.518615 0
M  V30 51 H -5.741209 -4.402749 -6.381665 0
M  V30 52 H -3.991913 -4.518564 -6.579395 0
M  V30 53 H -5.531936 -2.486049 -4.856638 0
M  V30 54 H -3.684086 -2.594185 -4.984274 0
M  V30 55 H -5.475594 -4.844549 -4.151948 0
M  V30 56 H -3.649832 -4.840254 -4.322658 0
M  V30 57 H -3.554675 -2.981017 -2.616158 0
M  V30 58 H -5.300912 -3.067688 -2.418655 0
M  V30 59 H -3.345733 -5.415763 -2.038900 0
M  V30 60 H -5.140579 -5.560363 -1.809905 0
M  V30 61 H -1.768949 -3.380701 -1.173970 0
M  V30 62 H -0.194311 -2.249693 0.261703 0
M  V30 63 H -0.284379 1.888302 4.332652 0
M  V30 64 H 2.375860 -0.027465 6.070246 0
M  V30 65 H 4.303507 1.083324 7.262671 0
M  V30 66 H 6.907870 5.067050 8.174767 0
M  V30 67 H 9.166682 5.381602 7.200953 0
M  V30 68 H 11.867777 4.676601 6.056984 0
M  V30 69 H 11.416119 6.144041 5.535544 0
M  V30 70 H 8.051887 3.046373 3.810668 0
M  V30 71 H 5.832171 2.752685 4.790372 0
M  V30 72 H 3.213031 4.812909 5.532524 0
M  V30 73 H 1.382313 3.735936 4.404640 0
M  V30 74 H -2.648547 -3.122494 3.625684 0
M  V30 75 H -4.228440 -4.246971 2.166423 0
M  V30 76 H -6.926688 -2.748234 -7.115542 0
M  V30 77 H -6.453833 -2.211089 -8.740454 0
M  V30 78 H -6.944084 -0.225345 -7.817683 0
M  V30 79 H -6.348230 -0.645490 -6.156730 0
M  V30 END ATOM
M  V30 BEGIN BOND
M  V30 1 1 1 2
M  V30 2 1 2 3
M  V30 3 1 3 4
M  V30 4 1 4 5
M  V30 5 1 5 6
M  V30 6 1 6 7
M  V30 7 1 7 8
M  V30 8 1 8 9
M  V30 9 1 9 10
M  V30 10 1 10 11
M  V30 11 1 11 12
M  V30 12 2 12 13
M  V30 13 1 13 14
M  V30 14 2 14 15
M  V30 15 1 15 16
M  V30 16 1 16 17
M  V30 17 2 17 18
M  V30 18 1 17 19
M  V30 19 2 19 20
M  V30 20 1 20 21
M  V30 21 2 21 22
M  V30 22 1 22 23
M  V30 23 2 23 24
M  V30 24 1 24 25
M  V30 25 1 25 26
M  V30 26 2 26 27
M  V30 27 1 27 28
M  V30 28 2 28 29
M  V30 29 1 29 30
M  V30 30 1 30 31
M  V30 31 2 30 32
M  V30 32 1 29 33
M  V30 33 2 33 34
M  V30 34 1 24 35
M  V30 35 2 35 36
M  V30 36 1 19 37
M  V30 37 1 37 38
M  V30 38 2 38 39
M  V30 39 1 15 40
M  V30 40 2 40 41
M  V30 41 1 5 42
M  V30 42 1 42 43
M  V30 43 1 43 2
M  V30 44 1 41 12
M  V30 45 1 38 16
M  V30 46 1 36 21
M  V30 47 1 34 26
M  V30 48 1 1 44
M  V30 49 1 1 45
M  V30 50 1 1 46
M  V30 51 1 3 47
M  V30 52 1 3 48
M  V30 53 1 4 49
M  V30 54 1 4 50
M  V30 55 1 6 51
M  V30 56 1 6 52
M  V30 57 1 7 53
M  V30 58 1 7 54
M  V30 59 1 8 55
M  V30 60 1 8 56
M  V30 61 1 9 57
M  V30 62 1 9 58
M  V30 63 1 10 59
M  V30 64 1 10 60
M  V30 65 1 13 61
M  V30 66 1 14 62
M  V30 67 1 20 63
M  V30 68 1 22 64
M  V30 69 1 23 65
M  V30 70 1 27 66
M  V30 71 1 28 67
M  V30 72 1 31 68
M  V30 73 1 31 69
M  V30 74 1 33 70
M  V30 75 1 34 71
M  V30 76 1 35 72
M  V30 77 1 36 73
M  V30 78 1 40 74
M  V30 79 1 41 75
M  V30 80 1 42 76
M  V30 81 1 42 77
M  V30 82 1 43 78
M  V30 83 1 43 79
M  V30 END BOND
M  V30 END CTAB
M  END
>  <Dataset>  (576) 
ChEMBL_Kinases

>  <Ligand_Instance>  (576) 
nan

>  <PDB_ID>  (576) 
nan

>  <Standardized_SMILES>  (576) 
CN1CCN(CCCCCOc2ccc(N3C(=O)/C(=C/c4ccc(Oc5ccc(C(N)=O)cc5)cc4)SC3=S)cc2)CC1

>  <Name>  (576) 
nan

>  <Pocket>  (576) 
nan

>  <ATP_Site>  (576) 
nan

>  <Peripheral>  (576) 
nan

>  <Num_H_Atoms_ProtBoundConf>  (576) 
nan

>  <Num_Resolved_Atoms>  (576) 
nan

>  <Num_Not_Resolved_Atoms>  (576) 
nan

$$$$
CHEMBL2070411
     RDKit          3D

  0  0  0  0  0  0  0  0  0  0999 V3000
M  V30 BEGIN CTAB
M  V30 COUNTS 73 77 0 0 0
M  V30 BEGIN ATOM
M  V30 1 C 5.508269 -5.478952 -5.907720 0
M  V30 2 N 4.864643 -5.494807 -7.190389 0
M  V30 3 C 3.441896 -5.768736 -7.049805 0
M  V30 4 C 2.646320 -4.752407 -7.846008 0
M  V30 5 N 2.805590 -3.393628 -7.271972 0
M  V30 6 C 2.057576 -3.300291 -6.062511 0
M  V30 7 C 1.938264 -1.977554 -5.402879 0
M  V30 8 C 3.171392 -1.296647 -4.942438 0
M  V30 9 O 2.941598 -0.059009 -4.267806 0
M  V30 10 C 2.269044 0.107581 -3.085266 0
M  V30 11 C 1.644447 -0.709709 -2.176273 0
M  V30 12 C 1.024282 -0.253948 -1.031720 0
M  V30 13 C 1.025413 1.122464 -0.768313 0
M  V30 14 N 0.329335 1.355440 0.478838 0
M  V30 15 C -1.039458 1.602912 0.661528 0
M  V30 16 O -1.833342 1.655850 -0.337080 0
M  V30 17 C -1.437433 1.784820 2.059469 0
M  V30 18 C -2.597985 1.624558 2.610372 0
M  V30 19 C -2.749006 1.868794 4.038715 0
M  V30 20 C -2.184504 2.854867 4.818548 0
M  V30 21 C -2.469566 2.871049 6.169234 0
M  V30 22 C -3.293260 1.953218 6.799814 0
M  V30 23 O -3.467429 2.123151 8.189347 0
M  V30 24 C -4.344220 1.322612 8.910234 0
M  V30 25 C -3.692121 0.542828 9.842154 0
M  V30 26 C -4.417219 -0.312487 10.639865 0
M  V30 27 C -5.797987 -0.361502 10.477206 0
M  V30 28 C -6.427356 0.426882 9.541027 0
M  V30 29 C -5.707805 1.280733 8.745335 0
M  V30 30 C -6.339265 2.166916 7.786745 0
M  V30 31 N -7.729277 1.970862 7.562457 0
M  V30 32 O -5.896743 3.104593 7.088802 0
M  V30 33 C -3.857524 0.958370 5.987025 0
M  V30 34 C -3.582538 0.929100 4.637032 0
M  V30 35 S 0.125795 2.285352 2.832770 0
M  V30 36 C 1.136043 1.317045 1.671283 0
M  V30 37 S 2.575035 0.596791 1.928690 0
M  V30 38 C 1.637894 1.994711 -1.645249 0
M  V30 39 C 2.236607 1.470969 -2.767806 0
M  V30 40 C 4.227295 -3.135666 -7.146542 0
M  V30 41 C 5.069773 -4.216647 -7.845441 0
M  V30 42 H 6.033329 -4.522367 -5.697308 0
M  V30 43 H 6.219333 -6.346836 -5.785507 0
M  V30 44 H 4.743937 -5.628594 -5.128824 0
M  V30 45 H 3.129065 -5.847375 -5.999035 0
M  V30 46 H 3.249441 -6.748787 -7.525477 0
M  V30 47 H 3.005838 -4.761786 -8.876441 0
M  V30 48 H 1.586455 -5.012416 -7.800100 0
M  V30 49 H 1.019397 -3.717837 -6.261065 0
M  V30 50 H 2.464192 -4.010829 -5.272655 0
M  V30 51 H 1.101249 -1.958787 -4.645536 0
M  V30 52 H 1.530924 -1.285359 -6.241753 0
M  V30 53 H 3.856512 -1.007084 -5.787278 0
M  V30 54 H 3.760535 -1.933186 -4.256816 0
M  V30 55 H 1.704500 -1.742788 -2.444397 0
M  V30 56 H 0.585599 -1.048491 -0.437003 0
M  V30 57 H -3.416863 1.313644 1.978430 0
M  V30 58 H -1.563596 3.528228 4.279751 0
M  V30 59 H -2.000927 3.672048 6.756757 0
M  V30 60 H -2.632066 0.502925 10.049898 0
M  V30 61 H -4.070238 -0.998699 11.423918 0
M  V30 62 H -6.445471 -0.998526 11.053349 0
M  V30 63 H -7.514928 0.398884 9.401404 0
M  V30 64 H -8.331990 2.396275 6.798317 0
M  V30 65 H -8.346812 2.367611 6.830848 0
M  V30 66 H -4.488852 0.275603 6.542085 0
M  V30 67 H -4.103670 0.098158 4.183520 0
M  V30 68 H 1.549797 3.002927 -1.301348 0
M  V30 69 H 2.670298 2.302310 -3.345816 0
M  V30 70 H 4.494933 -3.235700 -6.083227 0
M  V30 71 H 4.550865 -2.191009 -7.632981 0
M  V30 72 H 4.954207 -4.223773 -8.925846 0
M  V30 73 H 6.133261 -3.924488 -7.618009 0
M  V30 END ATOM
M  V30 BEGIN BOND
M  V30 1 1 1 2
M  V30 2 1 2 3
M  V30 3 1 3 4
M  V30 4 1 4 5
M  V30 5 1 5 6
M  V30 6 1 6 7
M  V30 7 1 7 8
M  V30 8 1 8 9
M  V30 9 1 9 10
M  V30 10 2 10 11
M  V30 11 1 11 12
M  V30 12 2 12 13
M  V30 13 1 13 14
M  V30 14 1 14 15
M  V30 15 2 15 16
M  V30 16 1 15 17
M  V30 17 2 17 18
M  V30 18 1 18 19
M  V30 19 2 19 20
M  V30 20 1 20 21
M  V30 21 2 21 22
M  V30 22 1 22 23
M  V30 23 1 23 24
M  V30 24 2 24 25
M  V30 25 1 25 26
M  V30 26 2 26 27
M  V30 27 1 27 28
M  V30 28 2 28 29
M  V30 29 1 29 30
M  V30 30 1 30 31
M  V30 31 2 30 32
M  V30 32 1 22 33
M  V30 33 2 33 34
M  V30 34 1 17 35
M  V30 35 1 35 36
M  V30 36 2 36 37
M  V30 37 1 13 38
M  V30 38 2 38 39
M  V30 39 1 5 40
M  V30 40 1 40 41
M  V30 41 1 41 2
M  V30 42 1 39 10
M  V30 43 1 36 14
M  V30 44 1 34 19
M  V30 45 1 29 24
M  V30 46 1 1 42
M  V30 47 1 1 43
M  V30 48 1 1 44
M  V30 49 1 3 45
M  V30 50 1 3 46
M  V30 51 1 4 47
M  V30 52 1 4 48
M  V30 53 1 6 49
M  V30 54 1 6 50
M  V30 55 1 7 51
M  V30 56 1 7 52
M  V30 57 1 8 53
M  V30 58 1 8 54
M  V30 59 1 11 55
M  V30 60 1 12 56
M  V30 61 1 18 57
M  V30 62 1 20 58
M  V30 63 1 21 59
M  V30 64 1 25 60
M  V30 65 1 26 61
M  V30 66 1 27 62
M  V30 67 1 28 63
M  V30 68 1 31 64
M  V30 69 1 31 65
M  V30 70 1 33 66
M  V30 71 1 34 67
M  V30 72 1 38 68
M  V30 73 1 39 69
M  V30 74 1 40 70
M  V30 75 1 40 71
M  V30 76 1 41 72
M  V30 77 1 41 73
M  V30 END BOND
M  V30 END CTAB
M  END
>  <Dataset>  (577) 
ChEMBL_Kinases

>  <Ligand_Instance>  (577) 
nan

>  <PDB_ID>  (577) 
nan

>  <Standardized_SMILES>  (577) 
CN1CCN(CCCOc2ccc(N3C(=O)/C(=C/c4ccc(Oc5ccccc5C(N)=O)cc4)SC3=S)cc2)CC1

>  <Name>  (577) 
nan

>  <Pocket>  (577) 
nan

>  <ATP_Site>  (577) 
nan

>  <Peripheral>  (577) 
nan

>  <Num_H_Atoms_ProtBoundConf>  (577) 
nan

>  <Num_Resolved_Atoms>  (577) 
nan

>  <Num_Not_Resolved_Atoms>  (577) 
nan

$$$$
CHEMBL2070410
     RDKit          3D

  0  0  0  0  0  0  0  0  0  0999 V3000
M  V30 BEGIN CTAB
M  V30 COUNTS 66 69 0 0 0
M  V30 BEGIN ATOM
M  V30 1 C 6.401842 -2.828077 3.391182 0
M  V30 2 C 7.450122 -3.376661 2.443378 0
M  V30 3 N 6.979009 -3.826823 1.219978 0
M  V30 4 C 6.189678 -4.973047 1.131987 0
M  V30 5 C 4.805144 -4.876393 1.703936 0
M  V30 6 C 7.081471 -3.046237 0.051838 0
M  V30 7 C 6.208774 -1.794875 0.037217 0
M  V30 8 C 6.334586 -0.995950 -1.214675 0
M  V30 9 O 5.566696 0.148398 -1.306810 0
M  V30 10 C 4.201794 0.299196 -1.301281 0
M  V30 11 C 3.111355 -0.534472 -1.224475 0
M  V30 12 C 1.817941 -0.060768 -1.240122 0
M  V30 13 C 1.576164 1.312413 -1.337066 0
M  V30 14 N 0.175617 1.576403 -1.332075 0
M  V30 15 C -0.530480 1.774597 -0.109797 0
M  V30 16 O -0.015944 1.742105 1.061353 0
M  V30 17 C -1.980612 2.038011 -0.243734 0
M  V30 18 C -2.897291 1.873261 0.674805 0
M  V30 19 C -4.272503 2.200220 0.314426 0
M  V30 20 C -4.843071 3.208244 -0.427598 0
M  V30 21 C -6.196781 2.949507 -0.388676 0
M  V30 22 C -6.393605 1.811442 0.363941 0
M  V30 23 C -7.647011 1.139855 0.691181 0
M  V30 24 C -7.591960 -0.017528 1.439550 0
M  V30 25 C -8.698798 -0.746339 1.817010 0
M  V30 26 C -9.915172 -0.246674 1.395952 0
M  V30 27 C -11.143981 -0.941088 1.729196 0
M  V30 28 N -11.087562 -2.166043 2.431594 0
M  V30 29 O -12.378722 -0.700869 1.528436 0
M  V30 30 C -10.017765 0.904336 0.648188 0
M  V30 31 C -8.881902 1.602790 0.292608 0
M  V30 32 O -5.223799 1.392351 0.766782 0
M  V30 33 S -2.086617 2.607138 -1.964592 0
M  V30 34 C -0.633294 1.663849 -2.512745 0
M  V30 35 S -0.255005 1.035749 -3.953943 0
M  V30 36 C 2.642848 2.180632 -1.416779 0
M  V30 37 C 3.950739 1.677981 -1.399303 0
M  V30 38 H 6.888925 -2.305536 4.255650 0
M  V30 39 H 5.757445 -3.608741 3.827064 0
M  V30 40 H 5.769174 -2.121697 2.831135 0
M  V30 41 H 7.976712 -4.178949 3.059344 0
M  V30 42 H 8.248259 -2.592921 2.353345 0
M  V30 43 H 6.647322 -5.883822 1.621663 0
M  V30 44 H 6.050392 -5.251294 0.039553 0
M  V30 45 H 4.498889 -3.826193 1.805105 0
M  V30 46 H 4.699213 -5.388453 2.699458 0
M  V30 47 H 4.073608 -5.393125 1.030603 0
M  V30 48 H 8.167795 -2.752719 -0.054996 0
M  V30 49 H 6.878580 -3.699963 -0.823558 0
M  V30 50 H 5.186062 -2.043180 0.280441 0
M  V30 51 H 6.660435 -1.150593 0.856290 0
M  V30 52 H 6.075919 -1.645258 -2.080664 0
M  V30 53 H 7.408301 -0.689264 -1.388120 0
M  V30 54 H 3.423561 -1.563427 -1.162852 0
M  V30 55 H 1.095561 -0.868316 -1.170333 0
M  V30 56 H -2.604845 1.507779 1.649641 0
M  V30 57 H -4.254426 3.983705 -0.894486 0
M  V30 58 H -6.943122 3.548610 -0.870701 0
M  V30 59 H -6.640478 -0.443564 1.791773 0
M  V30 60 H -8.654730 -1.653738 2.403781 0
M  V30 61 H -11.082075 -3.030433 2.995292 0
M  V30 62 H -10.585850 -2.984171 1.984703 0
M  V30 63 H -11.016066 1.207111 0.371868 0
M  V30 64 H -8.954445 2.507752 -0.294085 0
M  V30 65 H 2.340857 3.210975 -1.488035 0
M  V30 66 H 4.643899 2.528489 -1.472509 0
M  V30 END ATOM
M  V30 BEGIN BOND
M  V30 1 1 1 2
M  V30 2 1 2 3
M  V30 3 1 3 4
M  V30 4 1 4 5
M  V30 5 1 3 6
M  V30 6 1 6 7
M  V30 7 1 7 8
M  V30 8 1 8 9
M  V30 9 1 9 10
M  V30 10 2 10 11
M  V30 11 1 11 12
M  V30 12 2 12 13
M  V30 13 1 13 14
M  V30 14 1 14 15
M  V30 15 2 15 16
M  V30 16 1 15 17
M  V30 17 2 17 18
M  V30 18 1 18 19
M  V30 19 2 19 20
M  V30 20 1 20 21
M  V30 21 2 21 22
M  V30 22 1 22 23
M  V30 23 2 23 24
M  V30 24 1 24 25
M  V30 25 2 25 26
M  V30 26 1 26 27
M  V30 27 1 27 28
M  V30 28 2 27 29
M  V30 29 1 26 30
M  V30 30 2 30 31
M  V30 31 1 22 32
M  V30 32 1 17 33
M  V30 33 1 33 34
M  V30 34 2 34 35
M  V30 35 1 13 36
M  V30 36 2 36 37
M  V30 37 1 37 10
M  V30 38 1 34 14
M  V30 39 1 32 19
M  V30 40 1 31 23
M  V30 41 1 1 38
M  V30 42 1 1 39
M  V30 43 1 1 40
M  V30 44 1 2 41
M  V30 45 1 2 42
M  V30 46 1 4 43
M  V30 47 1 4 44
M  V30 48 1 5 45
M  V30 49 1 5 46
M  V30 50 1 5 47
M  V30 51 1 6 48
M  V30 52 1 6 49
M  V30 53 1 7 50
M  V30 54 1 7 51
M  V30 55 1 8 52
M  V30 56 1 8 53
M  V30 57 1 11 54
M  V30 58 1 12 55
M  V30 59 1 18 56
M  V30 60 1 20 57
M  V30 61 1 21 58
M  V30 62 1 24 59
M  V30 63 1 25 60
M  V30 64 1 28 61
M  V30 65 1 28 62
M  V30 66 1 30 63
M  V30 67 1 31 64
M  V30 68 1 36 65
M  V30 69 1 37 66
M  V30 END BOND
M  V30 END CTAB
M  END
>  <Dataset>  (578) 
ChEMBL_Kinases

>  <Ligand_Instance>  (578) 
nan

>  <PDB_ID>  (578) 
nan

>  <Standardized_SMILES>  (578) 
CCN(CC)CCCOc1ccc(N2C(=O)/C(=C/c3ccc(-c4ccc(C(N)=O)cc4)o3)SC2=S)cc1

>  <Name>  (578) 
nan

>  <Pocket>  (578) 
nan

>  <ATP_Site>  (578) 
nan

>  <Peripheral>  (578) 
nan

>  <Num_H_Atoms_ProtBoundConf>  (578) 
nan

>  <Num_Resolved_Atoms>  (578) 
nan

>  <Num_Not_Resolved_Atoms>  (578) 
nan

$$$$
CHEMBL207034
     RDKit          3D

  0  0  0  0  0  0  0  0  0  0999 V3000
M  V30 BEGIN CTAB
M  V30 COUNTS 28 29 0 0 0
M  V30 BEGIN ATOM
M  V30 1 C -2.063432 -2.709704 3.380682 0
M  V30 2 O -0.837762 -2.638233 4.080648 0
M  V30 3 C 0.227442 -1.966247 3.492058 0
M  V30 4 C 1.447727 -1.865713 4.131272 0
M  V30 5 C 2.516892 -1.202135 3.561886 0
M  V30 6 C 2.406105 -0.606532 2.317025 0
M  V30 7 C 1.187486 -0.706801 1.678437 0
M  V30 8 C 1.043319 -0.086733 0.362604 0
M  V30 9 N -0.098436 -0.103328 -0.387395 0
M  V30 10 C 0.124889 0.560184 -1.536634 0
M  V30 11 C -0.823484 0.782410 -2.622816 0
M  V30 12 N -2.141550 0.260685 -2.502323 0
M  V30 13 O -0.448083 1.429590 -3.635657 0
M  V30 14 C 1.436227 0.983789 -1.469259 0
M  V30 15 N 2.131962 1.739192 -2.475065 0
M  V30 16 O 1.935727 0.566766 -0.308376 0
M  V30 17 C 0.124714 -1.371913 2.255228 0
M  V30 18 H -1.991560 -3.309626 2.465958 0
M  V30 19 H -2.825388 -3.120725 4.065857 0
M  V30 20 H -2.414810 -1.698060 3.050184 0
M  V30 21 H 1.608919 -2.306557 5.106937 0
M  V30 22 H 3.459711 -1.132838 4.072201 0
M  V30 23 H 3.216121 -0.076193 1.831493 0
M  V30 24 H -2.475754 -0.635624 -2.919608 0
M  V30 25 H -2.491048 -0.650306 -2.923267 0
M  V30 26 H 2.535272 2.686982 -2.240462 0
M  V30 27 H 2.225017 1.335376 -3.419195 0
M  V30 28 H -0.810620 -1.410693 1.690196 0
M  V30 END ATOM
M  V30 BEGIN BOND
M  V30 1 1 1 2
M  V30 2 1 2 3
M  V30 3 2 3 4
M  V30 4 1 4 5
M  V30 5 2 5 6
M  V30 6 1 6 7
M  V30 7 1 7 8
M  V30 8 2 8 9
M  V30 9 1 9 10
M  V30 10 1 10 11
M  V30 11 1 11 12
M  V30 12 2 11 13
M  V30 13 2 10 14
M  V30 14 1 14 15
M  V30 15 1 14 16
M  V30 16 2 7 17
M  V30 17 1 17 3
M  V30 18 1 16 8
M  V30 19 1 1 18
M  V30 20 1 1 19
M  V30 21 1 1 20
M  V30 22 1 4 21
M  V30 23 1 5 22
M  V30 24 1 6 23
M  V30 25 1 12 24
M  V30 26 1 12 25
M  V30 27 1 15 26
M  V30 28 1 15 27
M  V30 29 1 17 28
M  V30 END BOND
M  V30 END CTAB
M  END
>  <Dataset>  (579) 
ChEMBL_Kinases

>  <Ligand_Instance>  (579) 
nan

>  <PDB_ID>  (579) 
nan

>  <Standardized_SMILES>  (579) 
COc1cccc(-c2nc(C(N)=O)c(N)o2)c1

>  <Name>  (579) 
nan

>  <Pocket>  (579) 
nan

>  <ATP_Site>  (579) 
nan

>  <Peripheral>  (579) 
nan

>  <Num_H_Atoms_ProtBoundConf>  (579) 
nan

>  <Num_Resolved_Atoms>  (579) 
nan

>  <Num_Not_Resolved_Atoms>  (579) 
nan

$$$$
CHEMBL207028
     RDKit          3D

  0  0  0  0  0  0  0  0  0  0999 V3000
M  V30 BEGIN CTAB
M  V30 COUNTS 25 26 0 0 0
M  V30 BEGIN ATOM
M  V30 1 N 1.664027 0.236359 5.123980 0
M  V30 2 C 1.875924 -0.904659 4.303856 0
M  V30 3 O 2.460420 -1.954325 4.664732 0
M  V30 4 C 1.422430 -0.936806 2.965280 0
M  V30 5 S 0.525287 0.487908 2.177927 0
M  V30 6 C 0.318068 -0.273671 0.632444 0
M  V30 7 C -0.357672 0.311131 -0.571231 0
M  V30 8 C -0.464758 -0.393817 -1.759000 0
M  V30 9 C -1.097395 0.215410 -2.808791 0
M  V30 10 C -1.616689 1.497770 -2.692666 0
M  V30 11 C -1.504167 2.182114 -1.515093 0
M  V30 12 C -0.864397 1.586939 -0.427312 0
M  V30 13 C 0.873781 -1.466613 0.732028 0
M  V30 14 C 1.449608 -1.830204 1.926110 0
M  V30 15 N 2.099811 -3.088795 2.214120 0
M  V30 16 H 0.687118 0.120809 5.474720 0
M  V30 17 H 0.964361 0.722368 5.738089 0
M  V30 18 H -0.033440 -1.388433 -1.767326 0
M  V30 19 H -1.143506 -0.401134 -3.711467 0
M  V30 20 H -2.098053 1.922050 -3.540524 0
M  V30 21 H -1.906369 3.192640 -1.403484 0
M  V30 22 H -0.777181 2.136488 0.509321 0
M  V30 23 H 0.885564 -2.167861 -0.110966 0
M  V30 24 H 2.911575 -3.481724 1.684187 0
M  V30 25 H 1.811100 -3.728579 2.991030 0
M  V30 END ATOM
M  V30 BEGIN BOND
M  V30 1 1 1 2
M  V30 2 2 2 3
M  V30 3 1 2 4
M  V30 4 1 4 5
M  V30 5 1 5 6
M  V30 6 1 6 7
M  V30 7 2 7 8
M  V30 8 1 8 9
M  V30 9 2 9 10
M  V30 10 1 10 11
M  V30 11 2 11 12
M  V30 12 2 6 13
M  V30 13 1 13 14
M  V30 14 1 14 15
M  V30 15 2 14 4
M  V30 16 1 12 7
M  V30 17 1 1 16
M  V30 18 1 1 17
M  V30 19 1 8 18
M  V30 20 1 9 19
M  V30 21 1 10 20
M  V30 22 1 11 21
M  V30 23 1 12 22
M  V30 24 1 13 23
M  V30 25 1 15 24
M  V30 26 1 15 25
M  V30 END BOND
M  V30 END CTAB
M  END
>  <Dataset>  (580) 
ChEMBL_Kinases

>  <Ligand_Instance>  (580) 
nan

>  <PDB_ID>  (580) 
nan

>  <Standardized_SMILES>  (580) 
NC(=O)c1sc(-c2ccccc2)cc1N

>  <Name>  (580) 
nan

>  <Pocket>  (580) 
nan

>  <ATP_Site>  (580) 
nan

>  <Peripheral>  (580) 
nan

>  <Num_H_Atoms_ProtBoundConf>  (580) 
nan

>  <Num_Resolved_Atoms>  (580) 
nan

>  <Num_Not_Resolved_Atoms>  (580) 
nan

$$$$
CHEMBL207002
     RDKit          3D

  0  0  0  0  0  0  0  0  0  0999 V3000
M  V30 BEGIN CTAB
M  V30 COUNTS 23 24 0 0 0
M  V30 BEGIN ATOM
M  V30 1 N -0.110406 -2.824636 4.468230 0
M  V30 2 C 0.915635 -3.059130 3.516040 0
M  V30 3 O 1.808785 -3.933508 3.458570 0
M  V30 4 C 1.010038 -2.159828 2.368604 0
M  V30 5 C 1.858834 -2.096248 1.284556 0
M  V30 6 C 1.632155 -1.082505 0.387745 0
M  V30 7 C 0.643375 -0.233343 0.587986 0
M  V30 8 C 0.154245 0.935859 -0.175192 0
M  V30 9 C -0.931186 1.625442 0.323955 0
M  V30 10 C -1.386747 2.729330 -0.404055 0
M  V30 11 C -0.697015 3.031997 -1.574013 0
M  V30 12 Cl -1.242959 4.421651 -2.523316 0
M  V30 13 C 0.402128 2.322271 -2.066304 0
M  V30 14 C 0.840655 1.232433 -1.334179 0
M  V30 15 S -0.136850 -0.734697 2.094226 0
M  V30 16 H -0.186480 -2.023420 5.138424 0
M  V30 17 H 0.159149 -1.932425 4.947712 0
M  V30 18 H 2.666760 -2.835350 1.173081 0
M  V30 19 H 2.234905 -0.934625 -0.500296 0
M  V30 20 H -1.444373 1.377568 1.220560 0
M  V30 21 H -2.216349 3.326315 -0.103061 0
M  V30 22 H 0.864393 2.645242 -2.988699 0
M  V30 23 H 1.675954 0.678449 -1.691461 0
M  V30 END ATOM
M  V30 BEGIN BOND
M  V30 1 1 1 2
M  V30 2 2 2 3
M  V30 3 1 2 4
M  V30 4 2 4 5
M  V30 5 1 5 6
M  V30 6 2 6 7
M  V30 7 1 7 8
M  V30 8 2 8 9
M  V30 9 1 9 10
M  V30 10 2 10 11
M  V30 11 1 11 12
M  V30 12 1 11 13
M  V30 13 2 13 14
M  V30 14 1 7 15
M  V30 15 1 15 4
M  V30 16 1 14 8
M  V30 17 1 1 16
M  V30 18 1 1 17
M  V30 19 1 5 18
M  V30 20 1 6 19
M  V30 21 1 9 20
M  V30 22 1 10 21
M  V30 23 1 13 22
M  V30 24 1 14 23
M  V30 END BOND
M  V30 END CTAB
M  END
>  <Dataset>  (581) 
ChEMBL_Kinases

>  <Ligand_Instance>  (581) 
nan

>  <PDB_ID>  (581) 
nan

>  <Standardized_SMILES>  (581) 
NC(=O)c1ccc(-c2ccc(Cl)cc2)s1

>  <Name>  (581) 
nan

>  <Pocket>  (581) 
nan

>  <ATP_Site>  (581) 
nan

>  <Peripheral>  (581) 
nan

>  <Num_H_Atoms_ProtBoundConf>  (581) 
nan

>  <Num_Resolved_Atoms>  (581) 
nan

>  <Num_Not_Resolved_Atoms>  (581) 
nan

$$$$
CHEMBL206997
     RDKit          3D

  0  0  0  0  0  0  0  0  0  0999 V3000
M  V30 BEGIN CTAB
M  V30 COUNTS 59 60 0 0 0
M  V30 BEGIN ATOM
M  V30 1 C 2.828930 -3.615951 2.659588 0
M  V30 2 O 3.109733 -2.303866 3.041616 0
M  V30 3 C 2.523172 -1.186228 2.467580 0
M  V30 4 O 1.725082 -1.506407 1.578370 0
M  V30 5 C 2.922884 0.119915 2.981756 0
M  V30 6 C 3.819764 0.818193 2.000848 0
M  V30 7 C 3.117369 1.039160 0.662905 0
M  V30 8 C 3.987790 1.744207 -0.304970 0
M  V30 9 C 3.519250 1.986681 -1.678819 0
M  V30 10 C 2.248176 2.740089 -1.889750 0
M  V30 11 C 1.058746 1.987903 -1.410591 0
M  V30 12 O 0.492453 0.942897 -0.941340 0
M  V30 13 N -0.139152 2.781884 -1.472711 0
M  V30 14 C -1.185212 1.904741 -0.975407 0
M  V30 15 C -1.901796 1.095622 -1.833373 0
M  V30 16 C -2.865730 0.268934 -1.294138 0
M  V30 17 O -3.637969 -0.575305 -2.041535 0
M  V30 18 C -3.465725 -0.626565 -3.436608 0
M  V30 19 C -3.028350 0.328999 0.089844 0
M  V30 20 N -4.026173 -0.542300 0.670125 0
M  V30 21 C -3.400510 -1.781027 0.979739 0
M  V30 22 O -2.162800 -1.840700 0.688551 0
M  V30 23 N -3.975050 -2.937925 1.562742 0
M  V30 24 C -3.255986 -4.139016 1.830712 0
M  V30 25 C -3.862502 -5.212961 2.398526 0
M  V30 26 N -3.083659 -6.314216 2.609955 0
M  V30 27 C -1.790998 -6.307189 2.265267 0
M  V30 28 C -0.903839 -7.443785 2.462233 0
M  V30 29 N -0.210441 -8.359497 2.629098 0
M  V30 30 C -1.175766 -5.206367 1.685176 0
M  V30 31 N -1.945457 -4.123437 1.477977 0
M  V30 32 C -2.315278 1.135849 0.945749 0
M  V30 33 C -1.354993 1.957327 0.392244 0
M  V30 34 Cl -0.415125 3.013763 1.424408 0
M  V30 35 H 3.782861 -4.193346 2.782388 0
M  V30 36 H 2.465463 -3.719688 1.612647 0
M  V30 37 H 2.091043 -4.033308 3.385120 0
M  V30 38 H 2.068093 0.805428 3.169335 0
M  V30 39 H 3.489834 0.060682 3.934975 0
M  V30 40 H 4.204587 1.725904 2.458372 0
M  V30 41 H 4.705047 0.182912 1.776698 0
M  V30 42 H 2.172966 1.628948 0.861226 0
M  V30 43 H 2.815887 0.065185 0.278170 0
M  V30 44 H 5.001540 1.230786 -0.398176 0
M  V30 45 H 4.212669 2.759272 0.158859 0
M  V30 46 H 4.339915 2.463274 -2.312417 0
M  V30 47 H 3.381774 0.995584 -2.235931 0
M  V30 48 H 2.347774 3.708620 -1.327682 0
M  V30 49 H 2.118986 3.034705 -2.966309 0
M  V30 50 H -0.332392 3.788947 -1.791880 0
M  V30 51 H -1.719405 1.103341 -2.899213 0
M  V30 52 H -4.285889 -1.197370 -3.901375 0
M  V30 53 H -2.486782 -1.157892 -3.614751 0
M  V30 54 H -3.406311 0.367718 -3.915672 0
M  V30 55 H -5.053589 -0.507407 0.917335 0
M  V30 56 H -4.980174 -2.754617 1.748933 0
M  V30 57 H -4.897911 -5.206629 2.671300 0
M  V30 58 H -0.144009 -5.159412 1.394983 0
M  V30 59 H -2.473949 1.150007 1.996847 0
M  V30 END ATOM
M  V30 BEGIN BOND
M  V30 1 1 1 2
M  V30 2 1 2 3
M  V30 3 2 3 4
M  V30 4 1 3 5
M  V30 5 1 5 6
M  V30 6 1 6 7
M  V30 7 1 7 8
M  V30 8 1 8 9
M  V30 9 1 9 10
M  V30 10 1 10 11
M  V30 11 2 11 12
M  V30 12 1 11 13
M  V30 13 1 13 14
M  V30 14 2 14 15
M  V30 15 1 15 16
M  V30 16 1 16 17
M  V30 17 1 17 18
M  V30 18 2 16 19
M  V30 19 1 19 20
M  V30 20 1 20 21
M  V30 21 2 21 22
M  V30 22 1 21 23
M  V30 23 1 23 24
M  V30 24 2 24 25
M  V30 25 1 25 26
M  V30 26 2 26 27
M  V30 27 1 27 28
M  V30 28 3 28 29
M  V30 29 1 27 30
M  V30 30 2 30 31
M  V30 31 1 19 32
M  V30 32 2 32 33
M  V30 33 1 33 34
M  V30 34 1 33 14
M  V30 35 1 31 24
M  V30 36 1 1 35
M  V30 37 1 1 36
M  V30 38 1 1 37
M  V30 39 1 5 38
M  V30 40 1 5 39
M  V30 41 1 6 40
M  V30 42 1 6 41
M  V30 43 1 7 42
M  V30 44 1 7 43
M  V30 45 1 8 44
M  V30 46 1 8 45
M  V30 47 1 9 46
M  V30 48 1 9 47
M  V30 49 1 10 48
M  V30 50 1 10 49
M  V30 51 1 13 50
M  V30 52 1 15 51
M  V30 53 1 18 52
M  V30 54 1 18 53
M  V30 55 1 18 54
M  V30 56 1 20 55
M  V30 57 1 23 56
M  V30 58 1 25 57
M  V30 59 1 30 58
M  V30 60 1 32 59
M  V30 END BOND
M  V30 END CTAB
M  END
>  <Dataset>  (582) 
ChEMBL_Kinases

>  <Ligand_Instance>  (582) 
nan

>  <PDB_ID>  (582) 
nan

>  <Standardized_SMILES>  (582) 
COC(=O)CCCCCCC(=O)Nc1cc(OC)c(NC(=O)Nc2cnc(C#N)cn2)cc1Cl

>  <Name>  (582) 
nan

>  <Pocket>  (582) 
nan

>  <ATP_Site>  (582) 
nan

>  <Peripheral>  (582) 
nan

>  <Num_H_Atoms_ProtBoundConf>  (582) 
nan

>  <Num_Resolved_Atoms>  (582) 
nan

>  <Num_Not_Resolved_Atoms>  (582) 
nan

$$$$
CHEMBL206989
     RDKit          3D

  0  0  0  0  0  0  0  0  0  0999 V3000
M  V30 BEGIN CTAB
M  V30 COUNTS 32 34 0 0 0
M  V30 BEGIN ATOM
M  V30 1 C 2.137759 -0.525906 3.900906 0
M  V30 2 C 1.335397 -1.059971 2.753915 0
M  V30 3 N 1.152207 -2.343162 2.434325 0
M  V30 4 N 0.381878 -2.477040 1.351345 0
M  V30 5 C 0.059699 -3.751451 0.804601 0
M  V30 6 C 1.131356 -4.189956 -0.153956 0
M  V30 7 O 1.273679 -3.304594 -1.186390 0
M  V30 8 C 0.088139 -1.210978 1.004883 0
M  V30 9 C 0.656173 -0.278493 1.844255 0
M  V30 10 C 0.455662 1.070854 1.637661 0
M  V30 11 O 1.001522 1.874727 2.438307 0
M  V30 12 C -0.325837 1.491466 0.575009 0
M  V30 13 C -0.508589 2.847079 0.393362 0
M  V30 14 C -1.291399 3.292312 -0.669507 0
M  V30 15 Cl -1.595752 4.990784 -1.001704 0
M  V30 16 C -1.836985 2.315904 -1.478630 0
M  V30 17 C -1.679838 0.953002 -1.332919 0
M  V30 18 C -0.894923 0.528414 -0.266044 0
M  V30 19 N -0.670005 -0.783589 -0.023829 0
M  V30 20 O -1.278155 -1.651159 -0.895171 0
M  V30 21 H 2.929890 -1.211642 4.223367 0
M  V30 22 H 1.464390 -0.271542 4.751920 0
M  V30 23 H 2.570847 0.470373 3.601258 0
M  V30 24 H -0.942779 -3.800168 0.334377 0
M  V30 25 H 0.014825 -4.522193 1.625283 0
M  V30 26 H 0.755822 -5.150766 -0.607928 0
M  V30 27 H 2.067612 -4.363108 0.415134 0
M  V30 28 H 2.116052 -2.798284 -1.152883 0
M  V30 29 H -0.072042 3.587458 1.038621 0
M  V30 30 H -2.452186 2.649907 -2.314777 0
M  V30 31 H -2.129619 0.242673 -1.994930 0
M  V30 32 H -2.216913 -1.965247 -0.642487 0
M  V30 END ATOM
M  V30 BEGIN BOND
M  V30 1 1 1 2
M  V30 2 2 2 3
M  V30 3 1 3 4
M  V30 4 1 4 5
M  V30 5 1 5 6
M  V30 6 1 6 7
M  V30 7 1 4 8
M  V30 8 2 8 9
M  V30 9 1 9 10
M  V30 10 2 10 11
M  V30 11 1 10 12
M  V30 12 2 12 13
M  V30 13 1 13 14
M  V30 14 1 14 15
M  V30 15 2 14 16
M  V30 16 1 16 17
M  V30 17 2 17 18
M  V30 18 1 18 19
M  V30 19 1 19 20
M  V30 20 1 9 2
M  V30 21 1 18 12
M  V30 22 1 19 8
M  V30 23 1 1 21
M  V30 24 1 1 22
M  V30 25 1 1 23
M  V30 26 1 5 24
M  V30 27 1 5 25
M  V30 28 1 6 26
M  V30 29 1 6 27
M  V30 30 1 7 28
M  V30 31 1 13 29
M  V30 32 1 16 30
M  V30 33 1 17 31
M  V30 34 1 20 32
M  V30 END BOND
M  V30 END CTAB
M  END
>  <Dataset>  (583) 
ChEMBL_Kinases

>  <Ligand_Instance>  (583) 
nan

>  <PDB_ID>  (583) 
nan

>  <Standardized_SMILES>  (583) 
Cc1nn(CCO)c2c1c(=O)c1cc(Cl)ccc1n2O

>  <Name>  (583) 
nan

>  <Pocket>  (583) 
nan

>  <ATP_Site>  (583) 
nan

>  <Peripheral>  (583) 
nan

>  <Num_H_Atoms_ProtBoundConf>  (583) 
nan

>  <Num_Resolved_Atoms>  (583) 
nan

>  <Num_Not_Resolved_Atoms>  (583) 
nan

$$$$
CHEMBL206985
     RDKit          3D

  0  0  0  0  0  0  0  0  0  0999 V3000
M  V30 BEGIN CTAB
M  V30 COUNTS 24 25 0 0 0
M  V30 BEGIN ATOM
M  V30 1 N 0.053203 -2.605675 4.266850 0
M  V30 2 C -0.075209 -2.946863 2.907574 0
M  V30 3 O -0.373337 -4.135972 2.671765 0
M  V30 4 C 0.119734 -2.000863 1.822673 0
M  V30 5 N 0.436409 -0.710831 1.874676 0
M  V30 6 C 0.507508 -0.246097 0.600351 0
M  V30 7 C 0.816850 1.083048 0.144659 0
M  V30 8 C 0.834267 1.338793 -1.205124 0
M  V30 9 C 1.125925 2.602622 -1.713076 0
M  V30 10 C 1.413376 3.665300 -0.874910 0
M  V30 11 C 1.391815 3.391622 0.481916 0
M  V30 12 Cl 1.751404 4.717613 1.555259 0
M  V30 13 C 1.101868 2.136142 0.980081 0
M  V30 14 O 0.235681 -1.250910 -0.197336 0
M  V30 15 C -0.006238 -2.335341 0.489449 0
M  V30 16 N -0.331839 -3.594703 -0.056614 0
M  V30 17 H -0.013552 -1.817979 4.927792 0
M  V30 18 H 0.302962 -3.282887 5.010351 0
M  V30 19 H 0.619918 0.561758 -1.942874 0
M  V30 20 H 1.129000 2.760388 -2.775263 0
M  V30 21 H 1.632185 4.619290 -1.298768 0
M  V30 22 H 1.094874 1.961598 2.047351 0
M  V30 23 H -1.039709 -3.816068 -0.788894 0
M  V30 24 H 0.125043 -4.502239 0.226122 0
M  V30 END ATOM
M  V30 BEGIN BOND
M  V30 1 1 1 2
M  V30 2 2 2 3
M  V30 3 1 2 4
M  V30 4 1 4 5
M  V30 5 2 5 6
M  V30 6 1 6 7
M  V30 7 2 7 8
M  V30 8 1 8 9
M  V30 9 2 9 10
M  V30 10 1 10 11
M  V30 11 1 11 12
M  V30 12 2 11 13
M  V30 13 1 6 14
M  V30 14 1 14 15
M  V30 15 1 15 16
M  V30 16 2 15 4
M  V30 17 1 13 7
M  V30 18 1 1 17
M  V30 19 1 1 18
M  V30 20 1 8 19
M  V30 21 1 9 20
M  V30 22 1 10 21
M  V30 23 1 13 22
M  V30 24 1 16 23
M  V30 25 1 16 24
M  V30 END BOND
M  V30 END CTAB
M  END
>  <Dataset>  (584) 
ChEMBL_Kinases

>  <Ligand_Instance>  (584) 
nan

>  <PDB_ID>  (584) 
nan

>  <Standardized_SMILES>  (584) 
NC(=O)c1nc(-c2cccc(Cl)c2)oc1N

>  <Name>  (584) 
nan

>  <Pocket>  (584) 
nan

>  <ATP_Site>  (584) 
nan

>  <Peripheral>  (584) 
nan

>  <Num_H_Atoms_ProtBoundConf>  (584) 
nan

>  <Num_Resolved_Atoms>  (584) 
nan

>  <Num_Not_Resolved_Atoms>  (584) 
nan

$$$$
CHEMBL206609
     RDKit          3D

  0  0  0  0  0  0  0  0  0  0999 V3000
M  V30 BEGIN CTAB
M  V30 COUNTS 39 42 0 0 0
M  V30 BEGIN ATOM
M  V30 1 N 1.793193 -7.674685 -0.335641 0
M  V30 2 C 0.376042 -7.589363 -0.137637 0
M  V30 3 O -0.280586 -8.668041 -0.058084 0
M  V30 4 C -0.219862 -6.263944 -0.040319 0
M  V30 5 C -1.570577 -6.091226 0.149404 0
M  V30 6 C -2.192551 -4.862491 0.249295 0
M  V30 7 C -1.412139 -3.704534 0.153389 0
M  V30 8 N -1.670583 -2.383868 0.203726 0
M  V30 9 C -0.511605 -1.751162 0.049447 0
M  V30 10 C -0.251048 -0.295561 0.029078 0
M  V30 11 C 1.047254 0.199754 -0.146076 0
M  V30 12 C 1.258156 1.573736 -0.160429 0
M  V30 13 C 0.193652 2.444683 -0.002896 0
M  V30 14 O 0.495510 3.818335 -0.029901 0
M  V30 15 C 0.805502 4.442342 1.179546 0
M  V30 16 C 2.175717 4.394494 1.450570 0
M  V30 17 C 2.688772 4.958727 2.604902 0
M  V30 18 C 1.838288 5.576396 3.500058 0
M  V30 19 Cl 2.451842 6.305394 4.978603 0
M  V30 20 C 0.484821 5.618179 3.222434 0
M  V30 21 C -0.041436 5.060148 2.075874 0
M  V30 22 C -1.081116 1.940978 0.168894 0
M  V30 23 C -1.316667 0.580748 0.186825 0
M  V30 24 N 0.451963 -2.679521 -0.094674 0
M  V30 25 C -0.051606 -3.923133 -0.038200 0
M  V30 26 N 0.509214 -5.141589 -0.129474 0
M  V30 27 H 2.682807 -7.504605 0.181818 0
M  V30 28 H 2.693313 -7.499312 0.197354 0
M  V30 29 H -2.169785 -7.011493 0.222702 0
M  V30 30 H -3.270602 -4.763246 0.400299 0
M  V30 31 H -2.602882 -1.950924 0.338098 0
M  V30 32 H 1.856013 -0.526545 -0.266467 0
M  V30 33 H 2.292240 1.858252 -0.301137 0
M  V30 34 H 2.920883 3.929952 0.804871 0
M  V30 35 H 3.739621 4.948558 2.860732 0
M  V30 36 H -0.217885 6.091116 3.894396 0
M  V30 37 H -1.071740 5.039557 1.769774 0
M  V30 38 H -1.900988 2.647421 0.290613 0
M  V30 39 H -2.334178 0.215670 0.324350 0
M  V30 END ATOM
M  V30 BEGIN BOND
M  V30 1 1 1 2
M  V30 2 2 2 3
M  V30 3 1 2 4
M  V30 4 2 4 5
M  V30 5 1 5 6
M  V30 6 2 6 7
M  V30 7 1 7 8
M  V30 8 1 8 9
M  V30 9 1 9 10
M  V30 10 2 10 11
M  V30 11 1 11 12
M  V30 12 2 12 13
M  V30 13 1 13 14
M  V30 14 1 14 15
M  V30 15 2 15 16
M  V30 16 1 16 17
M  V30 17 2 17 18
M  V30 18 1 18 19
M  V30 19 1 18 20
M  V30 20 2 20 21
M  V30 21 1 13 22
M  V30 22 2 22 23
M  V30 23 2 9 24
M  V30 24 1 24 25
M  V30 25 2 25 26
M  V30 26 1 26 4
M  V30 27 1 25 7
M  V30 28 1 23 10
M  V30 29 1 21 15
M  V30 30 1 1 27
M  V30 31 1 1 28
M  V30 32 1 5 29
M  V30 33 1 6 30
M  V30 34 1 8 31
M  V30 35 1 11 32
M  V30 36 1 12 33
M  V30 37 1 16 34
M  V30 38 1 17 35
M  V30 39 1 20 36
M  V30 40 1 21 37
M  V30 41 1 22 38
M  V30 42 1 23 39
M  V30 END BOND
M  V30 END CTAB
M  END
>  <Dataset>  (585) 
ChEMBL_Kinases

>  <Ligand_Instance>  (585) 
nan

>  <PDB_ID>  (585) 
nan

>  <Standardized_SMILES>  (585) 
NC(=O)c1ccc2[nH]c(-c3ccc(Oc4ccc(Cl)cc4)cc3)nc2n1

>  <Name>  (585) 
nan

>  <Pocket>  (585) 
nan

>  <ATP_Site>  (585) 
nan

>  <Peripheral>  (585) 
nan

>  <Num_H_Atoms_ProtBoundConf>  (585) 
nan

>  <Num_Resolved_Atoms>  (585) 
nan

>  <Num_Not_Resolved_Atoms>  (585) 
nan

$$$$
CHEMBL206659
     RDKit          3D

  0  0  0  0  0  0  0  0  0  0999 V3000
M  V30 BEGIN CTAB
M  V30 COUNTS 51 54 0 0 0
M  V30 BEGIN ATOM
M  V30 1 C 3.066462 -5.310184 4.932053 0
M  V30 2 S 3.558073 -5.540684 3.242251 0
M  V30 3 O 4.958891 -6.092360 3.213805 0
M  V30 4 O 2.644143 -6.508246 2.596250 0
M  V30 5 C 3.560044 -4.012903 2.372766 0
M  V30 6 C 2.312363 -3.675980 1.831278 0
M  V30 7 C 2.194342 -2.483365 1.116451 0
M  V30 8 C 3.273699 -1.628460 0.928989 0
M  V30 9 N 3.159716 -0.404756 0.197622 0
M  V30 10 C 1.824063 -0.110480 -0.185677 0
M  V30 11 C 1.176197 0.711881 0.699858 0
M  V30 12 C -0.147315 1.049107 0.404867 0
M  V30 13 N -0.969658 1.896449 1.233081 0
M  V30 14 C -2.357395 2.363321 1.079569 0 CFG=1
M  V30 15 C -2.596614 3.220949 -0.089205 0
M  V30 16 C -3.142141 2.538781 -1.263761 0
M  V30 17 C -4.018472 1.368043 -1.105778 0 CFG=2
M  V30 18 N -5.413685 1.844343 -1.198500 0
M  V30 19 C -3.884546 0.570961 0.136084 0
M  V30 20 C -3.339240 1.279893 1.320770 0
M  V30 21 N -0.689932 0.549519 -0.715202 0
M  V30 22 C 0.038956 -0.246521 -1.508581 0
M  V30 23 N -0.372836 -0.826439 -2.672213 0
M  V30 24 C 0.683156 -1.538811 -3.131556 0
M  V30 25 N 1.721117 -1.409258 -2.283806 0
M  V30 26 N 1.311177 -0.624024 -1.308840 0
M  V30 27 C 4.469902 -2.017920 1.486157 0
M  V30 28 C 4.647251 -3.182542 2.201849 0
M  V30 29 H 3.128367 -4.262578 5.273734 0
M  V30 30 H 3.701234 -5.956426 5.565294 0
M  V30 31 H 2.015422 -5.677305 5.100230 0
M  V30 32 H 1.417869 -4.298770 1.937227 0
M  V30 33 H 1.231549 -2.230582 0.701899 0
M  V30 34 H 4.019702 0.135545 0.019430 0
M  V30 35 H 1.603438 1.118199 1.601782 0
M  V30 36 H -0.399692 2.196593 2.088936 0
M  V30 37 H -2.445680 3.074230 1.980277 0
M  V30 38 H -1.590222 3.659868 -0.387250 0
M  V30 39 H -3.218103 4.106114 0.223558 0
M  V30 40 H -3.702399 3.358834 -1.849444 0
M  V30 41 H -2.306438 2.333283 -2.000379 0
M  V30 42 H -3.908223 0.719684 -2.003856 0
M  V30 43 H -6.047058 1.116374 -1.573343 0
M  V30 44 H -5.467290 2.708273 -1.775414 0
M  V30 45 H -3.258643 -0.322309 -0.067910 0
M  V30 46 H -4.874102 0.132807 0.393538 0
M  V30 47 H -2.817368 0.558357 2.017707 0
M  V30 48 H -4.172217 1.666803 1.946108 0
M  V30 49 H 0.759354 -2.135458 -4.018947 0
M  V30 50 H 5.341083 -1.392892 1.370675 0
M  V30 51 H 5.569402 -3.515664 2.650225 0
M  V30 END ATOM
M  V30 BEGIN BOND
M  V30 1 1 1 2
M  V30 2 2 2 3
M  V30 3 2 2 4
M  V30 4 1 2 5
M  V30 5 2 5 6
M  V30 6 1 6 7
M  V30 7 2 7 8
M  V30 8 1 8 9
M  V30 9 1 9 10
M  V30 10 2 10 11
M  V30 11 1 11 12
M  V30 12 1 12 13
M  V30 13 1 13 14
M  V30 14 1 14 15
M  V30 15 1 15 16
M  V30 16 1 16 17
M  V30 17 1 17 18
M  V30 18 1 17 19
M  V30 19 1 19 20
M  V30 20 2 12 21
M  V30 21 1 21 22
M  V30 22 2 22 23
M  V30 23 1 23 24
M  V30 24 2 24 25
M  V30 25 1 25 26
M  V30 26 1 8 27
M  V30 27 2 27 28
M  V30 28 1 28 5
M  V30 29 1 26 10
M  V30 30 1 20 14
M  V30 31 1 26 22
M  V30 32 1 1 29
M  V30 33 1 1 30
M  V30 34 1 1 31
M  V30 35 1 6 32
M  V30 36 1 7 33
M  V30 37 1 9 34
M  V30 38 1 11 35
M  V30 39 1 13 36
M  V30 40 1 14 37 CFG=1
M  V30 41 1 15 38
M  V30 42 1 15 39
M  V30 43 1 16 40
M  V30 44 1 16 41
M  V30 45 1 17 42 CFG=3
M  V30 46 1 18 43
M  V30 47 1 18 44
M  V30 48 1 19 45
M  V30 49 1 19 46
M  V30 50 1 20 47
M  V30 51 1 20 48
M  V30 52 1 24 49
M  V30 53 1 27 50
M  V30 54 1 28 51
M  V30 END BOND
M  V30 END CTAB
M  END
>  <Dataset>  (586) 
ChEMBL_Kinases

>  <Ligand_Instance>  (586) 
nan

>  <PDB_ID>  (586) 
nan

>  <Standardized_SMILES>  (586) 
CS(=O)(=O)c1ccc(Nc2cc(N[C@H]3CC[C@H](N)CC3)nc3ncnn23)cc1

>  <Name>  (586) 
nan

>  <Pocket>  (586) 
nan

>  <ATP_Site>  (586) 
nan

>  <Peripheral>  (586) 
nan

>  <Num_H_Atoms_ProtBoundConf>  (586) 
nan

>  <Num_Resolved_Atoms>  (586) 
nan

>  <Num_Not_Resolved_Atoms>  (586) 
nan

$$$$
CHEMBL206663
     RDKit          3D

  0  0  0  0  0  0  0  0  0  0999 V3000
M  V30 BEGIN CTAB
M  V30 COUNTS 61 63 0 0 0
M  V30 BEGIN ATOM
M  V30 1 C 6.347008 5.001323 0.506236 0
M  V30 2 N 5.220697 4.330143 1.120150 0
M  V30 3 C 5.643397 3.725691 2.352014 0
M  V30 4 C 4.634389 3.343197 0.281271 0
M  V30 5 C 3.909579 3.919002 -0.920284 0
M  V30 6 O 3.382548 2.941170 -1.721238 0
M  V30 7 C 2.469312 2.090207 -1.200367 0
M  V30 8 C 2.146989 1.042482 -2.298472 0
M  V30 9 O 1.306961 0.129608 -1.984412 0
M  V30 10 C 0.255743 -0.596467 -1.644482 0
M  V30 11 C -1.095535 -0.530960 -1.407433 0
M  V30 12 C -1.676620 -1.718973 -1.037977 0
M  V30 13 N -3.084826 -1.464790 -0.850400 0
M  V30 14 C -3.924573 -1.481845 0.325249 0
M  V30 15 C -5.158262 -0.715940 -0.154485 0
M  V30 16 C -5.265275 -1.164200 -1.609021 0
M  V30 17 C -3.822427 -1.109861 -2.070365 0
M  V30 18 C -0.956481 -2.898616 -0.907722 0
M  V30 19 N -1.753342 -4.009841 -0.478799 0
M  V30 20 C -1.917029 -4.148869 0.895567 0
M  V30 21 O -1.475804 -3.410559 1.819464 0
M  V30 22 N -2.627643 -5.198586 1.537353 0
M  V30 23 C -2.957727 -5.618131 2.840260 0
M  V30 24 C -4.130336 -5.305439 3.583017 0
M  V30 25 N -4.261512 -5.803427 4.857768 0
M  V30 26 C -3.228856 -6.572727 5.306692 0
M  V30 27 C -3.521631 -7.015534 6.681004 0
M  V30 28 N -3.768038 -7.358252 7.755621 0
M  V30 29 C -2.085742 -6.903801 4.619272 0
M  V30 30 N -2.040261 -6.382659 3.411245 0
M  V30 31 C 0.467141 -2.868192 -1.182938 0
M  V30 32 C 1.223563 -1.655545 -1.599134 0
M  V30 33 Cl 2.650390 -2.531253 -1.825666 0
M  V30 34 H 6.869124 5.573667 1.314690 0
M  V30 35 H 7.126345 4.255859 0.152926 0
M  V30 36 H 6.093155 5.720845 -0.276732 0
M  V30 37 H 5.664073 2.630655 2.219596 0
M  V30 38 H 4.979871 4.021359 3.208337 0
M  V30 39 H 6.707441 4.027541 2.547902 0
M  V30 40 H 3.853743 2.818307 0.908483 0
M  V30 41 H 5.342592 2.556648 -0.005186 0
M  V30 42 H 4.665957 4.483629 -1.498277 0
M  V30 43 H 3.082090 4.584004 -0.625803 0
M  V30 44 H 1.528319 2.637007 -1.002667 0
M  V30 45 H 2.794145 1.608133 -0.289732 0
M  V30 46 H 1.758576 1.717719 -3.154035 0
M  V30 47 H 3.145796 0.670562 -2.681122 0
M  V30 48 H -1.319132 0.502202 -1.586660 0
M  V30 49 H -3.425373 -1.001203 1.168829 0
M  V30 50 H -4.212503 -2.496868 0.662577 0
M  V30 51 H -6.044388 -1.029252 0.430744 0
M  V30 52 H -4.974548 0.365078 -0.122578 0
M  V30 53 H -5.916953 -0.522997 -2.179402 0
M  V30 54 H -5.567186 -2.236340 -1.596827 0
M  V30 55 H -3.531603 -0.070512 -2.332166 0
M  V30 56 H -3.645924 -1.845889 -2.873907 0
M  V30 57 H -2.216083 -4.714735 -1.099213 0
M  V30 58 H -3.021051 -5.841522 0.840027 0
M  V30 59 H -4.808483 -4.687347 3.021543 0
M  V30 60 H -1.493807 -7.502799 5.252903 0
M  V30 61 H 0.632193 -3.942722 -0.967810 0
M  V30 END ATOM
M  V30 BEGIN BOND
M  V30 1 1 1 2
M  V30 2 1 2 3
M  V30 3 1 2 4
M  V30 4 1 4 5
M  V30 5 1 5 6
M  V30 6 1 6 7
M  V30 7 1 7 8
M  V30 8 1 8 9
M  V30 9 1 9 10
M  V30 10 2 10 11
M  V30 11 1 11 12
M  V30 12 1 12 13
M  V30 13 1 13 14
M  V30 14 1 14 15
M  V30 15 1 15 16
M  V30 16 1 16 17
M  V30 17 2 12 18
M  V30 18 1 18 19
M  V30 19 1 19 20
M  V30 20 2 20 21
M  V30 21 1 20 22
M  V30 22 1 22 23
M  V30 23 2 23 24
M  V30 24 1 24 25
M  V30 25 2 25 26
M  V30 26 1 26 27
M  V30 27 3 27 28
M  V30 28 1 26 29
M  V30 29 2 29 30
M  V30 30 1 18 31
M  V30 31 2 31 32
M  V30 32 1 32 33
M  V30 33 1 32 10
M  V30 34 1 17 13
M  V30 35 1 30 23
M  V30 36 1 1 34
M  V30 37 1 1 35
M  V30 38 1 1 36
M  V30 39 1 3 37
M  V30 40 1 3 38
M  V30 41 1 3 39
M  V30 42 1 4 40
M  V30 43 1 4 41
M  V30 44 1 5 42
M  V30 45 1 5 43
M  V30 46 1 7 44
M  V30 47 1 7 45
M  V30 48 1 8 46
M  V30 49 1 8 47
M  V30 50 1 11 48
M  V30 51 1 14 49
M  V30 52 1 14 50
M  V30 53 1 15 51
M  V30 54 1 15 52
M  V30 55 1 16 53
M  V30 56 1 16 54
M  V30 57 1 17 55
M  V30 58 1 17 56
M  V30 59 1 19 57
M  V30 60 1 22 58
M  V30 61 1 24 59
M  V30 62 1 29 60
M  V30 63 1 31 61
M  V30 END BOND
M  V30 END CTAB
M  END
>  <Dataset>  (587) 
ChEMBL_Kinases

>  <Ligand_Instance>  (587) 
nan

>  <PDB_ID>  (587) 
nan

>  <Standardized_SMILES>  (587) 
CN(C)CCOCCOc1cc(N2CCCC2)c(NC(=O)Nc2cnc(C#N)cn2)cc1Cl

>  <Name>  (587) 
nan

>  <Pocket>  (587) 
nan

>  <ATP_Site>  (587) 
nan

>  <Peripheral>  (587) 
nan

>  <Num_H_Atoms_ProtBoundConf>  (587) 
nan

>  <Num_Resolved_Atoms>  (587) 
nan

>  <Num_Not_Resolved_Atoms>  (587) 
nan

$$$$
CHEMBL206683
     RDKit          3D

  0  0  0  0  0  0  0  0  0  0999 V3000
M  V30 BEGIN CTAB
M  V30 COUNTS 28 29 0 0 0
M  V30 BEGIN ATOM
M  V30 1 N 0.921947 -3.673953 5.420242 0
M  V30 2 C 1.178634 -3.944100 4.047607 0
M  V30 3 O 1.626798 -5.047596 3.585329 0
M  V30 4 C 0.906954 -2.869295 3.085338 0
M  V30 5 C 0.415117 -1.623698 3.487002 0
M  V30 6 C 0.168033 -0.623337 2.541902 0
M  V30 7 C 0.406112 -0.852277 1.202442 0
M  V30 8 C 0.144739 0.198598 0.225187 0
M  V30 9 N 0.325682 0.124787 -1.099422 0
M  V30 10 C -0.021047 1.287753 -1.688361 0
M  V30 11 C 0.027375 1.616881 -3.110836 0
M  V30 12 N 0.486584 0.628195 -4.019083 0
M  V30 13 O -0.344083 2.768642 -3.453730 0
M  V30 14 C -0.428784 2.086280 -0.638852 0
M  V30 15 N -0.887038 3.434532 -0.839302 0
M  V30 16 O -0.314046 1.401299 0.474844 0
M  V30 17 C 0.891551 -2.071898 0.776077 0
M  V30 18 C 1.124934 -3.037878 1.733340 0
M  V30 19 H -0.115689 -3.790625 5.576430 0
M  V30 20 H -0.094763 -3.758790 5.704816 0
M  V30 21 H 0.244946 -1.494328 4.549321 0
M  V30 22 H -0.212765 0.324841 2.902510 0
M  V30 23 H 0.046393 -0.322451 -3.853670 0
M  V30 24 H 1.165937 0.628265 -4.819363 0
M  V30 25 H -1.941295 3.505173 -0.767004 0
M  V30 26 H -0.107655 4.109953 -1.020810 0
M  V30 27 H 1.081758 -2.261695 -0.272969 0
M  V30 28 H 1.509276 -3.996266 1.373623 0
M  V30 END ATOM
M  V30 BEGIN BOND
M  V30 1 1 1 2
M  V30 2 2 2 3
M  V30 3 1 2 4
M  V30 4 2 4 5
M  V30 5 1 5 6
M  V30 6 2 6 7
M  V30 7 1 7 8
M  V30 8 2 8 9
M  V30 9 1 9 10
M  V30 10 1 10 11
M  V30 11 1 11 12
M  V30 12 2 11 13
M  V30 13 2 10 14
M  V30 14 1 14 15
M  V30 15 1 14 16
M  V30 16 1 7 17
M  V30 17 2 17 18
M  V30 18 1 18 4
M  V30 19 1 16 8
M  V30 20 1 1 19
M  V30 21 1 1 20
M  V30 22 1 5 21
M  V30 23 1 6 22
M  V30 24 1 12 23
M  V30 25 1 12 24
M  V30 26 1 15 25
M  V30 27 1 15 26
M  V30 28 1 17 27
M  V30 29 1 18 28
M  V30 END BOND
M  V30 END CTAB
M  END
>  <Dataset>  (588) 
ChEMBL_Kinases

>  <Ligand_Instance>  (588) 
nan

>  <PDB_ID>  (588) 
nan

>  <Standardized_SMILES>  (588) 
NC(=O)c1ccc(-c2nc(C(N)=O)c(N)o2)cc1

>  <Name>  (588) 
nan

>  <Pocket>  (588) 
nan

>  <ATP_Site>  (588) 
nan

>  <Peripheral>  (588) 
nan

>  <Num_H_Atoms_ProtBoundConf>  (588) 
nan

>  <Num_Resolved_Atoms>  (588) 
nan

>  <Num_Not_Resolved_Atoms>  (588) 
nan

$$$$
CHEMBL206708
     RDKit          3D

  0  0  0  0  0  0  0  0  0  0999 V3000
M  V30 BEGIN CTAB
M  V30 COUNTS 64 69 0 0 0
M  V30 BEGIN ATOM
M  V30 1 N 3.251004 -2.332878 4.279478 0
M  V30 2 C 3.492610 -1.359986 3.201291 0 CFG=2
M  V30 3 C 4.595247 -1.801145 2.293783 0
M  V30 4 O 4.915751 -0.974290 1.245254 0
M  V30 5 C 4.252963 -0.510183 0.175434 0
M  V30 6 C 5.073909 0.332737 -0.590316 0
M  V30 7 N 4.647490 0.935535 -1.728337 0
M  V30 8 C 3.384494 0.709653 -2.131077 0
M  V30 9 C 2.513587 -0.102468 -1.440494 0
M  V30 10 C 1.139348 -0.390146 -1.824143 0
M  V30 11 C 0.542428 0.099243 -2.895088 0
M  V30 12 C -0.823972 -0.149609 -3.332462 0
M  V30 13 C -1.355947 0.426265 -4.480586 0
M  V30 14 C -2.651897 0.160895 -4.861518 0
M  V30 15 N -3.468184 -0.650956 -4.167760 0
M  V30 16 C -3.000276 -1.240153 -3.038236 0
M  V30 17 N -3.832059 -2.107255 -2.278925 0
M  V30 18 C -3.350661 -2.982358 -1.350120 0
M  V30 19 C -4.382497 -3.694347 -0.771621 0
M  V30 20 C -5.519213 -3.224294 -1.379657 0
M  V30 21 C -6.819232 -3.615844 -1.153402 0
M  V30 22 C -7.821880 -2.996967 -1.893290 0
M  V30 23 C -7.437415 -2.022383 -2.813020 0
M  V30 24 C -6.137337 -1.635362 -3.034786 0
M  V30 25 C -5.153815 -2.259128 -2.292363 0
M  V30 26 C -1.701938 -0.972239 -2.659410 0
M  V30 27 C 2.997371 -0.689553 -0.291972 0
M  V30 28 C 3.755446 -0.000740 3.807902 0
M  V30 29 C 2.646634 0.516710 4.619605 0
M  V30 30 C 2.487723 0.602916 5.998154 0
M  V30 31 N 1.295389 1.156898 6.287299 0
M  V30 32 C 0.635895 1.451274 5.153580 0
M  V30 33 C -0.577570 2.009566 4.815830 0
M  V30 34 C -1.017152 2.201305 3.531560 0
M  V30 35 C -0.195606 1.811740 2.492723 0
M  V30 36 C 1.026551 1.249290 2.812764 0
M  V30 37 C 1.461197 1.060127 4.119880 0
M  V30 38 H 3.809090 -2.029651 5.098383 0
M  V30 39 H 3.624531 -3.241799 3.944449 0
M  V30 40 H 2.545456 -1.344796 2.635969 0
M  V30 41 H 5.517786 -1.854029 2.950652 0
M  V30 42 H 4.472830 -2.881473 1.983540 0
M  V30 43 H 6.121359 0.600751 -0.375727 0
M  V30 44 H 3.035074 1.184331 -3.034167 0
M  V30 45 H 0.524550 -1.029529 -1.244563 0
M  V30 46 H 1.125188 0.772673 -3.542723 0
M  V30 47 H -0.706052 1.094129 -5.064335 0
M  V30 48 H -2.958212 0.671250 -5.780218 0
M  V30 49 H -2.313005 -3.169271 -1.035638 0
M  V30 50 H -4.312893 -4.459554 -0.004128 0
M  V30 51 H -7.080847 -4.381041 -0.426724 0
M  V30 52 H -8.845066 -3.287140 -1.733067 0
M  V30 53 H -8.263248 -1.578606 -3.357465 0
M  V30 54 H -5.878565 -0.873736 -3.758733 0
M  V30 55 H -1.386861 -1.469378 -1.753124 0
M  V30 56 H 2.382402 -1.329965 0.285016 0
M  V30 57 H 4.142693 0.720867 3.061289 0
M  V30 58 H 4.627571 -0.145671 4.511027 0
M  V30 59 H 3.257445 0.253009 6.675534 0
M  V30 60 H 0.938304 1.330812 7.252197 0
M  V30 61 H -1.206648 2.308353 5.659386 0
M  V30 62 H -1.994738 2.651876 3.313499 0
M  V30 63 H -0.488020 1.938180 1.468100 0
M  V30 64 H 1.651954 0.952160 1.979329 0
M  V30 END ATOM
M  V30 BEGIN BOND
M  V30 1 1 1 2
M  V30 2 1 2 3
M  V30 3 1 3 4
M  V30 4 1 4 5
M  V30 5 2 5 6
M  V30 6 1 6 7
M  V30 7 2 7 8
M  V30 8 1 8 9
M  V30 9 1 9 10
M  V30 10 2 10 11
M  V30 11 1 11 12
M  V30 12 2 12 13
M  V30 13 1 13 14
M  V30 14 2 14 15
M  V30 15 1 15 16
M  V30 16 1 16 17
M  V30 17 1 17 18
M  V30 18 2 18 19
M  V30 19 1 19 20
M  V30 20 2 20 21
M  V30 21 1 21 22
M  V30 22 2 22 23
M  V30 23 1 23 24
M  V30 24 2 24 25
M  V30 25 2 16 26
M  V30 26 2 9 27
M  V30 27 1 2 28
M  V30 28 1 28 29
M  V30 29 2 29 30
M  V30 30 1 30 31
M  V30 31 1 31 32
M  V30 32 2 32 33
M  V30 33 1 33 34
M  V30 34 2 34 35
M  V30 35 1 35 36
M  V30 36 2 36 37
M  V30 37 1 27 5
M  V30 38 1 37 29
M  V30 39 1 26 12
M  V30 40 1 37 32
M  V30 41 1 25 17
M  V30 42 1 25 20
M  V30 43 1 1 38
M  V30 44 1 1 39
M  V30 45 1 2 40 CFG=3
M  V30 46 1 3 41
M  V30 47 1 3 42
M  V30 48 1 6 43
M  V30 49 1 8 44
M  V30 50 1 10 45
M  V30 51 1 11 46
M  V30 52 1 13 47
M  V30 53 1 14 48
M  V30 54 1 18 49
M  V30 55 1 19 50
M  V30 56 1 21 51
M  V30 57 1 22 52
M  V30 58 1 23 53
M  V30 59 1 24 54
M  V30 60 1 26 55
M  V30 61 1 27 56
M  V30 62 1 28 57
M  V30 63 1 28 58
M  V30 64 1 30 59
M  V30 65 1 31 60
M  V30 66 1 33 61
M  V30 67 1 34 62
M  V30 68 1 35 63
M  V30 69 1 36 64
M  V30 END BOND
M  V30 END CTAB
M  END
>  <Dataset>  (589) 
ChEMBL_Kinases

>  <Ligand_Instance>  (589) 
nan

>  <PDB_ID>  (589) 
nan

>  <Standardized_SMILES>  (589) 
N[C@H](COc1cncc(/C=C/c2ccnc(-n3ccc4ccccc43)c2)c1)Cc1c[nH]c2ccccc12

>  <Name>  (589) 
nan

>  <Pocket>  (589) 
nan

>  <ATP_Site>  (589) 
nan

>  <Peripheral>  (589) 
nan

>  <Num_H_Atoms_ProtBoundConf>  (589) 
nan

>  <Num_Resolved_Atoms>  (589) 
nan

>  <Num_Not_Resolved_Atoms>  (589) 
nan

$$$$
CHEMBL206732
     RDKit          3D

  0  0  0  0  0  0  0  0  0  0999 V3000
M  V30 BEGIN CTAB
M  V30 COUNTS 54 58 0 0 0
M  V30 BEGIN ATOM
M  V30 1 N -2.325039 -1.097956 3.953607 0
M  V30 2 C -1.285420 -1.853172 3.214147 0 CFG=2
M  V30 3 C -0.394446 -0.826728 2.496392 0
M  V30 4 N 0.223470 0.060206 3.471928 0
M  V30 5 C 1.109652 1.139093 3.200737 0
M  V30 6 C 1.652954 1.933746 4.179621 0
M  V30 7 N 2.473296 2.914412 3.789559 0
M  V30 8 C 2.768756 3.130121 2.475648 0
M  V30 9 C 2.221534 2.326930 1.462954 0
M  V30 10 O 2.710878 2.796150 0.257913 0
M  V30 11 C 2.308023 2.274821 -0.955654 0
M  V30 12 C 3.395296 1.703756 -1.624142 0
M  V30 13 C 3.227659 1.110898 -2.877359 0
M  V30 14 C 1.972713 1.097081 -3.446785 0
M  V30 15 C 0.899073 1.661702 -2.787070 0
M  V30 16 C -0.391475 1.705896 -3.272737 0
M  V30 17 N -1.398097 2.283417 -2.573702 0
M  V30 18 C -1.192108 2.851090 -1.356058 0
M  V30 19 C 0.093068 2.838573 -0.809237 0
M  V30 20 C 1.061601 2.244391 -1.556462 0
M  V30 21 C 1.373838 1.312815 1.861213 0
M  V30 22 C -2.035183 -2.697248 2.248054 0
M  V30 23 C -1.251769 -3.574342 1.384778 0
M  V30 24 C 0.048887 -4.011447 1.254050 0
M  V30 25 N 0.201921 -4.866871 0.229024 0
M  V30 26 C -1.019408 -4.991686 -0.319526 0
M  V30 27 C -1.328421 -5.793559 -1.423537 0
M  V30 28 C -2.634113 -5.811924 -1.864279 0
M  V30 29 C -3.570648 -5.060210 -1.221942 0
M  V30 30 C -3.237943 -4.286855 -0.146133 0
M  V30 31 C -1.948108 -4.218458 0.352849 0
M  V30 32 H -2.572182 -0.238834 3.407810 0
M  V30 33 H -2.042317 -0.903531 4.921755 0
M  V30 34 H -0.731653 -2.421573 3.981057 0
M  V30 35 H 0.419639 -1.348336 1.976051 0
M  V30 36 H -1.038517 -0.204596 1.847757 0
M  V30 37 H -0.000055 -0.100291 4.500134 0
M  V30 38 H 1.381149 1.714313 5.200600 0
M  V30 39 H 3.455160 3.981701 2.413016 0
M  V30 40 H 4.427310 1.655805 -1.277027 0
M  V30 41 H 4.041236 0.654972 -3.431610 0
M  V30 42 H 1.783358 0.647578 -4.425548 0
M  V30 43 H -0.582415 1.257231 -4.248650 0
M  V30 44 H -2.055396 3.296979 -0.853527 0
M  V30 45 H 0.242118 3.291956 0.140644 0
M  V30 46 H 1.036053 0.785929 0.992990 0
M  V30 47 H -2.719203 -3.349144 2.866414 0
M  V30 48 H -2.728408 -2.042856 1.678351 0
M  V30 49 H 0.790514 -3.671415 1.928510 0
M  V30 50 H 1.125511 -5.287859 -0.003677 0
M  V30 51 H -0.581493 -6.387240 -1.928545 0
M  V30 52 H -2.911984 -6.421010 -2.716603 0
M  V30 53 H -4.600660 -5.039783 -1.525809 0
M  V30 54 H -3.977247 -3.688092 0.366759 0
M  V30 END ATOM
M  V30 BEGIN BOND
M  V30 1 1 1 2
M  V30 2 1 2 3
M  V30 3 1 3 4
M  V30 4 1 4 5
M  V30 5 2 5 6
M  V30 6 1 6 7
M  V30 7 2 7 8
M  V30 8 1 8 9
M  V30 9 1 9 10
M  V30 10 1 10 11
M  V30 11 2 11 12
M  V30 12 1 12 13
M  V30 13 2 13 14
M  V30 14 1 14 15
M  V30 15 2 15 16
M  V30 16 1 16 17
M  V30 17 2 17 18
M  V30 18 1 18 19
M  V30 19 2 19 20
M  V30 20 2 9 21
M  V30 21 1 2 22
M  V30 22 1 22 23
M  V30 23 2 23 24
M  V30 24 1 24 25
M  V30 25 1 25 26
M  V30 26 2 26 27
M  V30 27 1 27 28
M  V30 28 2 28 29
M  V30 29 1 29 30
M  V30 30 2 30 31
M  V30 31 1 21 5
M  V30 32 1 31 23
M  V30 33 1 20 11
M  V30 34 1 31 26
M  V30 35 1 20 15
M  V30 36 1 1 32
M  V30 37 1 1 33
M  V30 38 1 2 34 CFG=1
M  V30 39 1 3 35
M  V30 40 1 3 36
M  V30 41 1 4 37
M  V30 42 1 6 38
M  V30 43 1 8 39
M  V30 44 1 12 40
M  V30 45 1 13 41
M  V30 46 1 14 42
M  V30 47 1 16 43
M  V30 48 1 18 44
M  V30 49 1 19 45
M  V30 50 1 21 46
M  V30 51 1 22 47
M  V30 52 1 22 48
M  V30 53 1 24 49
M  V30 54 1 25 50
M  V30 55 1 27 51
M  V30 56 1 28 52
M  V30 57 1 29 53
M  V30 58 1 30 54
M  V30 END BOND
M  V30 END CTAB
M  END
>  <Dataset>  (590) 
ChEMBL_Kinases

>  <Ligand_Instance>  (590) 
nan

>  <PDB_ID>  (590) 
nan

>  <Standardized_SMILES>  (590) 
N[C@H](CNc1cncc(Oc2cccc3cnccc23)c1)Cc1c[nH]c2ccccc12

>  <Name>  (590) 
nan

>  <Pocket>  (590) 
nan

>  <ATP_Site>  (590) 
nan

>  <Peripheral>  (590) 
nan

>  <Num_H_Atoms_ProtBoundConf>  (590) 
nan

>  <Num_Resolved_Atoms>  (590) 
nan

>  <Num_Not_Resolved_Atoms>  (590) 
nan

$$$$
CHEMBL206735
     RDKit          3D

  0  0  0  0  0  0  0  0  0  0999 V3000
M  V30 BEGIN CTAB
M  V30 COUNTS 60 61 0 0 0
M  V30 BEGIN ATOM
M  V30 1 C -1.910669 0.224760 5.144846 0
M  V30 2 C -1.057801 -0.468219 4.107368 0
M  V30 3 C 0.327720 0.137103 4.041116 0
M  V30 4 C 1.171965 -0.570550 2.993772 0
M  V30 5 C 2.533741 0.102540 3.001878 0
M  V30 6 C 3.479710 -0.483216 2.022167 0
M  V30 7 C 3.088674 -0.439893 0.595716 0
M  V30 8 C 2.861509 0.889861 -0.004223 0
M  V30 9 C 2.473625 0.790887 -1.444551 0
M  V30 10 C 1.343198 1.241826 -1.927256 0
M  V30 11 C 0.190534 1.928948 -1.277409 0
M  V30 12 C -0.962319 1.294962 -2.060815 0
M  V30 13 C -2.200768 2.076969 -1.789429 0
M  V30 14 O -2.575888 1.814890 -0.456977 0
M  V30 15 C -1.088367 -0.162561 -1.771237 0
M  V30 16 O -1.979734 -0.749197 -2.732549 0
M  V30 17 C -2.295526 -2.081300 -2.715384 0
M  V30 18 O -1.600701 -2.434593 -1.707603 0
M  V30 19 C -2.567422 -3.524606 -2.606226 0
M  V30 20 C -1.814086 -4.087274 -1.456191 0
M  V30 21 C -0.555222 -4.613539 -1.445069 0
M  V30 22 C -0.025421 -5.087633 -0.274396 0
M  V30 23 C -0.712262 -5.063808 0.934990 0
M  V30 24 C -1.976683 -4.532029 0.909083 0
M  V30 25 C -2.521631 -4.054341 -0.249147 0
M  V30 26 O -0.445809 1.447952 -3.374768 0
M  V30 27 C 0.914671 1.171661 -3.320679 0
M  V30 28 O 1.616422 0.907900 -4.354355 0
M  V30 29 H -1.247024 0.622347 5.952131 0
M  V30 30 H -2.437553 1.063154 4.687642 0
M  V30 31 H -2.623896 -0.523425 5.579354 0
M  V30 32 H -0.978362 -1.540765 4.420789 0
M  V30 33 H -1.551043 -0.466943 3.113680 0
M  V30 34 H 0.238310 1.203855 3.758611 0
M  V30 35 H 0.803152 0.042943 5.024395 0
M  V30 36 H 0.664090 -0.532607 2.022297 0
M  V30 37 H 1.337015 -1.607728 3.357805 0
M  V30 38 H 2.444545 1.207123 2.959677 0
M  V30 39 H 2.941759 -0.119330 4.013445 0
M  V30 40 H 4.466799 -0.002686 2.186035 0
M  V30 41 H 3.629628 -1.548195 2.297721 0
M  V30 42 H 3.898981 -0.938229 0.022240 0
M  V30 43 H 2.186583 -1.063204 0.415706 0
M  V30 44 H 3.798692 1.519641 -0.014101 0
M  V30 45 H 2.098867 1.513034 0.477688 0
M  V30 46 H 3.188756 0.312074 -2.111456 0
M  V30 47 H 0.120008 1.705235 -0.204338 0
M  V30 48 H 0.227315 2.977698 -1.560327 0
M  V30 49 H -3.047568 1.784602 -2.406073 0
M  V30 50 H -1.953013 3.158723 -1.832844 0
M  V30 51 H -2.956897 2.643540 -0.035245 0
M  V30 52 H -1.589851 -0.251898 -0.772883 0
M  V30 53 H -0.119185 -0.675681 -1.740742 0
M  V30 54 H -2.192197 -4.053963 -3.512729 0
M  V30 55 H -3.653185 -3.737180 -2.512217 0
M  V30 56 H -0.057381 -4.617122 -2.384763 0
M  V30 57 H 0.988691 -5.510206 -0.271729 0
M  V30 58 H -0.305475 -5.436083 1.871806 0
M  V30 59 H -2.541877 -4.500167 1.847690 0
M  V30 60 H -3.533469 -3.651021 -0.167069 0
M  V30 END ATOM
M  V30 BEGIN BOND
M  V30 1 1 1 2
M  V30 2 1 2 3
M  V30 3 1 3 4
M  V30 4 1 4 5
M  V30 5 1 5 6
M  V30 6 1 6 7
M  V30 7 1 7 8
M  V30 8 1 8 9
M  V30 9 2 9 10
M  V30 10 1 10 11
M  V30 11 1 11 12
M  V30 12 1 12 13
M  V30 13 1 13 14
M  V30 14 1 12 15
M  V30 15 1 15 16
M  V30 16 1 16 17
M  V30 17 2 17 18
M  V30 18 1 17 19
M  V30 19 1 19 20
M  V30 20 2 20 21
M  V30 21 1 21 22
M  V30 22 2 22 23
M  V30 23 1 23 24
M  V30 24 2 24 25
M  V30 25 1 12 26
M  V30 26 1 26 27
M  V30 27 2 27 28
M  V30 28 1 27 10
M  V30 29 1 25 20
M  V30 30 1 1 29
M  V30 31 1 1 30
M  V30 32 1 1 31
M  V30 33 1 2 32
M  V30 34 1 2 33
M  V30 35 1 3 34
M  V30 36 1 3 35
M  V30 37 1 4 36
M  V30 38 1 4 37
M  V30 39 1 5 38
M  V30 40 1 5 39
M  V30 41 1 6 40
M  V30 42 1 6 41
M  V30 43 1 7 42
M  V30 44 1 7 43
M  V30 45 1 8 44
M  V30 46 1 8 45
M  V30 47 1 9 46
M  V30 48 1 11 47
M  V30 49 1 11 48
M  V30 50 1 13 49
M  V30 51 1 13 50
M  V30 52 1 14 51
M  V30 53 1 15 52
M  V30 54 1 15 53
M  V30 55 1 19 54
M  V30 56 1 19 55
M  V30 57 1 21 56
M  V30 58 1 22 57
M  V30 59 1 23 58
M  V30 60 1 24 59
M  V30 61 1 25 60
M  V30 END BOND
M  V30 END CTAB
M  END
>  <Dataset>  (591) 
ChEMBL_Kinases

>  <Ligand_Instance>  (591) 
nan

>  <PDB_ID>  (591) 
nan

>  <Standardized_SMILES>  (591) 
CCCCCCCC/C=C1\CC(CO)(COC(=O)Cc2ccccc2)OC1=O

>  <Name>  (591) 
nan

>  <Pocket>  (591) 
nan

>  <ATP_Site>  (591) 
nan

>  <Peripheral>  (591) 
nan

>  <Num_H_Atoms_ProtBoundConf>  (591) 
nan

>  <Num_Resolved_Atoms>  (591) 
nan

>  <Num_Not_Resolved_Atoms>  (591) 
nan

$$$$
CHEMBL206746
     RDKit          3D

  0  0  0  0  0  0  0  0  0  0999 V3000
M  V30 BEGIN CTAB
M  V30 COUNTS 54 57 0 0 0
M  V30 BEGIN ATOM
M  V30 1 N 3.945070 -2.998104 -5.813234 0
M  V30 2 C 3.456086 -2.684468 -4.510472 0
M  V30 3 O 2.280273 -2.990311 -4.142806 0
M  V30 4 C 4.495192 -1.981026 -3.706181 0
M  V30 5 C 4.015693 -1.638203 -2.341122 0
M  V30 6 C 4.199019 -2.593786 -1.355207 0
M  V30 7 C 3.776513 -2.325474 -0.082365 0
M  V30 8 C 3.181354 -1.109034 0.173575 0
M  V30 9 C 2.987208 -0.138821 -0.793828 0
M  V30 10 C 2.359527 1.148533 -0.525691 0
M  V30 11 C 2.623649 2.341582 -1.153395 0
M  V30 12 N 1.950378 3.473455 -0.789505 0
M  V30 13 C 1.013090 3.373663 0.212574 0
M  V30 14 C 0.683170 2.185760 0.906147 0
M  V30 15 O -0.248603 2.609010 1.749091 0
M  V30 16 C -1.050411 2.085157 2.710322 0
M  V30 17 C -2.081625 1.056833 2.299933 0 CFG=1
M  V30 18 N -1.443662 -0.082328 1.739260 0
M  V30 19 C -2.875054 0.662472 3.528059 0
M  V30 20 C -3.916442 -0.346094 3.234157 0
M  V30 21 C -5.248364 0.050097 3.053455 0
M  V30 22 N -6.030349 -1.005730 2.774955 0
M  V30 23 C -5.258987 -2.107519 2.763300 0
M  V30 24 C -5.486287 -3.459626 2.547217 0
M  V30 25 C -4.414925 -4.338599 2.623029 0
M  V30 26 C -3.124416 -3.917472 2.906898 0
M  V30 27 C -2.899200 -2.566653 3.122308 0
M  V30 28 C -3.971022 -1.707331 3.043169 0
M  V30 29 C 1.413223 1.109696 0.468007 0
M  V30 30 C 3.424106 -0.430140 -2.084812 0
M  V30 31 H 4.872095 -3.506651 -5.918103 0
M  V30 32 H 3.543885 -2.814427 -6.759576 0
M  V30 33 H 5.361979 -2.669855 -3.621950 0
M  V30 34 H 4.791350 -1.036087 -4.233080 0
M  V30 35 H 4.663394 -3.564150 -1.515929 0
M  V30 36 H 3.901865 -3.049281 0.722233 0
M  V30 37 H 2.855969 -0.914058 1.177688 0
M  V30 38 H 3.383629 2.239373 -1.911945 0
M  V30 39 H 0.666438 4.413895 0.264803 0
M  V30 40 H -0.410566 1.622267 3.524426 0
M  V30 41 H -1.555969 2.931650 3.269145 0
M  V30 42 H -2.760091 1.536937 1.543059 0
M  V30 43 H -0.699537 -0.435302 2.355487 0
M  V30 44 H -1.204430 -0.073766 0.755489 0
M  V30 45 H -3.291576 1.549386 4.035982 0
M  V30 46 H -2.187570 0.176016 4.274838 0
M  V30 47 H -5.696494 1.033600 3.106097 0
M  V30 48 H -7.055934 -1.040719 2.590009 0
M  V30 49 H -6.497830 -3.798403 2.323872 0
M  V30 50 H -4.694661 -5.379794 2.438040 0
M  V30 51 H -2.393526 -4.691148 2.936191 0
M  V30 52 H -1.897136 -2.258938 3.348344 0
M  V30 53 H 1.139564 0.247383 1.030207 0
M  V30 54 H 3.301906 0.283082 -2.883465 0
M  V30 END ATOM
M  V30 BEGIN BOND
M  V30 1 1 1 2
M  V30 2 2 2 3
M  V30 3 1 2 4
M  V30 4 1 4 5
M  V30 5 2 5 6
M  V30 6 1 6 7
M  V30 7 2 7 8
M  V30 8 1 8 9
M  V30 9 1 9 10
M  V30 10 2 10 11
M  V30 11 1 11 12
M  V30 12 2 12 13
M  V30 13 1 13 14
M  V30 14 1 14 15
M  V30 15 1 15 16
M  V30 16 1 16 17
M  V30 17 1 17 18
M  V30 18 1 17 19
M  V30 19 1 19 20
M  V30 20 2 20 21
M  V30 21 1 21 22
M  V30 22 1 22 23
M  V30 23 2 23 24
M  V30 24 1 24 25
M  V30 25 2 25 26
M  V30 26 1 26 27
M  V30 27 2 27 28
M  V30 28 2 14 29
M  V30 29 2 9 30
M  V30 30 1 30 5
M  V30 31 1 29 10
M  V30 32 1 28 20
M  V30 33 1 28 23
M  V30 34 1 1 31
M  V30 35 1 1 32
M  V30 36 1 4 33
M  V30 37 1 4 34
M  V30 38 1 6 35
M  V30 39 1 7 36
M  V30 40 1 8 37
M  V30 41 1 11 38
M  V30 42 1 13 39
M  V30 43 1 16 40
M  V30 44 1 16 41
M  V30 45 1 17 42 CFG=3
M  V30 46 1 18 43
M  V30 47 1 18 44
M  V30 48 1 19 45
M  V30 49 1 19 46
M  V30 50 1 21 47
M  V30 51 1 22 48
M  V30 52 1 24 49
M  V30 53 1 25 50
M  V30 54 1 26 51
M  V30 55 1 27 52
M  V30 56 1 29 53
M  V30 57 1 30 54
M  V30 END BOND
M  V30 END CTAB
M  END
>  <Dataset>  (592) 
ChEMBL_Kinases

>  <Ligand_Instance>  (592) 
nan

>  <PDB_ID>  (592) 
nan

>  <Standardized_SMILES>  (592) 
NC(=O)Cc1cccc(-c2cncc(OC[C@@H](N)Cc3c[nH]c4ccccc34)c2)c1

>  <Name>  (592) 
nan

>  <Pocket>  (592) 
nan

>  <ATP_Site>  (592) 
nan

>  <Peripheral>  (592) 
nan

>  <Num_H_Atoms_ProtBoundConf>  (592) 
nan

>  <Num_Resolved_Atoms>  (592) 
nan

>  <Num_Not_Resolved_Atoms>  (592) 
nan

$$$$
CHEMBL206961
     RDKit          3D

  0  0  0  0  0  0  0  0  0  0999 V3000
M  V30 BEGIN CTAB
M  V30 COUNTS 27 28 0 0 0
M  V30 BEGIN ATOM
M  V30 1 C 0.147434 -4.661928 1.854215 0
M  V30 2 C 0.148272 -3.239982 1.475976 0
M  V30 3 C 0.107142 -2.156368 2.327902 0
M  V30 4 C 0.110621 -0.833001 1.947615 0
M  V30 5 C 0.060817 0.140918 3.067539 0
M  V30 6 O 1.331749 0.682580 3.258577 0
M  V30 7 C 0.158920 -0.524221 0.597748 0
M  V30 8 C 0.170083 0.723641 0.085292 0
M  V30 9 N 0.135176 1.988851 0.744202 0
M  V30 10 C 0.223307 0.790908 -1.299742 0
M  V30 11 C 0.253435 1.935984 -2.256036 0
M  V30 12 N 0.305089 1.672116 -3.648584 0
M  V30 13 O 0.246722 3.160059 -2.192369 0
M  V30 14 S 0.255505 -0.880778 -1.809453 0
M  V30 15 C 0.197906 -1.577020 -0.206684 0
M  V30 16 N 0.194878 -2.899266 0.151914 0
M  V30 17 H -0.205876 -4.783650 2.910711 0
M  V30 18 H -0.511266 -5.307615 1.250531 0
M  V30 19 H 1.173983 -5.117650 1.781242 0
M  V30 20 H 0.070209 -2.453865 3.383299 0
M  V30 21 H -0.591165 1.021371 2.791701 0
M  V30 22 H -0.377455 -0.274062 3.973628 0
M  V30 23 H 1.742730 0.448824 4.128215 0
M  V30 24 H -0.822657 2.427978 0.824622 0
M  V30 25 H 0.949713 2.505074 1.141571 0
M  V30 26 H -0.507769 1.568999 -4.301744 0
M  V30 27 H 0.878157 1.497741 -4.503654 0
M  V30 END ATOM
M  V30 BEGIN BOND
M  V30 1 1 1 2
M  V30 2 2 2 3
M  V30 3 1 3 4
M  V30 4 1 4 5
M  V30 5 1 5 6
M  V30 6 2 4 7
M  V30 7 1 7 8
M  V30 8 1 8 9
M  V30 9 2 8 10
M  V30 10 1 10 11
M  V30 11 1 11 12
M  V30 12 2 11 13
M  V30 13 1 10 14
M  V30 14 1 14 15
M  V30 15 2 15 16
M  V30 16 1 16 2
M  V30 17 1 15 7
M  V30 18 1 1 17
M  V30 19 1 1 18
M  V30 20 1 1 19
M  V30 21 1 3 20
M  V30 22 1 5 21
M  V30 23 1 5 22
M  V30 24 1 6 23
M  V30 25 1 9 24
M  V30 26 1 9 25
M  V30 27 1 12 26
M  V30 28 1 12 27
M  V30 END BOND
M  V30 END CTAB
M  END
>  <Dataset>  (593) 
ChEMBL_Kinases

>  <Ligand_Instance>  (593) 
nan

>  <PDB_ID>  (593) 
nan

>  <Standardized_SMILES>  (593) 
Cc1cc(CO)c2c(N)c(C(N)=O)sc2n1

>  <Name>  (593) 
nan

>  <Pocket>  (593) 
nan

>  <ATP_Site>  (593) 
nan

>  <Peripheral>  (593) 
nan

>  <Num_H_Atoms_ProtBoundConf>  (593) 
nan

>  <Num_Resolved_Atoms>  (593) 
nan

>  <Num_Not_Resolved_Atoms>  (593) 
nan

$$$$
CHEMBL206803
     RDKit          3D

  0  0  0  0  0  0  0  0  0  0999 V3000
M  V30 BEGIN CTAB
M  V30 COUNTS 37 39 0 0 0
M  V30 BEGIN ATOM
M  V30 1 C -1.593570 -3.804522 0.690571 0
M  V30 2 N -0.533532 -2.827385 0.519051 0
M  V30 3 N 0.391281 -2.754022 -0.413908 0
M  V30 4 C 1.205818 -1.685241 -0.227488 0
M  V30 5 C 2.333740 -1.361086 -1.140894 0
M  V30 6 C 2.047910 -0.241852 -2.090160 0
M  V30 7 C 0.876718 -0.515149 -3.003481 0
M  V30 8 C 0.657324 0.649550 -3.916234 0
M  V30 9 O 1.448301 1.630322 -3.784379 0
M  V30 10 O -0.357427 0.661762 -4.860753 0
M  V30 11 C 0.717551 -1.080771 0.911200 0
M  V30 12 C 1.187157 0.050221 1.538029 0
M  V30 13 O 2.175957 0.702338 1.117184 0
M  V30 14 C 0.518495 0.468940 2.687363 0
M  V30 15 C 0.980013 1.605866 3.327582 0
M  V30 16 C 0.351312 2.062031 4.470565 0
M  V30 17 Cl 0.876756 3.494516 5.338201 0
M  V30 18 C -0.728193 1.324772 4.903959 0
M  V30 19 C -1.220709 0.187245 4.297486 0
M  V30 20 C -0.569951 -0.241406 3.158257 0
M  V30 21 N -0.994395 -1.354615 2.500759 0
M  V30 22 O -2.077306 -2.084018 2.947312 0
M  V30 23 C -0.369123 -1.792690 1.379360 0
M  V30 24 H -1.310345 -4.516070 1.518375 0
M  V30 25 H -2.536824 -3.310381 0.975962 0
M  V30 26 H -1.792039 -4.365902 -0.248698 0
M  V30 27 H 2.677265 -2.277105 -1.660647 0
M  V30 28 H 3.238552 -1.028893 -0.548733 0
M  V30 29 H 1.890730 0.735379 -1.600313 0
M  V30 30 H 2.979741 -0.115114 -2.704659 0
M  V30 31 H -0.023282 -0.815503 -2.469474 0
M  V30 32 H 1.143665 -1.365814 -3.671756 0
M  V30 33 H -0.503984 1.471110 -5.478509 0
M  V30 34 H 1.826078 2.179143 2.983017 0
M  V30 35 H -1.263969 1.630581 5.795293 0
M  V30 36 H -2.072684 -0.350015 4.683947 0
M  V30 37 H -1.979384 -2.922646 3.519579 0
M  V30 END ATOM
M  V30 BEGIN BOND
M  V30 1 1 1 2
M  V30 2 1 2 3
M  V30 3 2 3 4
M  V30 4 1 4 5
M  V30 5 1 5 6
M  V30 6 1 6 7
M  V30 7 1 7 8
M  V30 8 2 8 9
M  V30 9 1 8 10
M  V30 10 1 4 11
M  V30 11 1 11 12
M  V30 12 2 12 13
M  V30 13 1 12 14
M  V30 14 2 14 15
M  V30 15 1 15 16
M  V30 16 1 16 17
M  V30 17 2 16 18
M  V30 18 1 18 19
M  V30 19 2 19 20
M  V30 20 1 20 21
M  V30 21 1 21 22
M  V30 22 1 21 23
M  V30 23 1 23 2
M  V30 24 2 23 11
M  V30 25 1 20 14
M  V30 26 1 1 24
M  V30 27 1 1 25
M  V30 28 1 1 26
M  V30 29 1 5 27
M  V30 30 1 5 28
M  V30 31 1 6 29
M  V30 32 1 6 30
M  V30 33 1 7 31
M  V30 34 1 7 32
M  V30 35 1 10 33
M  V30 36 1 15 34
M  V30 37 1 18 35
M  V30 38 1 19 36
M  V30 39 1 22 37
M  V30 END BOND
M  V30 END CTAB
M  END
>  <Dataset>  (594) 
ChEMBL_Kinases

>  <Ligand_Instance>  (594) 
nan

>  <PDB_ID>  (594) 
nan

>  <Standardized_SMILES>  (594) 
Cn1nc(CCCC(=O)O)c2c(=O)c3cc(Cl)ccc3n(O)c21

>  <Name>  (594) 
nan

>  <Pocket>  (594) 
nan

>  <ATP_Site>  (594) 
nan

>  <Peripheral>  (594) 
nan

>  <Num_H_Atoms_ProtBoundConf>  (594) 
nan

>  <Num_Resolved_Atoms>  (594) 
nan

>  <Num_Not_Resolved_Atoms>  (594) 
nan

$$$$
CHEMBL206812
     RDKit          3D

  0  0  0  0  0  0  0  0  0  0999 V3000
M  V30 BEGIN CTAB
M  V30 COUNTS 54 56 0 0 0
M  V30 BEGIN ATOM
M  V30 1 C -1.372028 3.694833 4.557943 0
M  V30 2 N -0.403285 3.065625 3.598104 0
M  V30 3 C -0.811989 1.637875 3.672321 0
M  V30 4 C 0.862770 3.223220 4.214545 0
M  V30 5 C 2.108596 2.993606 3.465136 0
M  V30 6 O 2.433634 1.831956 2.873810 0
M  V30 7 C 2.021548 1.032436 1.877550 0
M  V30 8 C 1.011844 1.074784 0.947050 0
M  V30 9 C 0.740720 0.139133 -0.023297 0
M  V30 10 N -0.326498 0.385741 -0.891828 0
M  V30 11 C -1.282707 1.477091 -0.832525 0
M  V30 12 C -2.594567 0.701221 -0.626386 0
M  V30 13 C -2.332475 -0.458326 -1.574490 0
M  V30 14 C -0.894866 -0.193122 -2.065073 0
M  V30 15 C 1.574560 -0.930234 -0.041086 0
M  V30 16 N 1.393456 -1.966289 -0.973631 0
M  V30 17 C 0.671981 -3.208265 -0.894320 0
M  V30 18 O 0.020714 -3.635317 0.089482 0
M  V30 19 N 0.768342 -3.948206 -2.094310 0
M  V30 20 C 0.122774 -5.220017 -2.224441 0
M  V30 21 C 0.186057 -5.993160 -3.391901 0
M  V30 22 N -0.442702 -7.168968 -3.429047 0
M  V30 23 C -1.140682 -7.661995 -2.403875 0
M  V30 24 C -1.778913 -8.950530 -2.563716 0
M  V30 25 N -2.301386 -9.962522 -2.686946 0
M  V30 26 C -1.210791 -6.911698 -1.250703 0
M  V30 27 N -0.584860 -5.699932 -1.159119 0
M  V30 28 C 2.645424 -1.100086 0.849804 0
M  V30 29 C 2.857256 -0.099064 1.812751 0
M  V30 30 Cl 4.236134 -0.417202 2.884373 0
M  V30 31 H -2.394414 3.601206 4.170933 0
M  V30 32 H -1.328612 3.164520 5.534830 0
M  V30 33 H -1.088605 4.736113 4.757835 0
M  V30 34 H 0.081771 1.068505 3.948011 0
M  V30 35 H -1.598839 1.500761 4.464763 0
M  V30 36 H -1.227700 1.382973 2.698605 0
M  V30 37 H 0.934867 2.584428 5.153530 0
M  V30 38 H 0.858542 4.278434 4.653401 0
M  V30 39 H 2.990660 3.420458 4.083353 0
M  V30 40 H 2.096217 3.794324 2.626364 0
M  V30 41 H 0.455337 2.004539 1.113152 0
M  V30 42 H -1.213467 2.150154 -0.003318 0
M  V30 43 H -1.322328 2.045485 -1.783243 0
M  V30 44 H -3.476817 1.300387 -0.894498 0
M  V30 45 H -2.619653 0.387722 0.435073 0
M  V30 46 H -3.052382 -0.523927 -2.387323 0
M  V30 47 H -2.312183 -1.378269 -0.951837 0
M  V30 48 H -0.994893 0.569031 -2.880286 0
M  V30 49 H -0.540830 -1.145399 -2.409959 0
M  V30 50 H 1.925870 -1.633432 -1.798474 0
M  V30 51 H 1.300787 -3.650353 -2.966640 0
M  V30 52 H 0.753069 -5.571743 -4.198201 0
M  V30 53 H -1.789532 -7.362922 -0.455730 0
M  V30 54 H 3.276035 -1.979035 0.782184 0
M  V30 END ATOM
M  V30 BEGIN BOND
M  V30 1 1 1 2
M  V30 2 1 2 3
M  V30 3 1 2 4
M  V30 4 1 4 5
M  V30 5 1 5 6
M  V30 6 1 6 7
M  V30 7 2 7 8
M  V30 8 1 8 9
M  V30 9 1 9 10
M  V30 10 1 10 11
M  V30 11 1 11 12
M  V30 12 1 12 13
M  V30 13 1 13 14
M  V30 14 2 9 15
M  V30 15 1 15 16
M  V30 16 1 16 17
M  V30 17 2 17 18
M  V30 18 1 17 19
M  V30 19 1 19 20
M  V30 20 2 20 21
M  V30 21 1 21 22
M  V30 22 2 22 23
M  V30 23 1 23 24
M  V30 24 3 24 25
M  V30 25 1 23 26
M  V30 26 2 26 27
M  V30 27 1 15 28
M  V30 28 2 28 29
M  V30 29 1 29 30
M  V30 30 1 29 7
M  V30 31 1 14 10
M  V30 32 1 27 20
M  V30 33 1 1 31
M  V30 34 1 1 32
M  V30 35 1 1 33
M  V30 36 1 3 34
M  V30 37 1 3 35
M  V30 38 1 3 36
M  V30 39 1 4 37
M  V30 40 1 4 38
M  V30 41 1 5 39
M  V30 42 1 5 40
M  V30 43 1 8 41
M  V30 44 1 11 42
M  V30 45 1 11 43
M  V30 46 1 12 44
M  V30 47 1 12 45
M  V30 48 1 13 46
M  V30 49 1 13 47
M  V30 50 1 14 48
M  V30 51 1 14 49
M  V30 52 1 16 50
M  V30 53 1 19 51
M  V30 54 1 21 52
M  V30 55 1 26 53
M  V30 56 1 28 54
M  V30 END BOND
M  V30 END CTAB
M  END
>  <Dataset>  (595) 
ChEMBL_Kinases

>  <Ligand_Instance>  (595) 
nan

>  <PDB_ID>  (595) 
nan

>  <Standardized_SMILES>  (595) 
CN(C)CCOc1cc(N2CCCC2)c(NC(=O)Nc2cnc(C#N)cn2)cc1Cl

>  <Name>  (595) 
nan

>  <Pocket>  (595) 
nan

>  <ATP_Site>  (595) 
nan

>  <Peripheral>  (595) 
nan

>  <Num_H_Atoms_ProtBoundConf>  (595) 
nan

>  <Num_Resolved_Atoms>  (595) 
nan

>  <Num_Not_Resolved_Atoms>  (595) 
nan

$$$$
CHEMBL206819
     RDKit          3D

  0  0  0  0  0  0  0  0  0  0999 V3000
M  V30 BEGIN CTAB
M  V30 COUNTS 52 56 0 0 0
M  V30 BEGIN ATOM
M  V30 1 N 0.685098 -4.384342 3.209687 0
M  V30 2 C -0.132684 -3.937630 2.070467 0 CFG=2
M  V30 3 C 0.317214 -2.538878 1.685406 0
M  V30 4 O 1.682035 -2.518133 1.315851 0
M  V30 5 C 2.275468 -1.320793 0.938689 0
M  V30 6 C 3.628009 -1.351484 0.579551 0
M  V30 7 N 4.271088 -0.212075 0.199954 0
M  V30 8 C 3.627610 0.974523 0.158910 0
M  V30 9 C 4.255778 2.145598 -0.220119 0
M  V30 10 C 3.625318 3.371476 -0.269574 0
M  V30 11 C 2.272712 3.445486 0.081981 0
M  V30 12 C 1.532015 4.702423 0.058724 0
M  V30 13 C 1.741557 5.764120 -0.804468 0
M  V30 14 C 0.933009 6.899260 -0.684733 0
M  V30 15 N -0.044773 7.021572 0.227608 0
M  V30 16 C -0.258062 5.998393 1.070646 0
M  V30 17 C 0.509624 4.846708 1.002260 0
M  V30 18 C 1.632108 2.275724 0.463797 0
M  V30 19 C 2.283653 1.060695 0.505681 0
M  V30 20 C 1.627344 -0.103907 0.893378 0
M  V30 21 C -1.566067 -3.925253 2.565454 0
M  V30 22 C -2.485185 -3.490629 1.481485 0
M  V30 23 C -3.148434 -2.319315 1.200417 0
M  V30 24 N -3.868453 -2.454669 0.070952 0
M  V30 25 C -3.715472 -3.694196 -0.431661 0
M  V30 26 C -4.212652 -4.373458 -1.550145 0
M  V30 27 C -3.838294 -5.696433 -1.775618 0
M  V30 28 C -2.986946 -6.371445 -0.929818 0
M  V30 29 C -2.514316 -5.673741 0.164123 0
M  V30 30 C -2.857587 -4.344840 0.438015 0
M  V30 31 H 0.142446 -4.408999 4.078596 0
M  V30 32 H 1.148704 -5.286750 3.020818 0
M  V30 33 H -0.055791 -4.585076 1.201724 0
M  V30 34 H -0.308065 -2.261683 0.797345 0
M  V30 35 H 0.062987 -1.817026 2.481031 0
M  V30 36 H 4.212362 -2.256273 0.584952 0
M  V30 37 H 5.294145 2.115716 -0.494479 0
M  V30 38 H 4.135684 4.260509 -0.565146 0
M  V30 39 H 2.522577 5.642512 -1.518147 0
M  V30 40 H 1.172380 7.685342 -1.407693 0
M  V30 41 H -1.054881 6.124246 1.797318 0
M  V30 42 H 0.255443 4.067599 1.736226 0
M  V30 43 H 0.591215 2.296246 0.740845 0
M  V30 44 H 0.581064 -0.088604 1.173033 0
M  V30 45 H -1.832375 -4.977465 2.815328 0
M  V30 46 H -1.658000 -3.273176 3.462357 0
M  V30 47 H -3.048368 -1.459925 1.849268 0
M  V30 48 H -4.465899 -1.729138 -0.375422 0
M  V30 49 H -4.884758 -3.860906 -2.229901 0
M  V30 50 H -4.198836 -6.249081 -2.623306 0
M  V30 51 H -2.682374 -7.408462 -1.088906 0
M  V30 52 H -1.836036 -6.220904 0.830949 0
M  V30 END ATOM
M  V30 BEGIN BOND
M  V30 1 1 1 2
M  V30 2 1 2 3
M  V30 3 1 3 4
M  V30 4 1 4 5
M  V30 5 2 5 6
M  V30 6 1 6 7
M  V30 7 2 7 8
M  V30 8 1 8 9
M  V30 9 2 9 10
M  V30 10 1 10 11
M  V30 11 1 11 12
M  V30 12 2 12 13
M  V30 13 1 13 14
M  V30 14 2 14 15
M  V30 15 1 15 16
M  V30 16 2 16 17
M  V30 17 2 11 18
M  V30 18 1 18 19
M  V30 19 2 19 20
M  V30 20 1 2 21
M  V30 21 1 21 22
M  V30 22 2 22 23
M  V30 23 1 23 24
M  V30 24 1 24 25
M  V30 25 2 25 26
M  V30 26 1 26 27
M  V30 27 2 27 28
M  V30 28 1 28 29
M  V30 29 2 29 30
M  V30 30 1 20 5
M  V30 31 1 30 22
M  V30 32 1 19 8
M  V30 33 1 30 25
M  V30 34 1 17 12
M  V30 35 1 1 31
M  V30 36 1 1 32
M  V30 37 1 2 33 CFG=3
M  V30 38 1 3 34
M  V30 39 1 3 35
M  V30 40 1 6 36
M  V30 41 1 9 37
M  V30 42 1 10 38
M  V30 43 1 13 39
M  V30 44 1 14 40
M  V30 45 1 16 41
M  V30 46 1 17 42
M  V30 47 1 18 43
M  V30 48 1 20 44
M  V30 49 1 21 45
M  V30 50 1 21 46
M  V30 51 1 23 47
M  V30 52 1 24 48
M  V30 53 1 26 49
M  V30 54 1 27 50
M  V30 55 1 28 51
M  V30 56 1 29 52
M  V30 END BOND
M  V30 END CTAB
M  END
>  <Dataset>  (596) 
ChEMBL_Kinases

>  <Ligand_Instance>  (596) 
nan

>  <PDB_ID>  (596) 
nan

>  <Standardized_SMILES>  (596) 
N[C@H](COc1cnc2ccc(-c3ccncc3)cc2c1)Cc1c[nH]c2ccccc12

>  <Name>  (596) 
nan

>  <Pocket>  (596) 
nan

>  <ATP_Site>  (596) 
nan

>  <Peripheral>  (596) 
nan

>  <Num_H_Atoms_ProtBoundConf>  (596) 
nan

>  <Num_Resolved_Atoms>  (596) 
nan

>  <Num_Not_Resolved_Atoms>  (596) 
nan

$$$$
CHEMBL2068217
     RDKit          3D

  0  0  0  0  0  0  0  0  0  0999 V3000
M  V30 BEGIN CTAB
M  V30 COUNTS 53 56 0 0 0
M  V30 BEGIN ATOM
M  V30 1 C 6.983848 -1.455402 2.685637 0
M  V30 2 C 5.896183 -1.251986 1.902518 0
M  V30 3 C 5.395465 -2.537901 1.383525 0
M  V30 4 C 5.500687 0.155003 1.763916 0
M  V30 5 O 4.247128 0.518637 2.185713 0
M  V30 6 C 2.998759 0.162144 1.793384 0
M  V30 7 C 2.081067 0.848371 2.605525 0
M  V30 8 C 0.693043 0.709221 2.466701 0
M  V30 9 C 0.193320 -0.137952 1.490923 0
M  V30 10 C 1.099534 -0.806611 0.698552 0
M  V30 11 C 2.457698 -0.664432 0.841111 0
M  V30 12 C 0.587272 -1.715366 -0.356856 0
M  V30 13 C -0.522776 -1.073554 -1.150848 0
M  V30 14 C -1.549453 -0.370683 -0.293008 0 CFG=2
M  V30 15 C -1.221518 -0.428080 1.184316 0 CFG=2
M  V30 16 C -2.188602 0.464349 1.904718 0
M  V30 17 C -3.570171 -0.190443 1.767505 0
M  V30 18 C -3.911908 -0.099313 0.303414 0 CFG=2
M  V30 19 C -4.026373 1.282671 -0.218878 0
M  V30 20 C -5.151465 -0.855339 -0.043801 0
M  V30 21 O -6.254645 -1.090028 0.530214 0
M  V30 22 C -4.910519 -1.413341 -1.396967 0
M  V30 23 N -5.657443 -2.076842 -2.241539 0
M  V30 24 O -5.179573 -2.493298 -3.472058 0
M  V30 25 C -3.486980 -1.084495 -1.758147 0
M  V30 26 C -2.906811 -0.977796 -0.407009 0 CFG=1
M  V30 27 H 7.583970 -2.286237 3.035183 0
M  V30 28 H 7.868485 -1.541109 3.331718 0
M  V30 29 H 4.445410 -2.822942 1.908725 0
M  V30 30 H 5.187067 -2.484402 0.277947 0
M  V30 31 H 6.066429 -3.394122 1.500765 0
M  V30 32 H 6.244969 0.830410 2.259008 0
M  V30 33 H 5.600759 0.400047 0.662827 0
M  V30 34 H 2.277905 1.554149 3.422085 0
M  V30 35 H -0.048074 1.205522 3.054423 0
M  V30 36 H 3.214046 -1.147253 0.249890 0
M  V30 37 H 0.248460 -2.688792 0.088068 0
M  V30 38 H 1.393970 -1.940615 -1.078618 0
M  V30 39 H -1.055301 -1.903837 -1.663394 0
M  V30 40 H -0.100284 -0.425944 -1.948221 0
M  V30 41 H -1.503687 0.710898 -0.561469 0
M  V30 42 H -1.438264 -1.475722 1.532231 0
M  V30 43 H -1.977395 0.597783 2.984873 0
M  V30 44 H -2.158198 1.469166 1.441131 0
M  V30 45 H -3.413808 -1.265983 2.002998 0
M  V30 46 H -4.310907 0.246543 2.428928 0
M  V30 47 H -3.321185 1.544615 -1.023898 0
M  V30 48 H -5.054264 1.479168 -0.643998 0
M  V30 49 H -3.949260 2.011110 0.629465 0
M  V30 50 H -4.399632 -3.164423 -3.496468 0
M  V30 51 H -3.485794 -0.114928 -2.263294 0
M  V30 52 H -3.032833 -1.887880 -2.363882 0
M  V30 53 H -2.892285 -1.936738 0.132024 0
M  V30 END ATOM
M  V30 BEGIN BOND
M  V30 1 2 1 2
M  V30 2 1 2 3
M  V30 3 1 2 4
M  V30 4 1 4 5
M  V30 5 1 5 6
M  V30 6 2 6 7
M  V30 7 1 7 8
M  V30 8 2 8 9
M  V30 9 1 9 10
M  V30 10 2 10 11
M  V30 11 1 10 12
M  V30 12 1 12 13
M  V30 13 1 13 14
M  V30 14 1 14 15
M  V30 15 1 15 16
M  V30 16 1 16 17
M  V30 17 1 17 18
M  V30 18 1 18 19 CFG=3
M  V30 19 1 18 20
M  V30 20 2 20 21
M  V30 21 1 20 22
M  V30 22 2 22 23
M  V30 23 1 23 24
M  V30 24 1 22 25
M  V30 25 1 25 26
M  V30 26 1 11 6
M  V30 27 1 26 14
M  V30 28 1 15 9
M  V30 29 1 26 18
M  V30 30 1 1 27
M  V30 31 1 1 28
M  V30 32 1 3 29
M  V30 33 1 3 30
M  V30 34 1 3 31
M  V30 35 1 4 32
M  V30 36 1 4 33
M  V30 37 1 7 34
M  V30 38 1 8 35
M  V30 39 1 11 36
M  V30 40 1 12 37
M  V30 41 1 12 38
M  V30 42 1 13 39
M  V30 43 1 13 40
M  V30 44 1 14 41 CFG=3
M  V30 45 1 15 42 CFG=1
M  V30 46 1 16 43
M  V30 47 1 16 44
M  V30 48 1 17 45
M  V30 49 1 17 46
M  V30 50 1 19 47
M  V30 51 1 19 48
M  V30 52 1 19 49
M  V30 53 1 24 50
M  V30 54 1 25 51
M  V30 55 1 25 52
M  V30 56 1 26 53 CFG=1
M  V30 END BOND
M  V30 END CTAB
M  END
>  <Dataset>  (597) 
ChEMBL_Kinases

>  <Ligand_Instance>  (597) 
nan

>  <PDB_ID>  (597) 
nan

>  <Standardized_SMILES>  (597) 
C=C(C)COc1ccc2c(c1)CC[C@@H]1[C@@H]2CC[C@]2(C)C(=O)/C(=N/O)C[C@@H]12

>  <Name>  (597) 
nan

>  <Pocket>  (597) 
nan

>  <ATP_Site>  (597) 
nan

>  <Peripheral>  (597) 
nan

>  <Num_H_Atoms_ProtBoundConf>  (597) 
nan

>  <Num_Resolved_Atoms>  (597) 
nan

>  <Num_Not_Resolved_Atoms>  (597) 
nan

$$$$
CHEMBL206896
     RDKit          3D

  0  0  0  0  0  0  0  0  0  0999 V3000
M  V30 BEGIN CTAB
M  V30 COUNTS 37 39 0 0 0
M  V30 BEGIN ATOM
M  V30 1 C -0.549469 -4.058539 4.278212 0
M  V30 2 C -0.849458 -2.960626 3.361692 0
M  V30 3 C 0.169368 -2.153496 2.906657 0
M  V30 4 C 0.079302 -1.081655 2.046579 0
M  V30 5 C 1.314269 -0.313490 1.653839 0
M  V30 6 O 1.629802 -0.743510 0.370717 0
M  V30 7 C 2.657412 -0.355909 -0.439253 0
M  V30 8 C 2.644002 -1.025172 -1.669517 0
M  V30 9 C 3.585478 -0.802230 -2.659427 0
M  V30 10 C 4.571909 0.124142 -2.403341 0
M  V30 11 C 4.622978 0.805682 -1.206908 0
M  V30 12 C 3.681721 0.576310 -0.228174 0
M  V30 13 C -1.163059 -0.748627 1.563942 0
M  V30 14 C -1.618562 0.217668 0.724292 0
M  V30 15 N -0.732880 1.144510 0.149552 0
M  V30 16 C -2.908110 0.381632 0.368739 0
M  V30 17 C -3.627948 1.287312 -0.465718 0
M  V30 18 N -5.033307 1.153144 -0.614789 0
M  V30 19 O -3.090013 2.225402 -1.098305 0
M  V30 20 S -3.651804 -0.943004 1.279096 0
M  V30 21 C -2.155984 -1.549135 2.018747 0
M  V30 22 N -2.044776 -2.600215 2.865936 0
M  V30 23 H -0.005647 -3.785809 5.192378 0
M  V30 24 H -1.504100 -4.517992 4.610185 0
M  V30 25 H 0.026927 -4.874593 3.796158 0
M  V30 26 H 1.188169 -2.378009 3.263072 0
M  V30 27 H 1.185464 0.766038 1.752437 0
M  V30 28 H 2.156743 -0.658497 2.315745 0
M  V30 29 H 1.896927 -1.778442 -1.960246 0
M  V30 30 H 3.578146 -1.315260 -3.605157 0
M  V30 31 H 5.336848 0.342481 -3.135482 0
M  V30 32 H 5.351762 1.543056 -0.918708 0
M  V30 33 H 3.600184 1.039376 0.757697 0
M  V30 34 H -0.108246 1.824571 -0.282447 0
M  V30 35 H 0.068294 1.728815 -0.115477 0
M  V30 36 H -5.213709 0.753058 -1.558280 0
M  V30 37 H -5.490985 0.774589 -1.471470 0
M  V30 END ATOM
M  V30 BEGIN BOND
M  V30 1 1 1 2
M  V30 2 2 2 3
M  V30 3 1 3 4
M  V30 4 1 4 5
M  V30 5 1 5 6
M  V30 6 1 6 7
M  V30 7 2 7 8
M  V30 8 1 8 9
M  V30 9 2 9 10
M  V30 10 1 10 11
M  V30 11 2 11 12
M  V30 12 2 4 13
M  V30 13 1 13 14
M  V30 14 1 14 15
M  V30 15 2 14 16
M  V30 16 1 16 17
M  V30 17 1 17 18
M  V30 18 2 17 19
M  V30 19 1 16 20
M  V30 20 1 20 21
M  V30 21 2 21 22
M  V30 22 1 22 2
M  V30 23 1 12 7
M  V30 24 1 21 13
M  V30 25 1 1 23
M  V30 26 1 1 24
M  V30 27 1 1 25
M  V30 28 1 3 26
M  V30 29 1 5 27
M  V30 30 1 5 28
M  V30 31 1 8 29
M  V30 32 1 9 30
M  V30 33 1 10 31
M  V30 34 1 11 32
M  V30 35 1 12 33
M  V30 36 1 15 34
M  V30 37 1 15 35
M  V30 38 1 18 36
M  V30 39 1 18 37
M  V30 END BOND
M  V30 END CTAB
M  END
>  <Dataset>  (598) 
ChEMBL_Kinases

>  <Ligand_Instance>  (598) 
nan

>  <PDB_ID>  (598) 
nan

>  <Standardized_SMILES>  (598) 
Cc1cc(COc2ccccc2)c2c(N)c(C(N)=O)sc2n1

>  <Name>  (598) 
nan

>  <Pocket>  (598) 
nan

>  <ATP_Site>  (598) 
nan

>  <Peripheral>  (598) 
nan

>  <Num_H_Atoms_ProtBoundConf>  (598) 
nan

>  <Num_Resolved_Atoms>  (598) 
nan

>  <Num_Not_Resolved_Atoms>  (598) 
nan

$$$$
CHEMBL206924
     RDKit          3D

  0  0  0  0  0  0  0  0  0  0999 V3000
M  V30 BEGIN CTAB
M  V30 COUNTS 58 62 0 0 0
M  V30 BEGIN ATOM
M  V30 1 C 1.016517 -2.830355 6.168116 0
M  V30 2 C 0.273671 -3.411130 4.993988 0
M  V30 3 C 1.159365 -3.623917 3.834964 0
M  V30 4 C 1.284549 -2.582540 2.940710 0
M  V30 5 C 2.093574 -2.707201 1.833633 0
M  V30 6 C 2.215599 -1.662837 0.940556 0
M  V30 7 C 3.019929 -1.742264 -0.191800 0
M  V30 8 C 3.039219 -0.548584 -1.034245 0
M  V30 9 C 4.161229 -0.200437 -1.763774 0
M  V30 10 N 4.183309 0.901976 -2.542601 0
M  V30 11 C 3.080935 1.692236 -2.615828 0
M  V30 12 C 1.920444 1.386768 -1.899360 0
M  V30 13 O 0.810925 2.220558 -1.999766 0
M  V30 14 C -0.359541 1.879071 -1.253057 0
M  V30 15 C -1.407228 2.908693 -1.516667 0 CFG=1
M  V30 16 N -1.677067 2.899233 -2.944590 0
M  V30 17 C -2.644931 2.815844 -0.697528 0
M  V30 18 C -3.417316 1.583127 -0.811961 0
M  V30 19 C -4.558121 1.488269 -1.621118 0
M  V30 20 N -5.104798 0.260111 -1.595166 0
M  V30 21 C -4.352379 -0.487748 -0.777790 0
M  V30 22 C -4.472828 -1.813066 -0.396623 0
M  V30 23 C -3.508340 -2.292640 0.491247 0
M  V30 24 C -2.475026 -1.506485 0.980764 0
M  V30 25 C -2.399524 -0.196651 0.571235 0
M  V30 26 C -3.326109 0.312547 -0.299529 0
M  V30 27 C 1.927827 0.265017 -1.119866 0
M  V30 28 C 3.717962 -2.909018 -0.425231 0
M  V30 29 C 3.602956 -3.970712 0.469314 0
M  V30 30 C 2.798637 -3.870531 1.587600 0
M  V30 31 C 2.653670 -4.909420 2.509454 0
M  V30 32 N 1.852930 -4.748376 3.579486 0
M  V30 33 H 1.938754 -2.353405 5.778860 0
M  V30 34 H 0.424253 -1.988683 6.618721 0
M  V30 35 H 1.213219 -3.544379 6.981930 0
M  V30 36 H -0.649738 -2.865380 4.772354 0
M  V30 37 H -0.052304 -4.442647 5.315744 0
M  V30 38 H 0.740373 -1.646338 3.104187 0
M  V30 39 H 1.649997 -0.770630 1.165663 0
M  V30 40 H 5.056342 -0.828831 -1.713214 0
M  V30 41 H 3.159057 2.563722 -3.257181 0
M  V30 42 H -0.143508 1.917603 -0.158900 0
M  V30 43 H -0.702976 0.863017 -1.487431 0
M  V30 44 H -0.916516 3.907013 -1.323704 0
M  V30 45 H -2.121193 3.776125 -3.288662 0
M  V30 46 H -0.842938 2.722688 -3.510446 0
M  V30 47 H -3.291441 3.706220 -0.951442 0
M  V30 48 H -2.367567 2.993684 0.377223 0
M  V30 49 H -4.990808 2.280878 -2.218355 0
M  V30 50 H -5.943337 -0.064058 -2.100828 0
M  V30 51 H -5.262875 -2.452490 -0.757830 0
M  V30 52 H -3.571711 -3.316781 0.808200 0
M  V30 53 H -1.772912 -1.954322 1.662514 0
M  V30 54 H -1.606870 0.430053 0.944171 0
M  V30 55 H 1.023931 0.072524 -0.592895 0
M  V30 56 H 4.325573 -2.940716 -1.300714 0
M  V30 57 H 4.150925 -4.884991 0.285190 0
M  V30 58 H 3.188837 -5.817265 2.339544 0
M  V30 END ATOM
M  V30 BEGIN BOND
M  V30 1 1 1 2
M  V30 2 1 2 3
M  V30 3 2 3 4
M  V30 4 1 4 5
M  V30 5 2 5 6
M  V30 6 1 6 7
M  V30 7 1 7 8
M  V30 8 2 8 9
M  V30 9 1 9 10
M  V30 10 2 10 11
M  V30 11 1 11 12
M  V30 12 1 12 13
M  V30 13 1 13 14
M  V30 14 1 14 15
M  V30 15 1 15 16
M  V30 16 1 15 17
M  V30 17 1 17 18
M  V30 18 2 18 19
M  V30 19 1 19 20
M  V30 20 1 20 21
M  V30 21 2 21 22
M  V30 22 1 22 23
M  V30 23 2 23 24
M  V30 24 1 24 25
M  V30 25 2 25 26
M  V30 26 2 12 27
M  V30 27 2 7 28
M  V30 28 1 28 29
M  V30 29 2 29 30
M  V30 30 1 30 31
M  V30 31 2 31 32
M  V30 32 1 32 3
M  V30 33 1 30 5
M  V30 34 1 27 8
M  V30 35 1 26 18
M  V30 36 1 26 21
M  V30 37 1 1 33
M  V30 38 1 1 34
M  V30 39 1 1 35
M  V30 40 1 2 36
M  V30 41 1 2 37
M  V30 42 1 4 38
M  V30 43 1 6 39
M  V30 44 1 9 40
M  V30 45 1 11 41
M  V30 46 1 14 42
M  V30 47 1 14 43
M  V30 48 1 15 44 CFG=1
M  V30 49 1 16 45
M  V30 50 1 16 46
M  V30 51 1 17 47
M  V30 52 1 17 48
M  V30 53 1 19 49
M  V30 54 1 20 50
M  V30 55 1 22 51
M  V30 56 1 23 52
M  V30 57 1 24 53
M  V30 58 1 25 54
M  V30 59 1 27 55
M  V30 60 1 28 56
M  V30 61 1 29 57
M  V30 62 1 31 58
M  V30 END BOND
M  V30 END CTAB
M  END
>  <Dataset>  (599) 
ChEMBL_Kinases

>  <Ligand_Instance>  (599) 
nan

>  <PDB_ID>  (599) 
nan

>  <Standardized_SMILES>  (599) 
CCc1cc2cc(-c3cncc(OC[C@@H](N)Cc4c[nH]c5ccccc45)c3)ccc2cn1

>  <Name>  (599) 
nan

>  <Pocket>  (599) 
nan

>  <ATP_Site>  (599) 
nan

>  <Peripheral>  (599) 
nan

>  <Num_H_Atoms_ProtBoundConf>  (599) 
nan

>  <Num_Resolved_Atoms>  (599) 
nan

>  <Num_Not_Resolved_Atoms>  (599) 
nan

$$$$
CHEMBL206936
     RDKit          3D

  0  0  0  0  0  0  0  0  0  0999 V3000
M  V30 BEGIN CTAB
M  V30 COUNTS 35 37 0 0 0
M  V30 BEGIN ATOM
M  V30 1 C -1.340908 -4.451554 1.169783 0
M  V30 2 N -0.283278 -3.473271 0.954141 0
M  V30 3 C 0.931805 -3.562239 1.702418 0
M  V30 4 O 0.956893 -4.527139 2.508730 0
M  V30 5 C 1.985738 -2.524087 1.435559 0
M  V30 6 N 1.564583 -1.585982 0.431128 0
M  V30 7 N 1.801554 -1.781838 -0.856501 0
M  V30 8 C 1.328850 -0.795249 -1.613528 0
M  V30 9 C 1.386833 -0.636003 -3.084735 0
M  V30 10 C 0.745522 0.097382 -0.734847 0
M  V30 11 C 0.087834 1.302627 -0.853782 0
M  V30 12 O -0.076327 1.802579 -1.994677 0
M  V30 13 C -0.399872 1.984035 0.243002 0
M  V30 14 C -1.058326 3.191865 0.117269 0
M  V30 15 C -1.531222 3.840624 1.247401 0
M  V30 16 Cl -2.372525 5.372014 1.152900 0
M  V30 17 C -1.309362 3.222853 2.466178 0
M  V30 18 C -0.654121 2.011036 2.646444 0
M  V30 19 C -0.201349 1.402782 1.492430 0
M  V30 20 N 0.437887 0.226118 1.637253 0
M  V30 21 O 0.619539 -0.323596 2.880154 0
M  V30 22 C 0.904325 -0.416891 0.539811 0
M  V30 23 H -1.935862 -4.511047 0.230594 0
M  V30 24 H -0.884500 -5.426296 1.437337 0
M  V30 25 H -2.020507 -4.108071 1.999581 0
M  V30 26 H -0.420124 -2.700424 0.243435 0
M  V30 27 H 2.891994 -3.053857 1.132691 0
M  V30 28 H 2.217476 -1.954219 2.378320 0
M  V30 29 H 0.558185 -1.224118 -3.535633 0
M  V30 30 H 1.213705 0.416213 -3.374208 0
M  V30 31 H 2.359298 -1.008675 -3.486958 0
M  V30 32 H -1.203261 3.629571 -0.869492 0
M  V30 33 H -1.673932 3.719598 3.356343 0
M  V30 34 H -0.526958 1.606611 3.625900 0
M  V30 35 H -0.205425 -0.632806 3.404850 0
M  V30 END ATOM
M  V30 BEGIN BOND
M  V30 1 1 1 2
M  V30 2 1 2 3
M  V30 3 2 3 4
M  V30 4 1 3 5
M  V30 5 1 5 6
M  V30 6 1 6 7
M  V30 7 2 7 8
M  V30 8 1 8 9
M  V30 9 1 8 10
M  V30 10 1 10 11
M  V30 11 2 11 12
M  V30 12 1 11 13
M  V30 13 2 13 14
M  V30 14 1 14 15
M  V30 15 1 15 16
M  V30 16 2 15 17
M  V30 17 1 17 18
M  V30 18 2 18 19
M  V30 19 1 19 20
M  V30 20 1 20 21
M  V30 21 1 20 22
M  V30 22 1 22 6
M  V30 23 2 22 10
M  V30 24 1 19 13
M  V30 25 1 1 23
M  V30 26 1 1 24
M  V30 27 1 1 25
M  V30 28 1 2 26
M  V30 29 1 5 27
M  V30 30 1 5 28
M  V30 31 1 9 29
M  V30 32 1 9 30
M  V30 33 1 9 31
M  V30 34 1 14 32
M  V30 35 1 17 33
M  V30 36 1 18 34
M  V30 37 1 21 35
M  V30 END BOND
M  V30 END CTAB
M  END
>  <Dataset>  (600) 
ChEMBL_Kinases

>  <Ligand_Instance>  (600) 
nan

>  <PDB_ID>  (600) 
nan

>  <Standardized_SMILES>  (600) 
CNC(=O)Cn1nc(C)c2c(=O)c3cc(Cl)ccc3n(O)c21

>  <Name>  (600) 
nan

>  <Pocket>  (600) 
nan

>  <ATP_Site>  (600) 
nan

>  <Peripheral>  (600) 
nan

>  <Num_H_Atoms_ProtBoundConf>  (600) 
nan

>  <Num_Resolved_Atoms>  (600) 
nan

>  <Num_Not_Resolved_Atoms>  (600) 
nan

$$$$
CHEMBL206956
     RDKit          3D

  0  0  0  0  0  0  0  0  0  0999 V3000
M  V30 BEGIN CTAB
M  V30 COUNTS 23 24 0 0 0
M  V30 BEGIN ATOM
M  V30 1 N 1.370817 -0.691642 4.163588 0
M  V30 2 C 0.699534 0.385987 3.551374 0
M  V30 3 O 0.323254 1.361426 4.251737 0
M  V30 4 C 0.437027 0.380108 2.111340 0
M  V30 5 C 0.853976 -0.694970 1.351439 0
M  V30 6 C 0.579516 -0.646455 -0.000621 0
M  V30 7 C 0.946920 -1.668837 -0.881107 0
M  V30 8 C 0.636273 -1.546092 -2.220808 0
M  V30 9 C -0.029777 -0.445373 -2.739739 0
M  V30 10 C -0.411149 0.595286 -1.883627 0
M  V30 11 C -0.080987 0.431199 -0.554274 0
M  V30 12 N -0.474299 1.471820 0.236982 0
M  V30 13 C -0.233176 1.478428 1.563149 0
M  V30 14 N -0.646849 2.573193 2.395988 0
M  V30 15 H 2.139180 -1.316015 3.903441 0
M  V30 16 H 1.163386 -1.083218 5.117499 0
M  V30 17 H 1.369640 -1.546772 1.754176 0
M  V30 18 H 1.464163 -2.513990 -0.450999 0
M  V30 19 H 0.939571 -2.368215 -2.886119 0
M  V30 20 H -0.249927 -0.401438 -3.810196 0
M  V30 21 H -0.922029 1.445299 -2.265604 0
M  V30 22 H 0.204425 3.155507 2.216339 0
M  V30 23 H -1.564844 2.121604 2.685155 0
M  V30 END ATOM
M  V30 BEGIN BOND
M  V30 1 1 1 2
M  V30 2 2 2 3
M  V30 3 1 2 4
M  V30 4 2 4 5
M  V30 5 1 5 6
M  V30 6 2 6 7
M  V30 7 1 7 8
M  V30 8 2 8 9
M  V30 9 1 9 10
M  V30 10 2 10 11
M  V30 11 1 11 12
M  V30 12 2 12 13
M  V30 13 1 13 14
M  V30 14 1 13 4
M  V30 15 1 11 6
M  V30 16 1 1 15
M  V30 17 1 1 16
M  V30 18 1 5 17
M  V30 19 1 7 18
M  V30 20 1 8 19
M  V30 21 1 9 20
M  V30 22 1 10 21
M  V30 23 1 14 22
M  V30 24 1 14 23
M  V30 END BOND
M  V30 END CTAB
M  END
>  <Dataset>  (601) 
ChEMBL_Kinases

>  <Ligand_Instance>  (601) 
nan

>  <PDB_ID>  (601) 
nan

>  <Standardized_SMILES>  (601) 
NC(=O)c1cc2ccccc2nc1N

>  <Name>  (601) 
nan

>  <Pocket>  (601) 
nan

>  <ATP_Site>  (601) 
nan

>  <Peripheral>  (601) 
nan

>  <Num_H_Atoms_ProtBoundConf>  (601) 
nan

>  <Num_Resolved_Atoms>  (601) 
nan

>  <Num_Not_Resolved_Atoms>  (601) 
nan

$$$$
CHEMBL206786
     RDKit          3D

  0  0  0  0  0  0  0  0  0  0999 V3000
M  V30 BEGIN CTAB
M  V30 COUNTS 61 62 0 0 0
M  V30 BEGIN ATOM
M  V30 1 C 3.787218 -2.351761 4.590290 0
M  V30 2 O 3.836509 -1.619706 3.358289 0
M  V30 3 C 4.958336 -1.675155 2.552719 0
M  V30 4 C 6.115102 -2.371027 2.762437 0
M  V30 5 C 7.180121 -2.372511 1.914439 0
M  V30 6 C 7.123414 -1.626223 0.744149 0
M  V30 7 C 5.950354 -0.922263 0.534206 0
M  V30 8 C 4.845038 -0.907397 1.392526 0
M  V30 9 C 3.682130 -0.096094 0.999156 0
M  V30 10 O 3.606368 0.597819 -0.070164 0
M  V30 11 O 2.571646 -0.057089 1.821553 0
M  V30 12 C 1.473008 0.733750 1.410635 0
M  V30 13 C 0.339428 0.672373 2.413491 0
M  V30 14 C 0.686600 1.265919 3.741600 0
M  V30 15 O -0.448722 1.162638 4.546404 0
M  V30 16 C -0.919059 1.309312 1.845013 0
M  V30 17 C -1.386743 0.308224 0.813129 0
M  V30 18 C -1.951448 0.245285 -0.406052 0
M  V30 19 C -2.301637 -0.925442 -1.192677 0
M  V30 20 C -3.729753 -1.173422 -1.486957 0
M  V30 21 C -4.504671 -0.174217 -2.239454 0
M  V30 22 C -4.567842 1.156305 -1.528100 0
M  V30 23 C -4.140105 -0.014751 -3.695666 0
M  V30 24 C -3.899291 -2.554170 -2.065177 0
M  V30 25 C -3.161242 -2.817514 -3.327703 0
M  V30 26 C -3.510591 -3.622430 -1.050031 0
M  V30 27 C -1.044493 -0.922431 1.564228 0
M  V30 28 O -1.546342 -2.083607 1.445156 0
M  V30 29 O -0.041127 -0.687349 2.494139 0
M  V30 30 H 4.581873 -1.980452 5.273701 0
M  V30 31 H 2.799919 -2.110191 5.070292 0
M  V30 32 H 3.907916 -3.430426 4.385865 0
M  V30 33 H 6.110493 -2.945163 3.701359 0
M  V30 34 H 8.048154 -2.938136 2.142395 0
M  V30 35 H 7.909283 -1.572221 0.028401 0
M  V30 36 H 5.885762 -0.326048 -0.385908 0
M  V30 37 H 1.099038 0.341519 0.451132 0
M  V30 38 H 1.856837 1.763708 1.261378 0
M  V30 39 H 1.502790 0.746530 4.240859 0
M  V30 40 H 0.868014 2.349009 3.590950 0
M  V30 41 H -0.442249 1.901374 5.208852 0
M  V30 42 H -1.635930 1.362486 2.693395 0
M  V30 43 H -0.712023 2.287667 1.397345 0
M  V30 44 H -2.087448 1.297879 -0.702971 0
M  V30 45 H -1.690557 -0.825535 -2.152616 0
M  V30 46 H -1.915716 -1.835833 -0.704992 0
M  V30 47 H -4.238088 -1.245941 -0.460295 0
M  V30 48 H -5.572169 -0.549010 -2.253870 0
M  V30 49 H -3.928631 1.887569 -2.056600 0
M  V30 50 H -5.607666 1.609055 -1.630116 0
M  V30 51 H -4.421830 1.080884 -0.446590 0
M  V30 52 H -4.852650 -0.516775 -4.381572 0
M  V30 53 H -4.286145 1.084333 -3.921167 0
M  V30 54 H -3.132336 -0.322754 -3.962818 0
M  V30 55 H -4.992327 -2.715973 -2.282710 0
M  V30 56 H -3.734424 -2.619036 -4.260613 0
M  V30 57 H -2.985879 -3.936808 -3.373655 0
M  V30 58 H -2.122215 -2.402854 -3.353680 0
M  V30 59 H -4.056089 -4.552200 -1.336432 0
M  V30 60 H -3.787073 -3.257185 -0.056200 0
M  V30 61 H -2.398657 -3.767155 -1.169269 0
M  V30 END ATOM
M  V30 BEGIN BOND
M  V30 1 1 1 2
M  V30 2 1 2 3
M  V30 3 2 3 4
M  V30 4 1 4 5
M  V30 5 2 5 6
M  V30 6 1 6 7
M  V30 7 2 7 8
M  V30 8 1 8 9
M  V30 9 2 9 10
M  V30 10 1 9 11
M  V30 11 1 11 12
M  V30 12 1 12 13
M  V30 13 1 13 14
M  V30 14 1 14 15
M  V30 15 1 13 16
M  V30 16 1 16 17
M  V30 17 2 17 18
M  V30 18 1 18 19
M  V30 19 1 19 20
M  V30 20 1 20 21
M  V30 21 1 21 22
M  V30 22 1 21 23
M  V30 23 1 20 24
M  V30 24 1 24 25
M  V30 25 1 24 26
M  V30 26 1 17 27
M  V30 27 2 27 28
M  V30 28 1 27 29
M  V30 29 1 8 3
M  V30 30 1 29 13
M  V30 31 1 1 30
M  V30 32 1 1 31
M  V30 33 1 1 32
M  V30 34 1 4 33
M  V30 35 1 5 34
M  V30 36 1 6 35
M  V30 37 1 7 36
M  V30 38 1 12 37
M  V30 39 1 12 38
M  V30 40 1 14 39
M  V30 41 1 14 40
M  V30 42 1 15 41
M  V30 43 1 16 42
M  V30 44 1 16 43
M  V30 45 1 18 44
M  V30 46 1 19 45
M  V30 47 1 19 46
M  V30 48 1 20 47
M  V30 49 1 21 48
M  V30 50 1 22 49
M  V30 51 1 22 50
M  V30 52 1 22 51
M  V30 53 1 23 52
M  V30 54 1 23 53
M  V30 55 1 23 54
M  V30 56 1 24 55
M  V30 57 1 25 56
M  V30 58 1 25 57
M  V30 59 1 25 58
M  V30 60 1 26 59
M  V30 61 1 26 60
M  V30 62 1 26 61
M  V30 END BOND
M  V30 END CTAB
M  END
>  <Dataset>  (602) 
ChEMBL_Kinases

>  <Ligand_Instance>  (602) 
nan

>  <PDB_ID>  (602) 
nan

>  <Standardized_SMILES>  (602) 
COc1ccccc1C(=O)OCC1(CO)C/C(=C/CC(C(C)C)C(C)C)C(=O)O1

>  <Name>  (602) 
nan

>  <Pocket>  (602) 
nan

>  <ATP_Site>  (602) 
nan

>  <Peripheral>  (602) 
nan

>  <Num_H_Atoms_ProtBoundConf>  (602) 
nan

>  <Num_Resolved_Atoms>  (602) 
nan

>  <Num_Not_Resolved_Atoms>  (602) 
nan

$$$$
CHEMBL219628
     RDKit          3D

  0  0  0  0  0  0  0  0  0  0999 V3000
M  V30 BEGIN CTAB
M  V30 COUNTS 64 68 0 0 0
M  V30 BEGIN ATOM
M  V30 1 C 2.376688 -1.338253 2.011061 0
M  V30 2 C 1.325217 -1.346618 0.954944 0
M  V30 3 C 0.005505 -1.815054 0.905664 0
M  V30 4 C -0.467099 -2.447384 2.156451 0
M  V30 5 N -0.778602 -1.533714 3.214121 0
M  V30 6 C -1.751621 -0.503385 3.279779 0
M  V30 7 C -1.926758 0.317061 4.399770 0
M  V30 8 C -2.901957 1.288062 4.366402 0
M  V30 9 C -3.734327 1.516744 3.291796 0
M  V30 10 N -4.659486 2.475055 3.321341 0
M  V30 11 C -5.479591 2.709205 2.273913 0
M  V30 12 C -5.371392 1.934587 1.114115 0
M  V30 13 C -6.211486 2.146321 -0.011231 0
M  V30 14 N -6.920033 2.330408 -0.933571 0
M  V30 15 C -4.399161 0.958396 1.137339 0
M  V30 16 N -4.285154 0.170920 -0.038512 0
M  V30 17 C -4.891369 -1.047618 -0.445127 0
M  V30 18 C -5.772094 -1.658186 0.406369 0
M  V30 19 C -6.322125 -2.835189 -0.050342 0
M  V30 20 C -5.981455 -3.342206 -1.303095 0
M  V30 21 F -6.564814 -4.508203 -1.686197 0
M  V30 22 C -5.088274 -2.684047 -2.118416 0
M  V30 23 Cl -4.656783 -3.322709 -3.701677 0
M  V30 24 C -4.508425 -1.487506 -1.691976 0
M  V30 25 C -3.553696 0.705700 2.197511 0
M  V30 26 C -2.598076 -0.262975 2.200893 0
M  V30 27 N -0.415423 -1.519045 -0.343323 0
M  V30 28 C 0.565145 -0.909186 -1.032063 0
M  V30 29 N 1.671473 -0.787505 -0.240411 0
M  V30 30 C 2.891884 -0.170143 -0.704904 0
M  V30 31 C 3.858370 -1.142009 -1.341347 0
M  V30 32 N 5.041683 -0.440024 -1.777568 0
M  V30 33 C 6.013212 -1.315695 -2.384430 0
M  V30 34 C 7.143058 -1.551901 -1.426126 0
M  V30 35 O 7.879872 -0.375546 -1.297950 0
M  V30 36 C 7.081235 0.725874 -1.101100 0
M  V30 37 C 5.656774 0.353631 -0.762478 0
M  V30 38 H 2.505240 -0.384103 2.519257 0
M  V30 39 H 2.121957 -2.106384 2.787709 0
M  V30 40 H 3.362999 -1.643431 1.601702 0
M  V30 41 H 0.216904 -3.230296 2.478937 0
M  V30 42 H -1.417539 -2.990104 1.858722 0
M  V30 43 H -0.194992 -1.628957 4.100777 0
M  V30 44 H -1.281640 0.159384 5.266583 0
M  V30 45 H -2.984116 1.893680 5.278379 0
M  V30 46 H -6.240557 3.480866 2.269852 0
M  V30 47 H -3.599019 0.735739 -0.583023 0
M  V30 48 H -6.033654 -1.261551 1.377646 0
M  V30 49 H -7.020187 -3.379108 0.551811 0
M  V30 50 H -3.805248 -0.956208 -2.316273 0
M  V30 51 H -2.558228 -0.833411 1.285072 0
M  V30 52 H 0.357959 -0.614310 -2.060367 0
M  V30 53 H 2.644985 0.603876 -1.459231 0
M  V30 54 H 3.412656 0.384351 0.115931 0
M  V30 55 H 3.405183 -1.589767 -2.248555 0
M  V30 56 H 4.090180 -1.983073 -0.659909 0
M  V30 57 H 5.533687 -2.261851 -2.710798 0
M  V30 58 H 6.448376 -0.851963 -3.307450 0
M  V30 59 H 7.833871 -2.356790 -1.796887 0
M  V30 60 H 6.724940 -1.857269 -0.445712 0
M  V30 61 H 7.501680 1.281994 -0.224074 0
M  V30 62 H 7.133001 1.425419 -1.965386 0
M  V30 63 H 5.090922 1.312236 -0.617081 0
M  V30 64 H 5.690195 -0.222219 0.196460 0
M  V30 END ATOM
M  V30 BEGIN BOND
M  V30 1 1 1 2
M  V30 2 2 2 3
M  V30 3 1 3 4
M  V30 4 1 4 5
M  V30 5 1 5 6
M  V30 6 2 6 7
M  V30 7 1 7 8
M  V30 8 2 8 9
M  V30 9 1 9 10
M  V30 10 2 10 11
M  V30 11 1 11 12
M  V30 12 1 12 13
M  V30 13 3 13 14
M  V30 14 2 12 15
M  V30 15 1 15 16
M  V30 16 1 16 17
M  V30 17 2 17 18
M  V30 18 1 18 19
M  V30 19 2 19 20
M  V30 20 1 20 21
M  V30 21 1 20 22
M  V30 22 1 22 23
M  V30 23 2 22 24
M  V30 24 1 15 25
M  V30 25 2 25 26
M  V30 26 1 3 27
M  V30 27 2 27 28
M  V30 28 1 28 29
M  V30 29 1 29 30
M  V30 30 1 30 31
M  V30 31 1 31 32
M  V30 32 1 32 33
M  V30 33 1 33 34
M  V30 34 1 34 35
M  V30 35 1 35 36
M  V30 36 1 36 37
M  V30 37 1 29 2
M  V30 38 1 37 32
M  V30 39 1 26 6
M  V30 40 1 25 9
M  V30 41 1 24 17
M  V30 42 1 1 38
M  V30 43 1 1 39
M  V30 44 1 1 40
M  V30 45 1 4 41
M  V30 46 1 4 42
M  V30 47 1 5 43
M  V30 48 1 7 44
M  V30 49 1 8 45
M  V30 50 1 11 46
M  V30 51 1 16 47
M  V30 52 1 18 48
M  V30 53 1 19 49
M  V30 54 1 24 50
M  V30 55 1 26 51
M  V30 56 1 28 52
M  V30 57 1 30 53
M  V30 58 1 30 54
M  V30 59 1 31 55
M  V30 60 1 31 56
M  V30 61 1 33 57
M  V30 62 1 33 58
M  V30 63 1 34 59
M  V30 64 1 34 60
M  V30 65 1 36 61
M  V30 66 1 36 62
M  V30 67 1 37 63
M  V30 68 1 37 64
M  V30 END BOND
M  V30 END CTAB
M  END
>  <Dataset>  (603) 
ChEMBL_Kinases

>  <Ligand_Instance>  (603) 
nan

>  <PDB_ID>  (603) 
nan

>  <Standardized_SMILES>  (603) 
Cc1c(CNc2ccc3ncc(C#N)c(Nc4ccc(F)c(Cl)c4)c3c2)ncn1CCN1CCOCC1

>  <Name>  (603) 
nan

>  <Pocket>  (603) 
nan

>  <ATP_Site>  (603) 
nan

>  <Peripheral>  (603) 
nan

>  <Num_H_Atoms_ProtBoundConf>  (603) 
nan

>  <Num_Resolved_Atoms>  (603) 
nan

>  <Num_Not_Resolved_Atoms>  (603) 
nan

$$$$
CHEMBL219485
     RDKit          3D

  0  0  0  0  0  0  0  0  0  0999 V3000
M  V30 BEGIN CTAB
M  V30 COUNTS 62 66 0 0 0
M  V30 BEGIN ATOM
M  V30 1 C 1.718164 -0.825963 6.137895 0
M  V30 2 C 1.451831 -0.629493 4.662280 0 CFG=1
M  V30 3 N 2.620001 -1.076217 3.948952 0
M  V30 4 C 2.747521 -1.036376 2.512886 0
M  V30 5 N 3.873542 -1.441571 1.856139 0
M  V30 6 C 3.957044 -1.388011 0.521021 0
M  V30 7 C 2.897133 -0.917834 -0.227301 0
M  V30 8 C 1.757605 -0.507657 0.435915 0
M  V30 9 C 0.672289 -0.014806 -0.408253 0
M  V30 10 C 0.513030 1.254405 -0.958381 0
M  V30 11 C 1.476569 2.317872 -0.735055 0
M  V30 12 C 2.249393 3.004166 -1.655685 0
M  V30 13 C 3.114059 3.993397 -1.233114 0
M  V30 14 C 3.235108 4.327210 0.112488 0
M  V30 15 F 4.115249 5.318543 0.443518 0
M  V30 16 C 2.487545 3.671702 1.060144 0
M  V30 17 C 1.625524 2.681133 0.607213 0
M  V30 18 N -0.651481 1.206318 -1.667963 0
M  V30 19 C -1.167949 -0.050652 -1.543879 0
M  V30 20 C -2.335344 -0.523078 -2.108117 0
M  V30 21 C -2.751326 -1.818628 -1.911760 0
M  V30 22 C -3.975951 -2.469915 -2.444605 0
M  V30 23 N -3.744452 -3.071327 -3.748019 0
M  V30 24 C -3.343739 -2.029235 -4.685230 0
M  V30 25 C -4.988679 -3.644731 -4.223707 0
M  V30 26 C -1.901722 -2.589559 -1.107716 0
M  V30 27 C -0.738966 -2.086661 -0.556799 0
M  V30 28 N -0.373313 -0.798429 -0.782312 0
M  V30 29 N 1.703215 -0.574686 1.801903 0
M  V30 30 C 0.210174 -1.337549 4.311613 0
M  V30 31 C 0.128728 -2.711499 4.197361 0
M  V30 32 C -1.093050 -3.260788 3.862594 0
M  V30 33 C -2.229486 -2.520125 3.637238 0
M  V30 34 C -2.193311 -1.136869 3.741370 0
M  V30 35 C -0.955573 -0.600731 4.079063 0
M  V30 36 H 1.079354 -1.643933 6.522968 0
M  V30 37 H 2.763969 -1.104625 6.371234 0
M  V30 38 H 1.408131 0.099126 6.675696 0
M  V30 39 H 1.320551 0.462737 4.459862 0
M  V30 40 H 3.472998 -1.469667 4.446265 0
M  V30 41 H 4.869661 -1.718526 0.028768 0
M  V30 42 H 2.965873 -0.874488 -1.312097 0
M  V30 43 H 2.082346 2.671688 -2.669026 0
M  V30 44 H 3.670354 4.473064 -1.999434 0
M  V30 45 H 2.572704 3.923380 2.118036 0
M  V30 46 H 1.061158 2.199925 1.413870 0
M  V30 47 H -2.987281 0.080146 -2.728584 0
M  V30 48 H -4.268460 -3.288754 -1.739800 0
M  V30 49 H -4.810926 -1.761840 -2.502446 0
M  V30 50 H -2.304212 -1.690073 -4.539831 0
M  V30 51 H -3.480275 -2.345833 -5.741314 0
M  V30 52 H -3.985658 -1.114056 -4.547821 0
M  V30 53 H -5.498775 -4.085541 -3.335714 0
M  V30 54 H -4.745829 -4.539384 -4.865712 0
M  V30 55 H -5.611896 -2.918566 -4.766875 0
M  V30 56 H -2.090623 -3.629835 -0.859451 0
M  V30 57 H -0.076948 -2.678768 0.066484 0
M  V30 58 H 0.994864 -3.319265 4.366010 0
M  V30 59 H -1.225781 -4.348610 3.754777 0
M  V30 60 H -3.194414 -2.940033 3.373352 0
M  V30 61 H -3.014342 -0.454311 3.589392 0
M  V30 62 H -0.877107 0.481449 4.173400 0
M  V30 END ATOM
M  V30 BEGIN BOND
M  V30 1 1 1 2
M  V30 2 1 2 3
M  V30 3 1 3 4
M  V30 4 2 4 5
M  V30 5 1 5 6
M  V30 6 2 6 7
M  V30 7 1 7 8
M  V30 8 1 8 9
M  V30 9 2 9 10
M  V30 10 1 10 11
M  V30 11 2 11 12
M  V30 12 1 12 13
M  V30 13 2 13 14
M  V30 14 1 14 15
M  V30 15 1 14 16
M  V30 16 2 16 17
M  V30 17 1 10 18
M  V30 18 2 18 19
M  V30 19 1 19 20
M  V30 20 2 20 21
M  V30 21 1 21 22
M  V30 22 1 22 23
M  V30 23 1 23 24
M  V30 24 1 23 25
M  V30 25 1 21 26
M  V30 26 2 26 27
M  V30 27 1 27 28
M  V30 28 2 8 29
M  V30 29 1 2 30
M  V30 30 2 30 31
M  V30 31 1 31 32
M  V30 32 2 32 33
M  V30 33 1 33 34
M  V30 34 2 34 35
M  V30 35 1 29 4
M  V30 36 1 35 30
M  V30 37 1 28 9
M  V30 38 1 17 11
M  V30 39 1 28 19
M  V30 40 1 1 36
M  V30 41 1 1 37
M  V30 42 1 1 38
M  V30 43 1 2 39 CFG=1
M  V30 44 1 3 40
M  V30 45 1 6 41
M  V30 46 1 7 42
M  V30 47 1 12 43
M  V30 48 1 13 44
M  V30 49 1 16 45
M  V30 50 1 17 46
M  V30 51 1 20 47
M  V30 52 1 22 48
M  V30 53 1 22 49
M  V30 54 1 24 50
M  V30 55 1 24 51
M  V30 56 1 24 52
M  V30 57 1 25 53
M  V30 58 1 25 54
M  V30 59 1 25 55
M  V30 60 1 26 56
M  V30 61 1 27 57
M  V30 62 1 31 58
M  V30 63 1 32 59
M  V30 64 1 33 60
M  V30 65 1 34 61
M  V30 66 1 35 62
M  V30 END BOND
M  V30 END CTAB
M  END
>  <Dataset>  (604) 
ChEMBL_Kinases

>  <Ligand_Instance>  (604) 
nan

>  <PDB_ID>  (604) 
nan

>  <Standardized_SMILES>  (604) 
C[C@@H](Nc1nccc(-c2c(-c3ccc(F)cc3)nc3cc(CN(C)C)ccn23)n1)c1ccccc1

>  <Name>  (604) 
nan

>  <Pocket>  (604) 
nan

>  <ATP_Site>  (604) 
nan

>  <Peripheral>  (604) 
nan

>  <Num_H_Atoms_ProtBoundConf>  (604) 
nan

>  <Num_Resolved_Atoms>  (604) 
nan

>  <Num_Not_Resolved_Atoms>  (604) 
nan

$$$$
CHEMBL219424
     RDKit          3D

  0  0  0  0  0  0  0  0  0  0999 V3000
M  V30 BEGIN CTAB
M  V30 COUNTS 40 43 0 0 0
M  V30 BEGIN ATOM
M  V30 1 N 0.720019 -7.603014 -1.860446 0
M  V30 2 C 0.859837 -6.207220 -1.627208 0
M  V30 3 C -0.036345 -5.533029 -0.826733 0
M  V30 4 C 0.172309 -4.182927 -0.653543 0
M  V30 5 C 1.189036 -3.440358 -1.202655 0
M  V30 6 N 1.410482 -2.054717 -1.049581 0
M  V30 7 C 0.718443 -1.018756 -0.386274 0
M  V30 8 C -0.649147 -0.903658 -0.271042 0
M  V30 9 C -1.336662 0.086276 0.396283 0
M  V30 10 C -0.581148 1.059217 1.009483 0
M  V30 11 C 0.796403 1.027682 0.947700 0
M  V30 12 C 1.401526 0.000400 0.258739 0
M  V30 13 O 1.671797 1.941963 1.518599 0
M  V30 14 C 1.528741 3.306934 1.845904 0
M  V30 15 C 0.328410 3.601134 2.664935 0
M  V30 16 C 0.609135 4.575538 3.619823 0
M  V30 17 C -0.407251 4.985853 4.490279 0
M  V30 18 C -1.694229 4.446999 4.429393 0
M  V30 19 C -1.981641 3.467672 3.471860 0
M  V30 20 C -0.947137 3.077323 2.615868 0
M  V30 21 C -1.421811 2.048682 1.681496 0
M  V30 22 O -2.656141 2.028208 1.448781 0
M  V30 23 C 2.054853 -4.161458 -1.992294 0
M  V30 24 F 3.118006 -3.570542 -2.610017 0
M  V30 25 C 1.899333 -5.508643 -2.202425 0
M  V30 26 H -0.096319 -8.137381 -2.181470 0
M  V30 27 H 1.505957 -8.267996 -1.712571 0
M  V30 28 H -0.860840 -6.042458 -0.359804 0
M  V30 29 H -0.539222 -3.689237 -0.012632 0
M  V30 30 H 2.273209 -1.652358 -1.521542 0
M  V30 31 H -1.293058 -1.629124 -0.744096 0
M  V30 32 H -2.403810 0.126175 0.454171 0
M  V30 33 H 2.500918 -0.006768 0.221074 0
M  V30 34 H 1.370301 3.854867 0.883902 0
M  V30 35 H 2.452554 3.633070 2.358204 0
M  V30 36 H 1.575948 5.036677 3.727460 0
M  V30 37 H -0.218360 5.742039 5.243272 0
M  V30 38 H -2.475889 4.764250 5.100685 0
M  V30 39 H -2.950204 3.003059 3.361115 0
M  V30 40 H 2.595479 -6.052819 -2.828865 0
M  V30 END ATOM
M  V30 BEGIN BOND
M  V30 1 1 1 2
M  V30 2 2 2 3
M  V30 3 1 3 4
M  V30 4 2 4 5
M  V30 5 1 5 6
M  V30 6 1 6 7
M  V30 7 2 7 8
M  V30 8 1 8 9
M  V30 9 2 9 10
M  V30 10 1 10 11
M  V30 11 2 11 12
M  V30 12 1 11 13
M  V30 13 1 13 14
M  V30 14 1 14 15
M  V30 15 2 15 16
M  V30 16 1 16 17
M  V30 17 2 17 18
M  V30 18 1 18 19
M  V30 19 2 19 20
M  V30 20 1 20 21
M  V30 21 2 21 22
M  V30 22 1 5 23
M  V30 23 1 23 24
M  V30 24 2 23 25
M  V30 25 1 25 2
M  V30 26 1 12 7
M  V30 27 1 20 15
M  V30 28 1 21 10
M  V30 29 1 1 26
M  V30 30 1 1 27
M  V30 31 1 3 28
M  V30 32 1 4 29
M  V30 33 1 6 30
M  V30 34 1 8 31
M  V30 35 1 9 32
M  V30 36 1 12 33
M  V30 37 1 14 34
M  V30 38 1 14 35
M  V30 39 1 16 36
M  V30 40 1 17 37
M  V30 41 1 18 38
M  V30 42 1 19 39
M  V30 43 1 25 40
M  V30 END BOND
M  V30 END CTAB
M  END
>  <Dataset>  (605) 
ChEMBL_Kinases

>  <Ligand_Instance>  (605) 
nan

>  <PDB_ID>  (605) 
nan

>  <Standardized_SMILES>  (605) 
Nc1ccc(Nc2ccc3c(c2)OCc2ccccc2C3=O)c(F)c1

>  <Name>  (605) 
nan

>  <Pocket>  (605) 
nan

>  <ATP_Site>  (605) 
nan

>  <Peripheral>  (605) 
nan

>  <Num_H_Atoms_ProtBoundConf>  (605) 
nan

>  <Num_Resolved_Atoms>  (605) 
nan

>  <Num_Not_Resolved_Atoms>  (605) 
nan

$$$$
CHEMBL219346
     RDKit          3D

  0  0  0  0  0  0  0  0  0  0999 V3000
M  V30 BEGIN CTAB
M  V30 COUNTS 61 61 0 0 0
M  V30 BEGIN ATOM
M  V30 1 C 2.371836 -4.093202 1.487691 0
M  V30 2 C 2.987141 -2.991024 0.630989 0
M  V30 3 C 3.099354 -1.762595 1.514629 0
M  V30 4 C 3.694646 -0.591599 0.789952 0
M  V30 5 C 3.788319 0.621392 1.710121 0
M  V30 6 C 4.337065 1.813529 1.007605 0
M  V30 7 C 3.597133 2.435754 -0.100192 0
M  V30 8 C 2.326241 3.125677 0.128079 0
M  V30 9 C 1.119816 2.461446 0.644306 0
M  V30 10 C 0.566845 1.340982 -0.230626 0
M  V30 11 C 0.213861 1.834902 -1.590451 0
M  V30 12 C -0.308261 0.845541 -2.555559 0
M  V30 13 C -1.551232 0.105450 -2.232078 0
M  V30 14 C -1.444849 -0.741529 -1.036475 0
M  V30 15 O -2.531022 -1.318808 -0.930043 0
M  V30 16 O -1.360386 -1.526883 0.063465 0
M  V30 17 C -2.292923 -2.359288 0.624839 0
M  V30 18 C -3.549323 -1.793217 1.167140 0 CFG=2
M  V30 19 O -3.323662 -0.847540 2.174440 0
M  V30 20 C -4.274345 -2.944154 1.909892 0 CFG=1
M  V30 21 O -5.477555 -2.433225 2.471101 0
M  V30 22 C -6.589003 -3.082085 1.962347 0
M  V30 23 O -7.739101 -2.754353 2.350887 0
M  V30 24 C -6.072472 -4.082949 1.006249 0
M  V30 25 O -7.059349 -4.852311 0.377824 0
M  V30 26 C -4.735995 -3.986680 0.991579 0
M  V30 27 O -4.184707 -4.902004 0.111973 0
M  V30 28 H 3.215308 -4.697901 1.932556 0
M  V30 29 H 1.791446 -3.669028 2.334586 0
M  V30 30 H 1.762853 -4.780182 0.893669 0
M  V30 31 H 2.338007 -2.773539 -0.241545 0
M  V30 32 H 3.973809 -3.331902 0.296922 0
M  V30 33 H 2.093186 -1.512029 1.903135 0
M  V30 34 H 3.738828 -2.083514 2.374884 0
M  V30 35 H 3.278321 -0.408464 -0.182048 0
M  V30 36 H 4.784019 -0.892487 0.577259 0
M  V30 37 H 4.588443 0.320821 2.460471 0
M  V30 38 H 2.899442 0.791840 2.311856 0
M  V30 39 H 5.390823 1.507095 0.693417 0
M  V30 40 H 4.462739 2.616561 1.798875 0
M  V30 41 H 4.320491 3.166869 -0.587049 0
M  V30 42 H 3.427083 1.686379 -0.956509 0
M  V30 43 H 2.483893 4.070002 0.775578 0
M  V30 44 H 1.998233 3.613372 -0.867320 0
M  V30 45 H 1.182626 2.159225 1.716778 0
M  V30 46 H 0.275308 3.244649 0.657096 0
M  V30 47 H -0.418787 1.004121 0.224633 0
M  V30 48 H 1.202239 0.461978 -0.168175 0
M  V30 49 H 1.183693 2.216352 -2.041388 0
M  V30 50 H -0.433041 2.735312 -1.471076 0
M  V30 51 H 0.525444 0.084083 -2.704105 0
M  V30 52 H -0.356861 1.333777 -3.567944 0
M  V30 53 H -1.784706 -0.540972 -3.136376 0
M  V30 54 H -2.451875 0.773364 -2.180553 0
M  V30 55 H -1.763247 -2.840758 1.510652 0
M  V30 56 H -2.558058 -3.244355 -0.008440 0
M  V30 57 H -4.229505 -1.396667 0.405940 0
M  V30 58 H -3.490834 0.054339 1.825417 0
M  V30 59 H -3.619197 -3.379267 2.678454 0
M  V30 60 H -6.920934 -5.865989 0.373344 0
M  V30 61 H -3.525076 -5.604926 0.352751 0
M  V30 END ATOM
M  V30 BEGIN BOND
M  V30 1 1 1 2
M  V30 2 1 2 3
M  V30 3 1 3 4
M  V30 4 1 4 5
M  V30 5 1 5 6
M  V30 6 1 6 7
M  V30 7 1 7 8
M  V30 8 1 8 9
M  V30 9 1 9 10
M  V30 10 1 10 11
M  V30 11 1 11 12
M  V30 12 1 12 13
M  V30 13 1 13 14
M  V30 14 2 14 15
M  V30 15 1 14 16
M  V30 16 1 16 17
M  V30 17 1 17 18
M  V30 18 1 18 19
M  V30 19 1 18 20
M  V30 20 1 20 21
M  V30 21 1 21 22
M  V30 22 2 22 23
M  V30 23 1 22 24
M  V30 24 1 24 25
M  V30 25 2 24 26
M  V30 26 1 26 27
M  V30 27 1 26 20
M  V30 28 1 1 28
M  V30 29 1 1 29
M  V30 30 1 1 30
M  V30 31 1 2 31
M  V30 32 1 2 32
M  V30 33 1 3 33
M  V30 34 1 3 34
M  V30 35 1 4 35
M  V30 36 1 4 36
M  V30 37 1 5 37
M  V30 38 1 5 38
M  V30 39 1 6 39
M  V30 40 1 6 40
M  V30 41 1 7 41
M  V30 42 1 7 42
M  V30 43 1 8 43
M  V30 44 1 8 44
M  V30 45 1 9 45
M  V30 46 1 9 46
M  V30 47 1 10 47
M  V30 48 1 10 48
M  V30 49 1 11 49
M  V30 50 1 11 50
M  V30 51 1 12 51
M  V30 52 1 12 52
M  V30 53 1 13 53
M  V30 54 1 13 54
M  V30 55 1 17 55
M  V30 56 1 17 56
M  V30 57 1 18 57 CFG=3
M  V30 58 1 19 58
M  V30 59 1 20 59 CFG=1
M  V30 60 1 25 60
M  V30 61 1 27 61
M  V30 END BOND
M  V30 END CTAB
M  END
>  <Dataset>  (606) 
ChEMBL_Kinases

>  <Ligand_Instance>  (606) 
nan

>  <PDB_ID>  (606) 
nan

>  <Standardized_SMILES>  (606) 
CCCCCCCCCCCCCC(=O)OC[C@H](O)[C@H]1OC(=O)C(O)=C1O

>  <Name>  (606) 
nan

>  <Pocket>  (606) 
nan

>  <ATP_Site>  (606) 
nan

>  <Peripheral>  (606) 
nan

>  <Num_H_Atoms_ProtBoundConf>  (606) 
nan

>  <Num_Resolved_Atoms>  (606) 
nan

>  <Num_Not_Resolved_Atoms>  (606) 
nan

$$$$
CHEMBL219259
     RDKit          3D

  0  0  0  0  0  0  0  0  0  0999 V3000
M  V30 BEGIN CTAB
M  V30 COUNTS 40 43 0 0 0
M  V30 BEGIN ATOM
M  V30 1 N 1.463583 -3.712130 0.714713 0
M  V30 2 C 2.801808 -3.352703 0.424954 0
M  V30 3 C 3.695579 -4.070936 1.187573 0
M  V30 4 C 5.074800 -3.880410 1.068224 0
M  V30 5 C 5.526225 -2.945825 0.158742 0
M  V30 6 C 4.634061 -2.224690 -0.606686 0
M  V30 7 C 3.269804 -2.421868 -0.479929 0
M  V30 8 N 2.263020 -1.746658 -1.205746 0
M  V30 9 C 1.164281 -0.915764 -0.875618 0
M  V30 10 C 0.377551 -0.431618 -1.901299 0
M  V30 11 C -0.670491 0.369228 -1.494040 0
M  V30 12 C -0.969265 0.702066 -0.188665 0
M  V30 13 C -0.154365 0.194439 0.803767 0
M  V30 14 C 0.907973 -0.612449 0.446527 0
M  V30 15 C -0.263233 0.402603 2.267628 0
M  V30 16 O -1.555124 0.614577 2.738310 0
M  V30 17 C -2.584093 1.496174 2.419395 0
M  V30 18 C -3.349920 1.938936 3.480270 0
M  V30 19 C -4.388686 2.821835 3.201443 0
M  V30 20 C -4.641864 3.238953 1.904897 0
M  V30 21 C -3.861823 2.781884 0.861384 0
M  V30 22 C -2.815677 1.897340 1.114047 0
M  V30 23 C -2.147334 1.565806 -0.145594 0
M  V30 24 O -2.605342 2.041411 -1.218494 0
M  V30 25 H 0.767062 -3.489903 1.466153 0
M  V30 26 H 1.304776 -4.338369 -0.107299 0
M  V30 27 H 3.452657 -4.831590 1.934191 0
M  V30 28 H 5.819803 -4.410309 1.635262 0
M  V30 29 H 6.601224 -2.782293 0.050710 0
M  V30 30 H 4.947597 -1.486033 -1.327734 0
M  V30 31 H 2.495786 -1.998431 -2.179794 0
M  V30 32 H 0.561040 -0.656894 -2.940341 0
M  V30 33 H -1.313486 0.769109 -2.284605 0
M  V30 34 H 1.496164 -0.969104 1.272163 0
M  V30 35 H 0.380697 1.297405 2.495663 0
M  V30 36 H 0.154185 -0.481390 2.806304 0
M  V30 37 H -3.103244 1.578367 4.464615 0
M  V30 38 H -4.948840 3.129835 4.073814 0
M  V30 39 H -5.472317 3.925152 1.801548 0
M  V30 40 H -4.111096 3.145803 -0.130624 0
M  V30 END ATOM
M  V30 BEGIN BOND
M  V30 1 1 1 2
M  V30 2 2 2 3
M  V30 3 1 3 4
M  V30 4 2 4 5
M  V30 5 1 5 6
M  V30 6 2 6 7
M  V30 7 1 7 8
M  V30 8 1 8 9
M  V30 9 2 9 10
M  V30 10 1 10 11
M  V30 11 2 11 12
M  V30 12 1 12 13
M  V30 13 2 13 14
M  V30 14 1 13 15
M  V30 15 1 15 16
M  V30 16 1 16 17
M  V30 17 2 17 18
M  V30 18 1 18 19
M  V30 19 2 19 20
M  V30 20 1 20 21
M  V30 21 2 21 22
M  V30 22 1 22 23
M  V30 23 2 23 24
M  V30 24 1 7 2
M  V30 25 1 14 9
M  V30 26 1 22 17
M  V30 27 1 23 12
M  V30 28 1 1 25
M  V30 29 1 1 26
M  V30 30 1 3 27
M  V30 31 1 4 28
M  V30 32 1 5 29
M  V30 33 1 6 30
M  V30 34 1 8 31
M  V30 35 1 10 32
M  V30 36 1 11 33
M  V30 37 1 14 34
M  V30 38 1 15 35
M  V30 39 1 15 36
M  V30 40 1 18 37
M  V30 41 1 19 38
M  V30 42 1 20 39
M  V30 43 1 21 40
M  V30 END BOND
M  V30 END CTAB
M  END
>  <Dataset>  (607) 
ChEMBL_Kinases

>  <Ligand_Instance>  (607) 
nan

>  <PDB_ID>  (607) 
nan

>  <Standardized_SMILES>  (607) 
Nc1ccccc1Nc1ccc2c(c1)COc1ccccc1C2=O

>  <Name>  (607) 
nan

>  <Pocket>  (607) 
nan

>  <ATP_Site>  (607) 
nan

>  <Peripheral>  (607) 
nan

>  <Num_H_Atoms_ProtBoundConf>  (607) 
nan

>  <Num_Resolved_Atoms>  (607) 
nan

>  <Num_Not_Resolved_Atoms>  (607) 
nan

$$$$
CHEMBL218962
     RDKit          3D

  0  0  0  0  0  0  0  0  0  0999 V3000
M  V30 BEGIN CTAB
M  V30 COUNTS 42 45 0 0 0
M  V30 BEGIN ATOM
M  V30 1 N -5.140519 -0.927915 2.127669 0
M  V30 2 C -4.072673 -1.492447 2.913804 0
M  V30 3 C -4.447549 -2.035391 4.119533 0
M  V30 4 C -3.525946 -2.597425 4.947626 0
M  V30 5 C -2.215040 -2.615675 4.563134 0
M  V30 6 C -1.885930 -2.060089 3.346365 0
M  V30 7 C -2.765819 -1.484284 2.478421 0
M  V30 8 N -2.488600 -0.888143 1.231109 0
M  V30 9 C -1.311473 -0.644981 0.504438 0
M  V30 10 C -1.268764 -0.704780 -0.894453 0
M  V30 11 C -0.146297 -0.458693 -1.647788 0
M  V30 12 C 1.013979 -0.133233 -1.020649 0
M  V30 13 C 1.063913 -0.050663 0.355672 0
M  V30 14 C -0.092934 -0.307984 1.054161 0
M  V30 15 C 2.236246 0.287171 1.164100 0
M  V30 16 C 3.507146 -0.382783 0.776560 0
M  V30 17 C 4.136371 0.077269 -0.459991 0
M  V30 18 C 5.507021 0.347138 -0.437671 0
M  V30 19 C 6.188555 0.781024 -1.539698 0
M  V30 20 C 5.522450 0.969399 -2.737307 0
M  V30 21 C 4.169714 0.708492 -2.779517 0
M  V30 22 C 3.476215 0.270338 -1.670538 0
M  V30 23 C 2.051274 0.078091 -2.021039 0
M  V30 24 O 1.720951 0.097662 -3.229450 0
M  V30 25 H -5.284096 0.024969 2.567348 0
M  V30 26 H -5.721253 -1.235858 1.317635 0
M  V30 27 H -5.481174 -2.030892 4.442186 0
M  V30 28 H -3.801886 -3.032413 5.906122 0
M  V30 29 H -1.464019 -3.054706 5.199947 0
M  V30 30 H -0.851572 -2.105423 3.078501 0
M  V30 31 H -3.312315 -0.519672 0.673458 0
M  V30 32 H -2.192658 -0.965630 -1.428463 0
M  V30 33 H -0.208402 -0.528280 -2.712393 0
M  V30 34 H 0.032369 -0.208409 2.100462 0
M  V30 35 H 2.025013 -0.027787 2.220538 0
M  V30 36 H 2.326130 1.395863 1.210136 0
M  V30 37 H 3.356615 -1.479175 0.844782 0
M  V30 38 H 4.241574 -0.153679 1.601434 0
M  V30 39 H 5.923080 0.161187 0.563870 0
M  V30 40 H 7.257798 0.953436 -1.380847 0
M  V30 41 H 6.104882 1.314285 -3.583050 0
M  V30 42 H 3.682513 0.867538 -3.734444 0
M  V30 END ATOM
M  V30 BEGIN BOND
M  V30 1 1 1 2
M  V30 2 2 2 3
M  V30 3 1 3 4
M  V30 4 2 4 5
M  V30 5 1 5 6
M  V30 6 2 6 7
M  V30 7 1 7 8
M  V30 8 1 8 9
M  V30 9 2 9 10
M  V30 10 1 10 11
M  V30 11 2 11 12
M  V30 12 1 12 13
M  V30 13 2 13 14
M  V30 14 1 13 15
M  V30 15 1 15 16
M  V30 16 1 16 17
M  V30 17 2 17 18
M  V30 18 1 18 19
M  V30 19 2 19 20
M  V30 20 1 20 21
M  V30 21 2 21 22
M  V30 22 1 22 23
M  V30 23 2 23 24
M  V30 24 1 7 2
M  V30 25 1 14 9
M  V30 26 1 22 17
M  V30 27 1 23 12
M  V30 28 1 1 25
M  V30 29 1 1 26
M  V30 30 1 3 27
M  V30 31 1 4 28
M  V30 32 1 5 29
M  V30 33 1 6 30
M  V30 34 1 8 31
M  V30 35 1 10 32
M  V30 36 1 11 33
M  V30 37 1 14 34
M  V30 38 1 15 35
M  V30 39 1 15 36
M  V30 40 1 16 37
M  V30 41 1 16 38
M  V30 42 1 18 39
M  V30 43 1 19 40
M  V30 44 1 20 41
M  V30 45 1 21 42
M  V30 END BOND
M  V30 END CTAB
M  END
>  <Dataset>  (608) 
ChEMBL_Kinases

>  <Ligand_Instance>  (608) 
nan

>  <PDB_ID>  (608) 
nan

>  <Standardized_SMILES>  (608) 
Nc1ccccc1Nc1ccc2c(c1)CCc1ccccc1C2=O

>  <Name>  (608) 
nan

>  <Pocket>  (608) 
nan

>  <ATP_Site>  (608) 
nan

>  <Peripheral>  (608) 
nan

>  <Num_H_Atoms_ProtBoundConf>  (608) 
nan

>  <Num_Resolved_Atoms>  (608) 
nan

>  <Num_Not_Resolved_Atoms>  (608) 
nan

$$$$
CHEMBL218961
     RDKit          3D

  0  0  0  0  0  0  0  0  0  0999 V3000
M  V30 BEGIN CTAB
M  V30 COUNTS 40 43 0 0 0
M  V30 BEGIN ATOM
M  V30 1 N 1.992598 -3.422463 -0.431722 0
M  V30 2 C 3.252027 -2.781422 -0.596460 0
M  V30 3 C 4.328043 -3.494093 -0.113337 0
M  V30 4 C 5.607377 -2.966478 -0.220498 0
M  V30 5 F 6.680091 -3.668472 0.256904 0
M  V30 6 C 5.794719 -1.729908 -0.810875 0
M  V30 7 C 4.712238 -1.039138 -1.283915 0
M  V30 8 C 3.413878 -1.544947 -1.189835 0
M  V30 9 N 2.262018 -0.855855 -1.671473 0
M  V30 10 C 1.075527 -0.374537 -1.047053 0
M  V30 11 C 0.150037 0.244366 -1.859851 0
M  V30 12 C -0.984904 0.698149 -1.220989 0
M  V30 13 C -1.219453 0.565033 0.127112 0
M  V30 14 C -0.265152 -0.058259 0.885541 0
M  V30 15 C 0.910455 -0.543541 0.305479 0
M  V30 16 O -0.336795 -0.275335 2.242911 0
M  V30 17 C -0.988560 0.364658 3.307407 0
M  V30 18 C -2.359840 0.794236 3.067597 0
M  V30 19 C -3.077012 0.861764 4.251867 0
M  V30 20 C -4.398172 1.247433 4.256453 0
M  V30 21 C -5.043483 1.576000 3.090640 0
M  V30 22 C -4.344457 1.513621 1.907674 0
M  V30 23 C -3.028398 1.131305 1.887507 0
M  V30 24 C -2.513609 1.144976 0.519776 0
M  V30 25 O -3.210057 1.682049 -0.384373 0
M  V30 26 H 1.269182 -3.537691 0.321320 0
M  V30 27 H 1.794314 -3.890971 -1.362417 0
M  V30 28 H 4.256001 -4.457814 0.355750 0
M  V30 29 H 6.806281 -1.337891 -0.883130 0
M  V30 30 H 4.845824 -0.073135 -1.746670 0
M  V30 31 H 2.462019 -0.753084 -2.678898 0
M  V30 32 H 0.308512 0.361862 -2.917983 0
M  V30 33 H -1.731285 1.192696 -1.851550 0
M  V30 34 H 1.612741 -1.016879 0.944374 0
M  V30 35 H -0.972885 -0.233040 4.241695 0
M  V30 36 H -0.384603 1.274057 3.544217 0
M  V30 37 H -2.612564 0.611797 5.202855 0
M  V30 38 H -4.951848 1.297718 5.186271 0
M  V30 39 H -6.074344 1.875783 3.103747 0
M  V30 40 H -4.832987 1.769005 0.969758 0
M  V30 END ATOM
M  V30 BEGIN BOND
M  V30 1 1 1 2
M  V30 2 2 2 3
M  V30 3 1 3 4
M  V30 4 1 4 5
M  V30 5 2 4 6
M  V30 6 1 6 7
M  V30 7 2 7 8
M  V30 8 1 8 9
M  V30 9 1 9 10
M  V30 10 2 10 11
M  V30 11 1 11 12
M  V30 12 2 12 13
M  V30 13 1 13 14
M  V30 14 2 14 15
M  V30 15 1 14 16
M  V30 16 1 16 17
M  V30 17 1 17 18
M  V30 18 2 18 19
M  V30 19 1 19 20
M  V30 20 2 20 21
M  V30 21 1 21 22
M  V30 22 2 22 23
M  V30 23 1 23 24
M  V30 24 2 24 25
M  V30 25 1 8 2
M  V30 26 1 15 10
M  V30 27 1 23 18
M  V30 28 1 24 13
M  V30 29 1 1 26
M  V30 30 1 1 27
M  V30 31 1 3 28
M  V30 32 1 6 29
M  V30 33 1 7 30
M  V30 34 1 9 31
M  V30 35 1 11 32
M  V30 36 1 12 33
M  V30 37 1 15 34
M  V30 38 1 17 35
M  V30 39 1 17 36
M  V30 40 1 19 37
M  V30 41 1 20 38
M  V30 42 1 21 39
M  V30 43 1 22 40
M  V30 END BOND
M  V30 END CTAB
M  END
>  <Dataset>  (609) 
ChEMBL_Kinases

>  <Ligand_Instance>  (609) 
nan

>  <PDB_ID>  (609) 
nan

>  <Standardized_SMILES>  (609) 
Nc1cc(F)ccc1Nc1ccc2c(c1)OCc1ccccc1C2=O

>  <Name>  (609) 
nan

>  <Pocket>  (609) 
nan

>  <ATP_Site>  (609) 
nan

>  <Peripheral>  (609) 
nan

>  <Num_H_Atoms_ProtBoundConf>  (609) 
nan

>  <Num_Resolved_Atoms>  (609) 
nan

>  <Num_Not_Resolved_Atoms>  (609) 
nan

$$$$
CHEMBL218869
     RDKit          3D

  0  0  0  0  0  0  0  0  0  0999 V3000
M  V30 BEGIN CTAB
M  V30 COUNTS 45 48 0 0 0
M  V30 BEGIN ATOM
M  V30 1 C 1.935068 -2.132715 -0.553436 0
M  V30 2 C 2.386304 -0.802380 0.035471 0
M  V30 3 N 2.040054 0.302762 -0.822231 0
M  V30 4 C 2.758858 0.854492 -1.816654 0
M  V30 5 C 4.087406 0.428728 -2.245172 0
M  V30 6 N 4.856814 -0.565413 -1.764461 0
M  V30 7 O 5.983277 -0.603860 -2.442318 0
M  V30 8 N 5.996240 0.324257 -3.355487 0
M  V30 9 C 4.829546 0.990404 -3.264103 0
M  V30 10 N 4.503083 2.074533 -4.113831 0
M  V30 11 N 2.095316 1.874842 -2.390186 0
M  V30 12 C 0.888591 2.024684 -1.769995 0
M  V30 13 C -0.235404 2.822228 -1.833888 0
M  V30 14 N -1.268331 2.633826 -0.994259 0
M  V30 15 C -1.298916 1.680614 -0.045402 0
M  V30 16 O -2.379453 1.505173 0.811817 0
M  V30 17 C -2.385385 0.512415 1.783599 0
M  V30 18 C -2.879633 -0.745733 1.502889 0
M  V30 19 C -2.867892 -1.703820 2.494994 0
M  V30 20 C -2.394259 -1.507167 3.770428 0
M  V30 21 N -2.366593 -2.464311 4.811014 0
M  V30 22 C -2.795008 -3.793165 4.805268 0
M  V30 23 C -2.720428 -4.720541 5.961920 0
M  V30 24 O -3.282473 -4.290359 3.786576 0
M  V30 25 C -1.908025 -0.244507 4.021736 0
M  V30 26 C -1.902303 0.741353 3.056186 0
M  V30 27 C -0.185312 0.870834 0.037019 0
M  V30 28 C 0.906971 1.017489 -0.799597 0
M  V30 29 H 1.328407 -1.974065 -1.489612 0
M  V30 30 H 1.285283 -2.650730 0.165268 0
M  V30 31 H 2.812479 -2.726673 -0.890521 0
M  V30 32 H 3.478510 -0.800094 0.241069 0
M  V30 33 H 1.892927 -0.621912 1.013106 0
M  V30 34 H 3.830768 2.849537 -3.960855 0
M  V30 35 H 3.798370 2.836837 -3.888150 0
M  V30 36 H -0.211076 3.588485 -2.596477 0
M  V30 37 H -3.264731 -0.954324 0.514439 0
M  V30 38 H -3.260317 -2.646489 2.215984 0
M  V30 39 H -1.978075 -2.191365 5.745943 0
M  V30 40 H -2.056795 -4.314522 6.757338 0
M  V30 41 H -3.706356 -4.927813 6.419028 0
M  V30 42 H -2.300039 -5.713445 5.639602 0
M  V30 43 H -1.511589 -0.012462 5.022025 0
M  V30 44 H -1.501869 1.699632 3.344518 0
M  V30 45 H -0.205176 0.101738 0.799546 0
M  V30 END ATOM
M  V30 BEGIN BOND
M  V30 1 1 1 2
M  V30 2 1 2 3
M  V30 3 1 3 4
M  V30 4 1 4 5
M  V30 5 2 5 6
M  V30 6 1 6 7
M  V30 7 1 7 8
M  V30 8 2 8 9
M  V30 9 1 9 10
M  V30 10 2 4 11
M  V30 11 1 11 12
M  V30 12 2 12 13
M  V30 13 1 13 14
M  V30 14 2 14 15
M  V30 15 1 15 16
M  V30 16 1 16 17
M  V30 17 2 17 18
M  V30 18 1 18 19
M  V30 19 2 19 20
M  V30 20 1 20 21
M  V30 21 1 21 22
M  V30 22 1 22 23
M  V30 23 2 22 24
M  V30 24 1 20 25
M  V30 25 2 25 26
M  V30 26 1 15 27
M  V30 27 2 27 28
M  V30 28 1 28 3
M  V30 29 1 9 5
M  V30 30 1 28 12
M  V30 31 1 26 17
M  V30 32 1 1 29
M  V30 33 1 1 30
M  V30 34 1 1 31
M  V30 35 1 2 32
M  V30 36 1 2 33
M  V30 37 1 10 34
M  V30 38 1 10 35
M  V30 39 1 13 36
M  V30 40 1 18 37
M  V30 41 1 19 38
M  V30 42 1 21 39
M  V30 43 1 23 40
M  V30 44 1 23 41
M  V30 45 1 23 42
M  V30 46 1 25 43
M  V30 47 1 26 44
M  V30 48 1 27 45
M  V30 END BOND
M  V30 END CTAB
M  END
>  <Dataset>  (610) 
ChEMBL_Kinases

>  <Ligand_Instance>  (610) 
nan

>  <PDB_ID>  (610) 
nan

>  <Standardized_SMILES>  (610) 
CCn1c(-c2nonc2N)nc2cnc(Oc3ccc(NC(C)=O)cc3)cc21

>  <Name>  (610) 
nan

>  <Pocket>  (610) 
nan

>  <ATP_Site>  (610) 
nan

>  <Peripheral>  (610) 
nan

>  <Num_H_Atoms_ProtBoundConf>  (610) 
nan

>  <Num_Resolved_Atoms>  (610) 
nan

>  <Num_Not_Resolved_Atoms>  (610) 
nan

$$$$
CHEMBL218868
     RDKit          3D

  0  0  0  0  0  0  0  0  0  0999 V3000
M  V30 BEGIN CTAB
M  V30 COUNTS 45 48 0 0 0
M  V30 BEGIN ATOM
M  V30 1 C 2.679321 -2.046095 0.580365 0
M  V30 2 C 2.869210 -0.691975 1.244755 0
M  V30 3 N 2.658483 0.388700 0.314420 0
M  V30 4 C 3.549560 1.004899 -0.483961 0
M  V30 5 C 4.972454 0.699684 -0.582425 0
M  V30 6 N 5.705891 -0.223511 0.065707 0
M  V30 7 O 6.952239 -0.150291 -0.331327 0
M  V30 8 N 7.075415 0.789397 -1.221467 0
M  V30 9 C 5.866919 1.353150 -1.415727 0
M  V30 10 N 5.654892 2.402973 -2.317565 0
M  V30 11 N 2.965143 1.973227 -1.212773 0
M  V30 12 C 1.646408 2.020208 -0.906270 0
M  V30 13 C 0.539455 2.752226 -1.281016 0
M  V30 14 N -0.668066 2.502109 -0.732878 0
M  V30 15 C -0.859136 1.536775 0.198651 0
M  V30 16 O -2.151679 1.397442 0.668214 0
M  V30 17 C -2.582344 0.497580 1.603481 0
M  V30 18 C -2.561947 0.853881 2.935155 0
M  V30 19 C -3.003740 -0.076763 3.861554 0
M  V30 20 C -3.439405 -1.305949 3.408914 0
M  V30 21 C -3.474664 -1.694332 2.105012 0
M  V30 22 N -3.899237 -2.908134 1.594138 0
M  V30 23 C -4.400306 -4.049665 2.268048 0
M  V30 24 C -4.837190 -5.321207 1.643251 0
M  V30 25 O -4.498946 -4.019468 3.519521 0
M  V30 26 C -3.025859 -0.736353 1.219007 0
M  V30 27 C 0.230086 0.814311 0.569377 0
M  V30 28 C 1.490910 1.020153 0.047519 0
M  V30 29 H 1.854329 -2.054666 -0.160324 0
M  V30 30 H 2.552644 -2.798763 1.396230 0
M  V30 31 H 3.604540 -2.322116 0.001359 0
M  V30 32 H 2.230500 -0.589492 2.134013 0
M  V30 33 H 3.931542 -0.668305 1.588550 0
M  V30 34 H 5.828597 3.431903 -2.150487 0
M  V30 35 H 5.289185 2.268397 -3.284257 0
M  V30 36 H 0.719397 3.506390 -2.016889 0
M  V30 37 H -2.218909 1.818455 3.277172 0
M  V30 38 H -2.984423 0.210910 4.904473 0
M  V30 39 H -3.761948 -1.965653 4.171790 0
M  V30 40 H -3.883962 -3.104033 0.561204 0
M  V30 41 H -4.984446 -5.203243 0.543289 0
M  V30 42 H -4.057728 -6.123221 1.793287 0
M  V30 43 H -5.774169 -5.639670 2.131257 0
M  V30 44 H -3.017164 -0.959745 0.140469 0
M  V30 45 H 0.046982 0.036875 1.327331 0
M  V30 END ATOM
M  V30 BEGIN BOND
M  V30 1 1 1 2
M  V30 2 1 2 3
M  V30 3 1 3 4
M  V30 4 1 4 5
M  V30 5 2 5 6
M  V30 6 1 6 7
M  V30 7 1 7 8
M  V30 8 2 8 9
M  V30 9 1 9 10
M  V30 10 2 4 11
M  V30 11 1 11 12
M  V30 12 2 12 13
M  V30 13 1 13 14
M  V30 14 2 14 15
M  V30 15 1 15 16
M  V30 16 1 16 17
M  V30 17 2 17 18
M  V30 18 1 18 19
M  V30 19 2 19 20
M  V30 20 1 20 21
M  V30 21 1 21 22
M  V30 22 1 22 23
M  V30 23 1 23 24
M  V30 24 2 23 25
M  V30 25 2 21 26
M  V30 26 1 15 27
M  V30 27 2 27 28
M  V30 28 1 28 3
M  V30 29 1 9 5
M  V30 30 1 28 12
M  V30 31 1 26 17
M  V30 32 1 1 29
M  V30 33 1 1 30
M  V30 34 1 1 31
M  V30 35 1 2 32
M  V30 36 1 2 33
M  V30 37 1 10 34
M  V30 38 1 10 35
M  V30 39 1 13 36
M  V30 40 1 18 37
M  V30 41 1 19 38
M  V30 42 1 20 39
M  V30 43 1 22 40
M  V30 44 1 24 41
M  V30 45 1 24 42
M  V30 46 1 24 43
M  V30 47 1 26 44
M  V30 48 1 27 45
M  V30 END BOND
M  V30 END CTAB
M  END
>  <Dataset>  (611) 
ChEMBL_Kinases

>  <Ligand_Instance>  (611) 
nan

>  <PDB_ID>  (611) 
nan

>  <Standardized_SMILES>  (611) 
CCn1c(-c2nonc2N)nc2cnc(Oc3cccc(NC(C)=O)c3)cc21

>  <Name>  (611) 
nan

>  <Pocket>  (611) 
nan

>  <ATP_Site>  (611) 
nan

>  <Peripheral>  (611) 
nan

>  <Num_H_Atoms_ProtBoundConf>  (611) 
nan

>  <Num_Resolved_Atoms>  (611) 
nan

>  <Num_Not_Resolved_Atoms>  (611) 
nan

$$$$
CHEMBL218791
     RDKit          3D

  0  0  0  0  0  0  0  0  0  0999 V3000
M  V30 BEGIN CTAB
M  V30 COUNTS 37 39 0 0 0
M  V30 BEGIN ATOM
M  V30 1 C -0.619532 -3.423196 0.095064 0
M  V30 2 C 0.506487 -3.249169 -0.827147 0
M  V30 3 C 0.900905 -4.344412 -1.589755 0
M  V30 4 C 1.943887 -4.190120 -2.450681 0
M  V30 5 O 2.333826 -5.269317 -3.203281 0
M  V30 6 C 2.602974 -3.004766 -2.582584 0
M  V30 7 C 2.208406 -1.941216 -1.831731 0
M  V30 8 C 2.989084 -0.671045 -2.037367 0
M  V30 9 C 1.148555 -2.038505 -0.934273 0
M  V30 10 C 0.845507 -0.834620 -0.203948 0
M  V30 11 C 0.051760 -0.359794 0.697044 0
M  V30 12 C -0.089509 0.948735 1.319509 0
M  V30 13 C 0.706061 2.019119 1.000411 0
M  V30 14 N 0.546843 3.223823 1.599953 0
M  V30 15 C -0.408842 3.415538 2.541075 0
M  V30 16 C -1.203579 2.332789 2.854742 0
M  V30 17 C -2.248996 2.479970 3.860895 0
M  V30 18 N -3.539178 2.867191 3.979511 0
M  V30 19 N -3.921552 2.757181 5.243005 0
M  V30 20 N -2.880997 2.298688 5.946163 0
M  V30 21 N -1.863395 2.130516 5.102568 0
M  V30 22 C -1.068023 1.114017 2.271386 0
M  V30 23 H -1.528531 -2.835980 -0.191869 0
M  V30 24 H -1.001611 -4.491003 -0.042644 0
M  V30 25 H -0.370836 -3.395993 1.166678 0
M  V30 26 H 0.406687 -5.300339 -1.516273 0
M  V30 27 H 3.056394 -5.902544 -2.873039 0
M  V30 28 H 3.423757 -2.925425 -3.276031 0
M  V30 29 H 3.882981 -0.833206 -2.632832 0
M  V30 30 H 3.351153 -0.308247 -1.030129 0
M  V30 31 H 2.279887 0.087369 -2.409212 0
M  V30 32 H 1.448841 0.066953 -0.415247 0
M  V30 33 H -0.611468 -1.150162 1.005246 0
M  V30 34 H 1.477780 1.959752 0.276533 0
M  V30 35 H -0.510933 4.393176 3.002912 0
M  V30 36 H -2.935241 2.126283 6.982179 0
M  V30 37 H -1.711905 0.291535 2.546142 0
M  V30 END ATOM
M  V30 BEGIN BOND
M  V30 1 1 1 2
M  V30 2 2 2 3
M  V30 3 1 3 4
M  V30 4 1 4 5
M  V30 5 2 4 6
M  V30 6 1 6 7
M  V30 7 1 7 8
M  V30 8 2 7 9
M  V30 9 1 9 10
M  V30 10 2 10 11
M  V30 11 1 11 12
M  V30 12 2 12 13
M  V30 13 1 13 14
M  V30 14 2 14 15
M  V30 15 1 15 16
M  V30 16 1 16 17
M  V30 17 1 17 18
M  V30 18 2 18 19
M  V30 19 1 19 20
M  V30 20 1 20 21
M  V30 21 2 16 22
M  V30 22 1 9 2
M  V30 23 1 22 12
M  V30 24 2 21 17
M  V30 25 1 1 23
M  V30 26 1 1 24
M  V30 27 1 1 25
M  V30 28 1 3 26
M  V30 29 1 5 27
M  V30 30 1 6 28
M  V30 31 1 8 29
M  V30 32 1 8 30
M  V30 33 1 8 31
M  V30 34 1 10 32
M  V30 35 1 11 33
M  V30 36 1 13 34
M  V30 37 1 15 35
M  V30 38 1 20 36
M  V30 39 1 22 37
M  V30 END BOND
M  V30 END CTAB
M  END
>  <Dataset>  (612) 
ChEMBL_Kinases

>  <Ligand_Instance>  (612) 
nan

>  <PDB_ID>  (612) 
nan

>  <Standardized_SMILES>  (612) 
Cc1cc(O)cc(C)c1/C=C/c1cncc(-c2nn[nH]n2)c1

>  <Name>  (612) 
nan

>  <Pocket>  (612) 
nan

>  <ATP_Site>  (612) 
nan

>  <Peripheral>  (612) 
nan

>  <Num_H_Atoms_ProtBoundConf>  (612) 
nan

>  <Num_Resolved_Atoms>  (612) 
nan

>  <Num_Not_Resolved_Atoms>  (612) 
nan

$$$$
CHEMBL218532
     RDKit          3D

  0  0  0  0  0  0  0  0  0  0999 V3000
M  V30 BEGIN CTAB
M  V30 COUNTS 62 66 0 0 0
M  V30 BEGIN ATOM
M  V30 1 C 1.511900 -0.011490 5.674578 0
M  V30 2 C 0.592145 -0.962886 4.902058 0 CFG=2
M  V30 3 N 1.344299 -1.545778 3.842107 0
M  V30 4 C 2.138523 -1.291102 2.692489 0
M  V30 5 N 3.487644 -1.270479 2.663584 0
M  V30 6 C 4.174350 -1.012627 1.536253 0
M  V30 7 C 3.441366 -0.766633 0.401922 0
M  V30 8 C 2.062211 -0.777246 0.385728 0
M  V30 9 C 1.179662 -0.517883 -0.748388 0
M  V30 10 C 1.091191 0.663628 -1.451817 0
M  V30 11 C 1.918753 1.817682 -1.130999 0
M  V30 12 C 2.757295 2.268315 -2.141499 0
M  V30 13 C 3.604394 3.351661 -1.970990 0
M  V30 14 C 3.560885 3.954499 -0.731548 0
M  V30 15 F 4.388570 5.021489 -0.539866 0
M  V30 16 C 2.744495 3.541369 0.300034 0
M  V30 17 C 1.906520 2.454684 0.102614 0
M  V30 18 N 0.136314 0.436932 -2.395470 0
M  V30 19 C -0.334280 -0.810286 -2.279160 0
M  V30 20 C -1.287700 -1.537467 -2.961785 0
M  V30 21 C -1.631162 -2.856301 -2.664598 0
M  V30 22 C -2.668963 -3.447058 -3.508264 0
M  V30 23 N -4.014355 -3.243451 -3.099211 0
M  V30 24 C -4.334953 -3.799716 -1.809421 0
M  V30 25 C -4.930303 -3.618023 -4.150337 0
M  V30 26 C -0.935070 -3.417259 -1.605539 0
M  V30 27 C 0.020613 -2.698792 -0.915979 0
M  V30 28 N 0.297178 -1.425194 -1.263564 0
M  V30 29 N 1.438328 -1.044762 1.555238 0
M  V30 30 C -0.685989 -0.357075 4.530619 0
M  V30 31 C -0.945400 0.528608 3.512938 0
M  V30 32 C -2.158045 1.075055 3.169929 0
M  V30 33 C -3.245330 0.703243 3.922005 0
M  V30 34 C -3.131997 -0.178496 4.974703 0
M  V30 35 C -1.859350 -0.671088 5.234325 0
M  V30 36 H 2.122492 0.587364 4.967123 0
M  V30 37 H 0.891044 0.610585 6.316917 0
M  V30 38 H 2.183845 -0.654990 6.300818 0
M  V30 39 H 0.364096 -1.797122 5.626967 0
M  V30 40 H 1.437425 -2.603551 3.750072 0
M  V30 41 H 5.255473 -0.997797 1.516781 0
M  V30 42 H 3.900244 -0.547864 -0.550849 0
M  V30 43 H 2.800092 1.795060 -3.136730 0
M  V30 44 H 4.241898 3.669713 -2.781778 0
M  V30 45 H 2.714289 4.019132 1.277229 0
M  V30 46 H 1.219066 2.030071 0.826504 0
M  V30 47 H -1.768526 -0.997685 -3.772773 0
M  V30 48 H -2.487323 -3.095720 -4.563712 0
M  V30 49 H -2.494263 -4.562726 -3.587541 0
M  V30 50 H -4.429303 -3.014749 -1.014448 0
M  V30 51 H -5.286149 -4.386905 -1.822377 0
M  V30 52 H -3.550531 -4.501643 -1.476840 0
M  V30 53 H -5.756398 -4.246481 -3.766996 0
M  V30 54 H -4.402288 -4.191537 -4.937948 0
M  V30 55 H -5.404110 -2.734014 -4.614385 0
M  V30 56 H -1.190963 -4.432423 -1.376588 0
M  V30 57 H 0.527411 -3.196526 -0.099961 0
M  V30 58 H -0.087103 0.832903 2.913772 0
M  V30 59 H -2.259408 1.767010 2.348095 0
M  V30 60 H -4.203509 1.130681 3.654572 0
M  V30 61 H -3.967618 -0.483182 5.573846 0
M  V30 62 H -1.804805 -1.375915 6.081252 0
M  V30 END ATOM
M  V30 BEGIN BOND
M  V30 1 1 1 2
M  V30 2 1 2 3
M  V30 3 1 3 4
M  V30 4 2 4 5
M  V30 5 1 5 6
M  V30 6 2 6 7
M  V30 7 1 7 8
M  V30 8 1 8 9
M  V30 9 2 9 10
M  V30 10 1 10 11
M  V30 11 2 11 12
M  V30 12 1 12 13
M  V30 13 2 13 14
M  V30 14 1 14 15
M  V30 15 1 14 16
M  V30 16 2 16 17
M  V30 17 1 10 18
M  V30 18 2 18 19
M  V30 19 1 19 20
M  V30 20 2 20 21
M  V30 21 1 21 22
M  V30 22 1 22 23
M  V30 23 1 23 24
M  V30 24 1 23 25
M  V30 25 1 21 26
M  V30 26 2 26 27
M  V30 27 1 27 28
M  V30 28 2 8 29
M  V30 29 1 2 30
M  V30 30 2 30 31
M  V30 31 1 31 32
M  V30 32 2 32 33
M  V30 33 1 33 34
M  V30 34 2 34 35
M  V30 35 1 29 4
M  V30 36 1 35 30
M  V30 37 1 28 9
M  V30 38 1 17 11
M  V30 39 1 28 19
M  V30 40 1 1 36
M  V30 41 1 1 37
M  V30 42 1 1 38
M  V30 43 1 2 39 CFG=1
M  V30 44 1 3 40
M  V30 45 1 6 41
M  V30 46 1 7 42
M  V30 47 1 12 43
M  V30 48 1 13 44
M  V30 49 1 16 45
M  V30 50 1 17 46
M  V30 51 1 20 47
M  V30 52 1 22 48
M  V30 53 1 22 49
M  V30 54 1 24 50
M  V30 55 1 24 51
M  V30 56 1 24 52
M  V30 57 1 25 53
M  V30 58 1 25 54
M  V30 59 1 25 55
M  V30 60 1 26 56
M  V30 61 1 27 57
M  V30 62 1 31 58
M  V30 63 1 32 59
M  V30 64 1 33 60
M  V30 65 1 34 61
M  V30 66 1 35 62
M  V30 END BOND
M  V30 END CTAB
M  END
>  <Dataset>  (613) 
ChEMBL_Kinases

>  <Ligand_Instance>  (613) 
nan

>  <PDB_ID>  (613) 
nan

>  <Standardized_SMILES>  (613) 
C[C@H](Nc1nccc(-c2c(-c3ccc(F)cc3)nc3cc(CN(C)C)ccn23)n1)c1ccccc1

>  <Name>  (613) 
nan

>  <Pocket>  (613) 
nan

>  <ATP_Site>  (613) 
nan

>  <Peripheral>  (613) 
nan

>  <Num_H_Atoms_ProtBoundConf>  (613) 
nan

>  <Num_Resolved_Atoms>  (613) 
nan

>  <Num_Not_Resolved_Atoms>  (613) 
nan

$$$$
CHEMBL218489
     RDKit          3D

  0  0  0  0  0  0  0  0  0  0999 V3000
M  V30 BEGIN CTAB
M  V30 COUNTS 59 63 0 0 0
M  V30 BEGIN ATOM
M  V30 1 N 5.896686 -1.824063 4.993347 0
M  V30 2 C 5.791072 -2.106686 3.595672 0
M  V30 3 C 5.141290 -0.992038 2.805300 0
M  V30 4 C 5.974024 0.263406 2.967104 0
M  V30 5 C 5.680164 1.262597 1.839955 0
M  V30 6 N 4.460862 0.840600 1.239165 0
M  V30 7 C 3.609623 1.863010 0.731426 0
M  V30 8 C 2.360432 1.279989 0.121346 0
M  V30 9 C 2.275111 0.921919 -1.229112 0
M  V30 10 C 1.088573 0.394233 -1.697674 0
M  V30 11 C -0.017910 0.204043 -0.893446 0
M  V30 12 N -1.257574 -0.280903 -1.109546 0
M  V30 13 C -1.957667 -0.245772 0.039336 0
M  V30 14 C -3.340558 -0.706696 0.128946 0
M  V30 15 C -3.940167 -1.194172 -1.013942 0
M  V30 16 C -5.265580 -1.642994 -0.955140 0
M  V30 17 C -5.895349 -2.139320 -2.091315 0
M  V30 18 C -7.190079 -2.554194 -1.937206 0
M  V30 19 C -7.926456 -3.091129 -3.087078 0
M  V30 20 N -7.353417 -3.210448 -4.404579 0
M  V30 21 O -9.116024 -3.500541 -3.058807 0
M  V30 22 C -7.899771 -2.516069 -0.760863 0
M  V30 23 C -7.263648 -2.021709 0.358196 0
M  V30 24 C -5.953175 -1.590912 0.246938 0
M  V30 25 N -5.359241 -1.111116 1.366427 0
M  V30 26 C -4.082341 -0.683424 1.290349 0
M  V30 27 O -3.572562 -0.250030 2.339851 0
M  V30 28 C -1.116456 0.280165 0.995523 0
M  V30 29 C 0.112928 0.572240 0.433164 0
M  V30 30 C 1.272512 1.108348 0.975371 0
M  V30 31 C 4.504061 -0.355326 0.472572 0
M  V30 32 C 5.163518 -1.427150 1.335407 0
M  V30 33 H 5.706187 -0.842356 5.273523 0
M  V30 34 H 5.502729 -2.540061 5.632963 0
M  V30 35 H 6.829728 -2.190826 3.198649 0
M  V30 36 H 5.239431 -3.057218 3.480720 0
M  V30 37 H 4.082205 -0.815627 3.082578 0
M  V30 38 H 7.042645 0.012295 3.005632 0
M  V30 39 H 5.681987 0.718164 3.944366 0
M  V30 40 H 5.508495 2.269232 2.274105 0
M  V30 41 H 6.552030 1.324579 1.154314 0
M  V30 42 H 4.172155 2.436160 -0.037747 0
M  V30 43 H 3.288944 2.595334 1.490039 0
M  V30 44 H 3.153033 1.078635 -1.843317 0
M  V30 45 H 1.045352 0.119890 -2.763559 0
M  V30 46 H -1.527752 -0.610023 -2.074782 0
M  V30 47 H -3.460259 -1.265256 -1.996009 0
M  V30 48 H -5.371353 -2.187024 -3.040034 0
M  V30 49 H -7.120416 -4.191388 -4.740657 0
M  V30 50 H -7.133508 -2.434610 -5.086040 0
M  V30 51 H -8.939024 -2.862505 -0.691964 0
M  V30 52 H -7.762440 -1.959501 1.330756 0
M  V30 53 H -5.883006 -1.071645 2.280982 0
M  V30 54 H -1.370836 0.438516 2.012335 0
M  V30 55 H 1.345379 1.387141 2.018273 0
M  V30 56 H 5.048176 -0.281136 -0.486376 0
M  V30 57 H 3.451445 -0.650479 0.259325 0
M  V30 58 H 4.561674 -2.337874 1.258727 0
M  V30 59 H 6.202986 -1.643210 1.036056 0
M  V30 END ATOM
M  V30 BEGIN BOND
M  V30 1 1 1 2
M  V30 2 1 2 3
M  V30 3 1 3 4
M  V30 4 1 4 5
M  V30 5 1 5 6
M  V30 6 1 6 7
M  V30 7 1 7 8
M  V30 8 2 8 9
M  V30 9 1 9 10
M  V30 10 2 10 11
M  V30 11 1 11 12
M  V30 12 1 12 13
M  V30 13 1 13 14
M  V30 14 2 14 15
M  V30 15 1 15 16
M  V30 16 2 16 17
M  V30 17 1 17 18
M  V30 18 1 18 19
M  V30 19 1 19 20
M  V30 20 2 19 21
M  V30 21 2 18 22
M  V30 22 1 22 23
M  V30 23 2 23 24
M  V30 24 1 24 25
M  V30 25 1 25 26
M  V30 26 2 26 27
M  V30 27 2 13 28
M  V30 28 1 28 29
M  V30 29 2 29 30
M  V30 30 1 6 31
M  V30 31 1 31 32
M  V30 32 1 32 3
M  V30 33 1 30 8
M  V30 34 1 29 11
M  V30 35 1 26 14
M  V30 36 1 24 16
M  V30 37 1 1 33
M  V30 38 1 1 34
M  V30 39 1 2 35
M  V30 40 1 2 36
M  V30 41 1 3 37
M  V30 42 1 4 38
M  V30 43 1 4 39
M  V30 44 1 5 40
M  V30 45 1 5 41
M  V30 46 1 7 42
M  V30 47 1 7 43
M  V30 48 1 9 44
M  V30 49 1 10 45
M  V30 50 1 12 46
M  V30 51 1 15 47
M  V30 52 1 17 48
M  V30 53 1 20 49
M  V30 54 1 20 50
M  V30 55 1 22 51
M  V30 56 1 23 52
M  V30 57 1 25 53
M  V30 58 1 28 54
M  V30 59 1 30 55
M  V30 60 1 31 56
M  V30 61 1 31 57
M  V30 62 1 32 58
M  V30 63 1 32 59
M  V30 END BOND
M  V30 END CTAB
M  END
>  <Dataset>  (614) 
ChEMBL_Kinases

>  <Ligand_Instance>  (614) 
nan

>  <PDB_ID>  (614) 
nan

>  <Standardized_SMILES>  (614) 
NCC1CCN(Cc2ccc3[nH]c(-c4cc5cc(C(N)=O)ccc5[nH]c4=O)cc3c2)CC1

>  <Name>  (614) 
nan

>  <Pocket>  (614) 
nan

>  <ATP_Site>  (614) 
nan

>  <Peripheral>  (614) 
nan

>  <Num_H_Atoms_ProtBoundConf>  (614) 
nan

>  <Num_Resolved_Atoms>  (614) 
nan

>  <Num_Not_Resolved_Atoms>  (614) 
nan

$$$$
CHEMBL218301
     RDKit          3D

  0  0  0  0  0  0  0  0  0  0999 V3000
M  V30 BEGIN CTAB
M  V30 COUNTS 49 49 0 0 0
M  V30 BEGIN ATOM
M  V30 1 C 0.499162 -6.444188 2.152959 0
M  V30 2 C 1.510266 -5.314165 2.380470 0
M  V30 3 C 2.041566 -4.954847 1.032983 0
M  V30 4 C 3.056064 -3.857561 1.031943 0
M  V30 5 C 2.442830 -2.593935 1.608773 0
M  V30 6 C 3.517894 -1.517769 1.581486 0
M  V30 7 C 3.027247 -0.214770 2.130307 0
M  V30 8 C 1.875594 0.378142 1.414375 0
M  V30 9 C 2.109230 0.687562 -0.036455 0
M  V30 10 C 0.828397 1.275282 -0.570152 0
M  V30 11 O 0.728226 1.632937 -1.771290 0
M  V30 12 O -0.288512 1.449858 0.221524 0
M  V30 13 C -1.501648 1.999233 -0.256725 0
M  V30 14 C -2.518058 2.054160 0.850090 0 CFG=2
M  V30 15 O -2.748633 0.767349 1.316445 0
M  V30 16 C -3.734081 2.838318 0.520322 0 CFG=1
M  V30 17 O -3.344906 4.117856 0.062162 0
M  V30 18 C -3.907140 4.273184 -1.198106 0
M  V30 19 O -3.810882 5.276783 -1.970549 0
M  V30 20 C -4.676353 3.098167 -1.591290 0
M  V30 21 O -5.385650 2.852768 -2.757803 0
M  V30 22 C -4.555898 2.272729 -0.561425 0
M  V30 23 O -5.091872 0.998690 -0.398706 0
M  V30 24 H 0.531032 -7.094401 3.069103 0
M  V30 25 H 0.805616 -7.046998 1.278465 0
M  V30 26 H -0.533657 -6.067248 2.038756 0
M  V30 27 H 2.345969 -5.717469 2.989518 0
M  V30 28 H 1.018263 -4.437505 2.836834 0
M  V30 29 H 1.179627 -4.639131 0.387484 0
M  V30 30 H 2.467306 -5.858185 0.527889 0
M  V30 31 H 3.343447 -3.668697 -0.020592 0
M  V30 32 H 3.979427 -4.156163 1.563379 0
M  V30 33 H 1.628299 -2.278961 0.944001 0
M  V30 34 H 2.142243 -2.744780 2.655650 0
M  V30 35 H 3.998143 -1.466926 0.592253 0
M  V30 36 H 4.313697 -1.877390 2.275382 0
M  V30 37 H 3.887307 0.458075 2.262867 0
M  V30 38 H 2.671528 -0.444240 3.169074 0
M  V30 39 H 1.662874 1.362434 1.897169 0
M  V30 40 H 0.957145 -0.216948 1.582815 0
M  V30 41 H 2.859152 1.490872 -0.181708 0
M  V30 42 H 2.374878 -0.154054 -0.669782 0
M  V30 43 H -1.810209 1.444443 -1.141882 0
M  V30 44 H -1.240887 3.024499 -0.604564 0
M  V30 45 H -2.013044 2.596424 1.694444 0
M  V30 46 H -2.049321 0.452229 1.935221 0
M  V30 47 H -4.314937 2.936009 1.483024 0
M  V30 48 H -4.936056 2.740532 -3.652931 0
M  V30 49 H -4.747783 0.180347 -0.857606 0
M  V30 END ATOM
M  V30 BEGIN BOND
M  V30 1 1 1 2
M  V30 2 1 2 3
M  V30 3 1 3 4
M  V30 4 1 4 5
M  V30 5 1 5 6
M  V30 6 1 6 7
M  V30 7 1 7 8
M  V30 8 1 8 9
M  V30 9 1 9 10
M  V30 10 2 10 11
M  V30 11 1 10 12
M  V30 12 1 12 13
M  V30 13 1 13 14
M  V30 14 1 14 15
M  V30 15 1 14 16
M  V30 16 1 16 17
M  V30 17 1 17 18
M  V30 18 2 18 19
M  V30 19 1 18 20
M  V30 20 1 20 21
M  V30 21 2 20 22
M  V30 22 1 22 23
M  V30 23 1 22 16
M  V30 24 1 1 24
M  V30 25 1 1 25
M  V30 26 1 1 26
M  V30 27 1 2 27
M  V30 28 1 2 28
M  V30 29 1 3 29
M  V30 30 1 3 30
M  V30 31 1 4 31
M  V30 32 1 4 32
M  V30 33 1 5 33
M  V30 34 1 5 34
M  V30 35 1 6 35
M  V30 36 1 6 36
M  V30 37 1 7 37
M  V30 38 1 7 38
M  V30 39 1 8 39
M  V30 40 1 8 40
M  V30 41 1 9 41
M  V30 42 1 9 42
M  V30 43 1 13 43
M  V30 44 1 13 44
M  V30 45 1 14 45 CFG=1
M  V30 46 1 15 46
M  V30 47 1 16 47 CFG=1
M  V30 48 1 21 48
M  V30 49 1 23 49
M  V30 END BOND
M  V30 END CTAB
M  END
>  <Dataset>  (615) 
ChEMBL_Kinases

>  <Ligand_Instance>  (615) 
nan

>  <PDB_ID>  (615) 
nan

>  <Standardized_SMILES>  (615) 
CCCCCCCCCC(=O)OC[C@H](O)[C@H]1OC(=O)C(O)=C1O

>  <Name>  (615) 
nan

>  <Pocket>  (615) 
nan

>  <ATP_Site>  (615) 
nan

>  <Peripheral>  (615) 
nan

>  <Num_H_Atoms_ProtBoundConf>  (615) 
nan

>  <Num_Resolved_Atoms>  (615) 
nan

>  <Num_Not_Resolved_Atoms>  (615) 
nan

$$$$
CHEMBL218257
     RDKit          3D

  0  0  0  0  0  0  0  0  0  0999 V3000
M  V30 BEGIN CTAB
M  V30 COUNTS 31 33 0 0 0
M  V30 BEGIN ATOM
M  V30 1 C -0.561500 -3.434609 1.876453 0
M  V30 2 C 0.532696 -2.424070 2.086117 0
M  V30 3 N 0.576895 -1.415498 1.057804 0
M  V30 4 C 1.259169 -1.417921 -0.102393 0
M  V30 5 C 2.132804 -2.482634 -0.584859 0
M  V30 6 N 2.455771 -3.655222 -0.027131 0
M  V30 7 O 3.257349 -4.311997 -0.772287 0
M  V30 8 N 3.501333 -3.630512 -1.831953 0
M  V30 9 C 2.821552 -2.480264 -1.760618 0
M  V30 10 N 2.870666 -1.494137 -2.776116 0
M  V30 11 N 1.038607 -0.286384 -0.795796 0
M  V30 12 C 0.186550 0.509828 -0.096376 0
M  V30 13 C -0.412820 1.748759 -0.245822 0
M  V30 14 N -1.235746 2.233762 0.698032 0
M  V30 15 C -1.530794 1.569283 1.828623 0
M  V30 16 O -2.383739 2.084525 2.795050 0
M  V30 17 C -3.002512 3.354046 2.649765 0
M  V30 18 C -0.926828 0.316127 1.983678 0
M  V30 19 C -0.074046 -0.226186 1.043108 0
M  V30 20 H -1.325360 -3.144367 1.140987 0
M  V30 21 H -0.999967 -3.637540 2.889485 0
M  V30 22 H -0.149717 -4.411770 1.530730 0
M  V30 23 H 1.509072 -2.971013 2.047166 0
M  V30 24 H 0.526141 -1.978349 3.120619 0
M  V30 25 H 2.252456 -1.197553 -3.584898 0
M  V30 26 H 3.702944 -0.849813 -2.803293 0
M  V30 27 H -0.176198 2.296953 -1.166988 0
M  V30 28 H -4.078090 3.238428 2.871691 0
M  V30 29 H -2.934674 3.715970 1.614645 0
M  V30 30 H -2.523574 4.091930 3.339728 0
M  V30 31 H -1.153803 -0.234089 2.890313 0
M  V30 END ATOM
M  V30 BEGIN BOND
M  V30 1 1 1 2
M  V30 2 1 2 3
M  V30 3 1 3 4
M  V30 4 1 4 5
M  V30 5 2 5 6
M  V30 6 1 6 7
M  V30 7 1 7 8
M  V30 8 2 8 9
M  V30 9 1 9 10
M  V30 10 2 4 11
M  V30 11 1 11 12
M  V30 12 2 12 13
M  V30 13 1 13 14
M  V30 14 2 14 15
M  V30 15 1 15 16
M  V30 16 1 16 17
M  V30 17 1 15 18
M  V30 18 2 18 19
M  V30 19 1 19 3
M  V30 20 1 9 5
M  V30 21 1 19 12
M  V30 22 1 1 20
M  V30 23 1 1 21
M  V30 24 1 1 22
M  V30 25 1 2 23
M  V30 26 1 2 24
M  V30 27 1 10 25
M  V30 28 1 10 26
M  V30 29 1 13 27
M  V30 30 1 17 28
M  V30 31 1 17 29
M  V30 32 1 17 30
M  V30 33 1 18 31
M  V30 END BOND
M  V30 END CTAB
M  END
>  <Dataset>  (616) 
ChEMBL_Kinases

>  <Ligand_Instance>  (616) 
nan

>  <PDB_ID>  (616) 
nan

>  <Standardized_SMILES>  (616) 
CCn1c(-c2nonc2N)nc2cnc(OC)cc21

>  <Name>  (616) 
nan

>  <Pocket>  (616) 
nan

>  <ATP_Site>  (616) 
nan

>  <Peripheral>  (616) 
nan

>  <Num_H_Atoms_ProtBoundConf>  (616) 
nan

>  <Num_Resolved_Atoms>  (616) 
nan

>  <Num_Not_Resolved_Atoms>  (616) 
nan

$$$$
CHEMBL2182001
     RDKit          3D

  0  0  0  0  0  0  0  0  0  0999 V3000
M  V30 BEGIN CTAB
M  V30 COUNTS 55 58 0 0 0
M  V30 BEGIN ATOM
M  V30 1 C 4.544315 -3.859457 5.157889 0
M  V30 2 N 3.384996 -3.753367 4.324520 0
M  V30 3 C 2.920868 -2.401775 4.313602 0
M  V30 4 C 3.732164 -1.529146 3.390712 0
M  V30 5 N 3.864593 -2.136334 2.139858 0
M  V30 6 S 4.074179 -1.132977 0.798005 0
M  V30 7 O 4.163217 -1.943476 -0.464055 0
M  V30 8 O 5.325429 -0.335406 0.889452 0
M  V30 9 C 2.650370 -0.117981 0.665771 0
M  V30 10 C 1.582797 -0.561567 -0.086696 0
M  V30 11 C 0.436229 0.195926 -0.225613 0
M  V30 12 C 0.293578 1.428693 0.374596 0
M  V30 13 C -0.945664 2.150147 0.171860 0
M  V30 14 C -1.317170 3.375471 0.658163 0
M  V30 15 N -2.503212 3.955577 0.404362 0
M  V30 16 C -3.416953 3.340034 -0.367180 0
M  V30 17 N -4.662829 3.948279 -0.634326 0
M  V30 18 C -3.079690 2.105117 -0.875102 0
M  V30 19 C -4.014674 1.372370 -1.720329 0
M  V30 20 O -5.139937 1.926630 -1.958951 0
M  V30 21 N -3.666700 0.097459 -2.244817 0
M  V30 22 C -4.448199 -0.737482 -3.071902 0
M  V30 23 C -5.261236 -1.637055 -2.395817 0
M  V30 24 C -6.084431 -2.520145 -3.089581 0
M  V30 25 C -6.035255 -2.438788 -4.469812 0
M  V30 26 N -5.245610 -1.564951 -5.133358 0
M  V30 27 C -4.437581 -0.697900 -4.464107 0
M  V30 28 N -1.881193 1.564387 -0.593990 0
M  V30 29 C 1.378557 1.830488 1.112741 0
M  V30 30 F 1.341108 3.018792 1.739278 0
M  V30 31 C 2.542232 1.112583 1.281333 0
M  V30 32 C 3.225839 -3.381842 1.911551 0
M  V30 33 C 3.513604 -4.361424 3.037031 0
M  V30 34 H 4.360450 -4.577010 6.008832 0
M  V30 35 H 4.889200 -2.888918 5.577468 0
M  V30 36 H 5.405084 -4.298507 4.603086 0
M  V30 37 H 2.960412 -2.005185 5.336185 0
M  V30 38 H 1.858388 -2.395622 3.988533 0
M  V30 39 H 4.688678 -1.214424 3.819595 0
M  V30 40 H 3.138582 -0.586618 3.262011 0
M  V30 41 H 1.664335 -1.522456 -0.568762 0
M  V30 42 H -0.349556 -0.254762 -0.846832 0
M  V30 43 H -0.618654 3.904681 1.279766 0
M  V30 44 H -4.522750 4.608223 -1.453660 0
M  V30 45 H -5.593071 3.822095 -0.157020 0
M  V30 46 H -2.731590 -0.323607 -2.025100 0
M  V30 47 H -5.291935 -1.692204 -1.317297 0
M  V30 48 H -6.714604 -3.217559 -2.557227 0
M  V30 49 H -6.669821 -3.118885 -5.036128 0
M  V30 50 H -3.786855 0.020855 -4.944518 0
M  V30 51 H 3.362157 1.479963 1.873740 0
M  V30 52 H 3.545440 -3.759432 0.941139 0
M  V30 53 H 2.125870 -3.237360 1.894060 0
M  V30 54 H 2.843397 -5.243963 2.992116 0
M  V30 55 H 4.548187 -4.751115 2.862174 0
M  V30 END ATOM
M  V30 BEGIN BOND
M  V30 1 1 1 2
M  V30 2 1 2 3
M  V30 3 1 3 4
M  V30 4 1 4 5
M  V30 5 1 5 6
M  V30 6 2 6 7
M  V30 7 2 6 8
M  V30 8 1 6 9
M  V30 9 2 9 10
M  V30 10 1 10 11
M  V30 11 2 11 12
M  V30 12 1 12 13
M  V30 13 2 13 14
M  V30 14 1 14 15
M  V30 15 2 15 16
M  V30 16 1 16 17
M  V30 17 1 16 18
M  V30 18 1 18 19
M  V30 19 2 19 20
M  V30 20 1 19 21
M  V30 21 1 21 22
M  V30 22 2 22 23
M  V30 23 1 23 24
M  V30 24 2 24 25
M  V30 25 1 25 26
M  V30 26 2 26 27
M  V30 27 2 18 28
M  V30 28 1 12 29
M  V30 29 1 29 30
M  V30 30 2 29 31
M  V30 31 1 5 32
M  V30 32 1 32 33
M  V30 33 1 33 2
M  V30 34 1 31 9
M  V30 35 1 28 13
M  V30 36 1 27 22
M  V30 37 1 1 34
M  V30 38 1 1 35
M  V30 39 1 1 36
M  V30 40 1 3 37
M  V30 41 1 3 38
M  V30 42 1 4 39
M  V30 43 1 4 40
M  V30 44 1 10 41
M  V30 45 1 11 42
M  V30 46 1 14 43
M  V30 47 1 17 44
M  V30 48 1 17 45
M  V30 49 1 21 46
M  V30 50 1 23 47
M  V30 51 1 24 48
M  V30 52 1 25 49
M  V30 53 1 27 50
M  V30 54 1 31 51
M  V30 55 1 32 52
M  V30 56 1 32 53
M  V30 57 1 33 54
M  V30 58 1 33 55
M  V30 END BOND
M  V30 END CTAB
M  END
>  <Dataset>  (617) 
ChEMBL_Kinases

>  <Ligand_Instance>  (617) 
nan

>  <PDB_ID>  (617) 
nan

>  <Standardized_SMILES>  (617) 
CN1CCN(S(=O)(=O)c2ccc(-c3cnc(N)c(C(=O)Nc4cccnc4)n3)c(F)c2)CC1

>  <Name>  (617) 
nan

>  <Pocket>  (617) 
nan

>  <ATP_Site>  (617) 
nan

>  <Peripheral>  (617) 
nan

>  <Num_H_Atoms_ProtBoundConf>  (617) 
nan

>  <Num_Resolved_Atoms>  (617) 
nan

>  <Num_Not_Resolved_Atoms>  (617) 
nan

$$$$
CHEMBL212655
     RDKit          3D

  0  0  0  0  0  0  0  0  0  0999 V3000
M  V30 BEGIN CTAB
M  V30 COUNTS 42 45 0 0 0
M  V30 BEGIN ATOM
M  V30 1 C -0.433213 -4.353204 0.803398 0
M  V30 2 C -0.903037 -3.070985 0.166856 0
M  V30 3 C -2.336997 -3.157635 -0.274949 0
M  V30 4 C -0.064065 -2.793261 -1.046507 0
M  V30 5 C 1.384341 -2.650402 -0.699178 0
M  V30 6 N 2.284459 -3.656929 -0.666510 0
M  V30 7 N 3.441307 -3.101547 -0.315329 0
M  V30 8 C 3.258662 -1.780707 -0.135236 0
M  V30 9 C 4.082431 -0.711326 0.227494 0
M  V30 10 C 3.614797 0.588378 0.340375 0
M  V30 11 C 2.278828 0.831712 0.082769 0
M  V30 12 C 1.754758 2.210111 0.196173 0
M  V30 13 O 2.182300 3.223809 -0.539189 0
M  V30 14 C 1.520148 4.325830 -0.203682 0
M  V30 15 N 0.635888 4.048876 0.770133 0
M  V30 16 C 0.779628 2.735560 1.020247 0
M  V30 17 C 0.086769 1.879025 1.975440 0
M  V30 18 C -1.281802 1.838376 1.710573 0
M  V30 19 C -2.144282 1.079333 2.499253 0
M  V30 20 C -1.622137 0.368771 3.546317 0
M  V30 21 F -2.409518 -0.388725 4.350296 0
M  V30 22 C -0.254529 0.405223 3.816415 0
M  V30 23 C 0.597420 1.157967 3.033510 0
M  V30 24 C 1.450667 -0.214352 -0.277041 0
M  V30 25 N 1.962844 -1.456309 -0.370334 0
M  V30 26 H -1.249819 -5.122024 0.708382 0
M  V30 27 H 0.442300 -4.811477 0.310022 0
M  V30 28 H -0.168330 -4.209643 1.881459 0
M  V30 29 H -0.827364 -2.206037 0.865207 0
M  V30 30 H -2.687164 -2.122681 -0.509477 0
M  V30 31 H -2.403193 -3.732605 -1.218284 0
M  V30 32 H -3.006148 -3.587444 0.503827 0
M  V30 33 H -0.132029 -3.634088 -1.766460 0
M  V30 34 H -0.457773 -1.851208 -1.503716 0
M  V30 35 H 5.126437 -0.942897 0.421903 0
M  V30 36 H 4.249645 1.412202 0.619817 0
M  V30 37 H 1.856046 5.185361 -0.800421 0
M  V30 38 H -1.800199 2.367667 0.900685 0
M  V30 39 H -3.209669 1.032656 2.312582 0
M  V30 40 H 0.203994 -0.142741 4.636904 0
M  V30 41 H 1.662861 1.264465 3.142157 0
M  V30 42 H 0.399629 -0.049641 -0.484171 0
M  V30 END ATOM
M  V30 BEGIN BOND
M  V30 1 1 1 2
M  V30 2 1 2 3
M  V30 3 1 2 4
M  V30 4 1 4 5
M  V30 5 2 5 6
M  V30 6 1 6 7
M  V30 7 2 7 8
M  V30 8 1 8 9
M  V30 9 2 9 10
M  V30 10 1 10 11
M  V30 11 1 11 12
M  V30 12 1 12 13
M  V30 13 1 13 14
M  V30 14 2 14 15
M  V30 15 1 15 16
M  V30 16 1 16 17
M  V30 17 2 17 18
M  V30 18 1 18 19
M  V30 19 2 19 20
M  V30 20 1 20 21
M  V30 21 1 20 22
M  V30 22 2 22 23
M  V30 23 2 11 24
M  V30 24 1 24 25
M  V30 25 1 25 5
M  V30 26 1 25 8
M  V30 27 2 16 12
M  V30 28 1 23 17
M  V30 29 1 1 26
M  V30 30 1 1 27
M  V30 31 1 1 28
M  V30 32 1 2 29
M  V30 33 1 3 30
M  V30 34 1 3 31
M  V30 35 1 3 32
M  V30 36 1 4 33
M  V30 37 1 4 34
M  V30 38 1 9 35
M  V30 39 1 10 36
M  V30 40 1 14 37
M  V30 41 1 18 38
M  V30 42 1 19 39
M  V30 43 1 22 40
M  V30 44 1 23 41
M  V30 45 1 24 42
M  V30 END BOND
M  V30 END CTAB
M  END
>  <Dataset>  (618) 
ChEMBL_Kinases

>  <Ligand_Instance>  (618) 
nan

>  <PDB_ID>  (618) 
nan

>  <Standardized_SMILES>  (618) 
CC(C)Cc1nnc2ccc(-c3ocnc3-c3ccc(F)cc3)cn12

>  <Name>  (618) 
nan

>  <Pocket>  (618) 
nan

>  <ATP_Site>  (618) 
nan

>  <Peripheral>  (618) 
nan

>  <Num_H_Atoms_ProtBoundConf>  (618) 
nan

>  <Num_Resolved_Atoms>  (618) 
nan

>  <Num_Not_Resolved_Atoms>  (618) 
nan

$$$$
CHEMBL2178142
     RDKit          3D

  0  0  0  0  0  0  0  0  0  0999 V3000
M  V30 BEGIN CTAB
M  V30 COUNTS 45 47 0 0 0
M  V30 BEGIN ATOM
M  V30 1 C 0.951549 -2.481185 3.830167 0
M  V30 2 O -0.087917 -2.147019 2.924271 0
M  V30 3 C 0.214986 -1.489751 1.745049 0
M  V30 4 C 1.502631 -1.141809 1.410997 0
M  V30 5 C 1.729452 -0.487623 0.219936 0
M  V30 6 C 3.115684 -0.164460 -0.053247 0
M  V30 7 O 3.416725 -1.094254 -0.865902 0
M  V30 8 N 4.151135 0.757594 0.254402 0
M  V30 9 C 5.412032 0.494373 -0.414963 0
M  V30 10 C 6.059646 1.812842 -0.785154 0
M  V30 11 O 5.468342 2.915057 -0.194228 0
M  V30 12 C 5.138320 2.727856 1.130092 0
M  V30 13 C 3.902992 1.852885 1.168458 0
M  V30 14 C 0.707223 -0.172894 -0.643058 0
M  V30 15 C -0.587416 -0.515909 -0.320406 0
M  V30 16 C -0.835521 -1.174508 0.872756 0
M  V30 17 N -2.178216 -1.524454 1.168509 0
M  V30 18 C -3.387214 -1.299031 0.458154 0
M  V30 19 N -3.508536 -0.625400 -0.690470 0
M  V30 20 C -4.640663 -0.421670 -1.358664 0
M  V30 21 C -5.766220 -0.963626 -0.793617 0
M  V30 22 Cl -7.303328 -0.755790 -1.591590 0
M  V30 23 C -5.718440 -1.672524 0.391661 0
M  V30 24 O -6.817502 -2.233020 0.992116 0
M  V30 25 C -6.643669 -2.949056 2.224039 0
M  V30 26 N -4.507731 -1.783215 0.930522 0
M  V30 27 H 1.832537 -2.933932 3.352281 0
M  V30 28 H 1.236416 -1.542268 4.377463 0
M  V30 29 H 0.523675 -3.215018 4.576515 0
M  V30 30 H 2.292528 -1.395399 2.099964 0
M  V30 31 H 6.085658 -0.067660 0.264869 0
M  V30 32 H 5.255620 -0.149424 -1.304669 0
M  V30 33 H 5.894757 1.930936 -1.895471 0
M  V30 34 H 7.142928 1.737004 -0.641685 0
M  V30 35 H 4.935785 3.726330 1.559544 0
M  V30 36 H 5.935823 2.251193 1.714637 0
M  V30 37 H 3.092368 2.498335 0.716715 0
M  V30 38 H 3.626478 1.527349 2.189121 0
M  V30 39 H 1.026360 0.339022 -1.536529 0
M  V30 40 H -1.275806 -0.216310 -1.072128 0
M  V30 41 H -2.269941 -2.043376 2.093206 0
M  V30 42 H -4.616578 0.147913 -2.292411 0
M  V30 43 H -6.112607 -3.895306 1.941406 0
M  V30 44 H -7.596926 -3.188446 2.711016 0
M  V30 45 H -5.968585 -2.347357 2.856473 0
M  V30 END ATOM
M  V30 BEGIN BOND
M  V30 1 1 1 2
M  V30 2 1 2 3
M  V30 3 2 3 4
M  V30 4 1 4 5
M  V30 5 1 5 6
M  V30 6 2 6 7
M  V30 7 1 6 8
M  V30 8 1 8 9
M  V30 9 1 9 10
M  V30 10 1 10 11
M  V30 11 1 11 12
M  V30 12 1 12 13
M  V30 13 2 5 14
M  V30 14 1 14 15
M  V30 15 2 15 16
M  V30 16 1 16 17
M  V30 17 1 17 18
M  V30 18 2 18 19
M  V30 19 1 19 20
M  V30 20 2 20 21
M  V30 21 1 21 22
M  V30 22 1 21 23
M  V30 23 1 23 24
M  V30 24 1 24 25
M  V30 25 2 23 26
M  V30 26 1 16 3
M  V30 27 1 26 18
M  V30 28 1 13 8
M  V30 29 1 1 27
M  V30 30 1 1 28
M  V30 31 1 1 29
M  V30 32 1 4 30
M  V30 33 1 9 31
M  V30 34 1 9 32
M  V30 35 1 10 33
M  V30 36 1 10 34
M  V30 37 1 12 35
M  V30 38 1 12 36
M  V30 39 1 13 37
M  V30 40 1 13 38
M  V30 41 1 14 39
M  V30 42 1 15 40
M  V30 43 1 17 41
M  V30 44 1 20 42
M  V30 45 1 25 43
M  V30 46 1 25 44
M  V30 47 1 25 45
M  V30 END BOND
M  V30 END CTAB
M  END
>  <Dataset>  (619) 
ChEMBL_Kinases

>  <Ligand_Instance>  (619) 
nan

>  <PDB_ID>  (619) 
nan

>  <Standardized_SMILES>  (619) 
COc1cc(C(=O)N2CCOCC2)ccc1Nc1ncc(Cl)c(OC)n1

>  <Name>  (619) 
nan

>  <Pocket>  (619) 
nan

>  <ATP_Site>  (619) 
nan

>  <Peripheral>  (619) 
nan

>  <Num_H_Atoms_ProtBoundConf>  (619) 
nan

>  <Num_Resolved_Atoms>  (619) 
nan

>  <Num_Not_Resolved_Atoms>  (619) 
nan

$$$$
CHEMBL217832
     RDKit          3D

  0  0  0  0  0  0  0  0  0  0999 V3000
M  V30 BEGIN CTAB
M  V30 COUNTS 50 52 0 0 0
M  V30 BEGIN ATOM
M  V30 1 C 4.053732 0.706523 3.136865 0
M  V30 2 C 3.487217 -0.167412 2.009212 0
M  V30 3 C 4.489858 -1.208341 1.646681 0
M  V30 4 O 3.950723 -2.107676 0.718140 0
M  V30 5 N 2.999915 0.645447 0.942284 0
M  V30 6 C 3.579305 0.829777 -0.177248 0
M  V30 7 N 4.814527 0.267840 -0.584914 0
M  V30 8 C 2.805639 1.723326 -1.028968 0
M  V30 9 C 3.276296 2.031194 -2.269421 0
M  V30 10 O 4.446599 1.620691 -2.937748 0
M  V30 11 N 2.673354 2.862076 -3.196622 0
M  V30 12 S 1.160760 3.329661 -2.202631 0
M  V30 13 C 1.594144 2.384216 -0.820410 0
M  V30 14 N 0.884059 2.240809 0.375604 0
M  V30 15 C -0.185393 1.375614 0.737550 0
M  V30 16 C -0.613223 1.353386 2.048232 0
M  V30 17 C -1.656989 0.520472 2.404750 0
M  V30 18 C -2.285852 -0.299455 1.457297 0
M  V30 19 O -3.293009 -1.031714 2.062685 0
M  V30 20 C -4.151809 -1.908117 1.463809 0
M  V30 21 C -5.516440 -1.685635 1.498058 0
M  V30 22 C -6.453918 -2.541341 0.907019 0
M  V30 23 C -5.928998 -3.633412 0.280522 0
M  V30 24 C -4.590497 -3.933513 0.197175 0
M  V30 25 C -4.061674 -5.132796 -0.490834 0
M  V30 26 F -5.088629 -5.900458 -1.032324 0
M  V30 27 F -3.162759 -4.806291 -1.501592 0
M  V30 28 F -3.361832 -5.929949 0.425570 0
M  V30 29 C -3.703338 -3.042160 0.806158 0
M  V30 30 F -2.374216 -3.335267 0.728985 0
M  V30 31 C -1.839525 -0.258964 0.152911 0
M  V30 32 C -0.798640 0.570097 -0.207317 0
M  V30 33 H 3.198319 1.174478 3.671627 0
M  V30 34 H 4.616533 0.107072 3.860554 0
M  V30 35 H 4.664504 1.535972 2.747586 0
M  V30 36 H 2.637442 -0.734908 2.511675 0
M  V30 37 H 5.475007 -0.836135 1.380553 0
M  V30 38 H 4.631368 -1.834728 2.580224 0
M  V30 39 H 3.113185 -2.501473 1.052424 0
M  V30 40 H 5.224841 -0.510250 -1.103738 0
M  V30 41 H 5.369855 1.035792 -0.109927 0
M  V30 42 H 4.460478 0.674742 -3.323670 0
M  V30 43 H 1.268695 2.918257 1.054519 0
M  V30 44 H -0.099413 2.005490 2.754858 0
M  V30 45 H -1.901212 0.593713 3.465342 0
M  V30 46 H -5.874491 -0.802485 2.009532 0
M  V30 47 H -7.502763 -2.303213 0.974460 0
M  V30 48 H -6.632258 -4.330770 -0.197241 0
M  V30 49 H -2.398624 -0.926988 -0.476687 0
M  V30 50 H -0.499333 0.555367 -1.232301 0
M  V30 END ATOM
M  V30 BEGIN BOND
M  V30 1 1 1 2
M  V30 2 1 2 3
M  V30 3 1 3 4
M  V30 4 1 2 5
M  V30 5 2 5 6
M  V30 6 1 6 7
M  V30 7 1 6 8
M  V30 8 1 8 9
M  V30 9 1 9 10
M  V30 10 2 9 11
M  V30 11 1 11 12
M  V30 12 1 12 13
M  V30 13 1 13 14
M  V30 14 1 14 15
M  V30 15 2 15 16
M  V30 16 1 16 17
M  V30 17 2 17 18
M  V30 18 1 18 19
M  V30 19 1 19 20
M  V30 20 2 20 21
M  V30 21 1 21 22
M  V30 22 2 22 23
M  V30 23 1 23 24
M  V30 24 1 24 25
M  V30 25 1 25 26
M  V30 26 1 25 27
M  V30 27 1 25 28
M  V30 28 2 24 29
M  V30 29 1 29 30
M  V30 30 1 18 31
M  V30 31 2 31 32
M  V30 32 2 13 8
M  V30 33 1 32 15
M  V30 34 1 29 20
M  V30 35 1 1 33
M  V30 36 1 1 34
M  V30 37 1 1 35
M  V30 38 1 2 36
M  V30 39 1 3 37
M  V30 40 1 3 38
M  V30 41 1 4 39
M  V30 42 1 7 40
M  V30 43 1 7 41
M  V30 44 1 10 42
M  V30 45 1 14 43
M  V30 46 1 16 44
M  V30 47 1 17 45
M  V30 48 1 21 46
M  V30 49 1 22 47
M  V30 50 1 23 48
M  V30 51 1 31 49
M  V30 52 1 32 50
M  V30 END BOND
M  V30 END CTAB
M  END
>  <Dataset>  (620) 
ChEMBL_Kinases

>  <Ligand_Instance>  (620) 
nan

>  <PDB_ID>  (620) 
nan

>  <Standardized_SMILES>  (620) 
CC(CO)/N=C(\N)c1c(O)nsc1Nc1ccc(Oc2cccc(C(F)(F)F)c2F)cc1

>  <Name>  (620) 
nan

>  <Pocket>  (620) 
nan

>  <ATP_Site>  (620) 
nan

>  <Peripheral>  (620) 
nan

>  <Num_H_Atoms_ProtBoundConf>  (620) 
nan

>  <Num_Resolved_Atoms>  (620) 
nan

>  <Num_Not_Resolved_Atoms>  (620) 
nan

$$$$
CHEMBL217833
     RDKit          3D

  0  0  0  0  0  0  0  0  0  0999 V3000
M  V30 BEGIN CTAB
M  V30 COUNTS 50 52 0 0 0
M  V30 BEGIN ATOM
M  V30 1 C 3.949142 -0.361709 2.493124 0
M  V30 2 C 3.182589 -0.695808 1.206274 0
M  V30 3 C 4.082069 -1.526054 0.351629 0
M  V30 4 O 3.411474 -1.892258 -0.835565 0
M  V30 5 N 2.719549 0.524125 0.610496 0
M  V30 6 C 3.170807 1.074725 -0.449207 0
M  V30 7 N 4.228909 0.606936 -1.273550 0
M  V30 8 C 2.421646 2.294032 -0.704069 0
M  V30 9 C 2.767854 3.010269 -1.805413 0
M  V30 10 O 3.741437 2.825112 -2.807088 0
M  V30 11 N 2.195815 4.208750 -2.255444 0
M  V30 12 S 0.922791 4.403801 -0.900649 0
M  V30 13 C 1.378519 2.941235 -0.058251 0
M  V30 14 N 0.815409 2.435714 1.114305 0
M  V30 15 C -0.211982 1.507235 1.444157 0
M  V30 16 C -0.552455 1.295331 2.787628 0
M  V30 17 C -1.553966 0.370720 2.995713 0
M  V30 18 C -2.212514 -0.328279 2.005320 0
M  V30 19 O -3.173743 -1.190290 2.513785 0
M  V30 20 C -3.939483 -2.071991 1.803373 0
M  V30 21 C -5.331663 -2.012890 1.749963 0
M  V30 22 C -6.086638 -2.923940 1.018861 0
M  V30 23 C -5.377174 -3.895597 0.345401 0
M  V30 24 C -4.014914 -4.019351 0.349114 0
M  V30 25 C -3.331192 -5.098553 -0.404194 0
M  V30 26 F -4.262436 -5.893474 -1.064593 0
M  V30 27 F -2.498003 -4.556129 -1.371808 0
M  V30 28 F -2.536484 -5.869173 0.413599 0
M  V30 29 C -3.282645 -3.088059 1.093612 0
M  V30 30 Cl -1.533894 -3.296270 1.075779 0
M  V30 31 C -1.854498 -0.098123 0.676712 0
M  V30 32 C -0.852739 0.823882 0.435073 0
M  V30 33 H 4.364202 -1.261608 2.969503 0
M  V30 34 H 4.712179 0.384265 2.255161 0
M  V30 35 H 3.258376 0.085762 3.237825 0
M  V30 36 H 2.311881 -1.371838 1.474095 0
M  V30 37 H 5.077482 -1.128119 0.160956 0
M  V30 38 H 4.231974 -2.509426 0.896405 0
M  V30 39 H 2.853288 -2.681689 -0.675929 0
M  V30 40 H 5.246449 0.860322 -1.146940 0
M  V30 41 H 5.248154 0.858863 -1.149191 0
M  V30 42 H 3.660867 2.006732 -3.398171 0
M  V30 43 H 1.335562 2.908229 1.915457 0
M  V30 44 H -0.039798 1.839035 3.558913 0
M  V30 45 H -1.760661 0.263747 4.069256 0
M  V30 46 H -5.818736 -1.202282 2.318784 0
M  V30 47 H -7.173132 -2.857361 0.992596 0
M  V30 48 H -5.935140 -4.604534 -0.221113 0
M  V30 49 H -2.416957 -0.678451 -0.030053 0
M  V30 50 H -0.636056 0.942997 -0.612372 0
M  V30 END ATOM
M  V30 BEGIN BOND
M  V30 1 1 1 2
M  V30 2 1 2 3
M  V30 3 1 3 4
M  V30 4 1 2 5
M  V30 5 2 5 6
M  V30 6 1 6 7
M  V30 7 1 6 8
M  V30 8 1 8 9
M  V30 9 1 9 10
M  V30 10 2 9 11
M  V30 11 1 11 12
M  V30 12 1 12 13
M  V30 13 1 13 14
M  V30 14 1 14 15
M  V30 15 2 15 16
M  V30 16 1 16 17
M  V30 17 2 17 18
M  V30 18 1 18 19
M  V30 19 1 19 20
M  V30 20 2 20 21
M  V30 21 1 21 22
M  V30 22 2 22 23
M  V30 23 1 23 24
M  V30 24 1 24 25
M  V30 25 1 25 26
M  V30 26 1 25 27
M  V30 27 1 25 28
M  V30 28 2 24 29
M  V30 29 1 29 30
M  V30 30 1 18 31
M  V30 31 2 31 32
M  V30 32 2 13 8
M  V30 33 1 32 15
M  V30 34 1 29 20
M  V30 35 1 1 33
M  V30 36 1 1 34
M  V30 37 1 1 35
M  V30 38 1 2 36
M  V30 39 1 3 37
M  V30 40 1 3 38
M  V30 41 1 4 39
M  V30 42 1 7 40
M  V30 43 1 7 41
M  V30 44 1 10 42
M  V30 45 1 14 43
M  V30 46 1 16 44
M  V30 47 1 17 45
M  V30 48 1 21 46
M  V30 49 1 22 47
M  V30 50 1 23 48
M  V30 51 1 31 49
M  V30 52 1 32 50
M  V30 END BOND
M  V30 END CTAB
M  END
>  <Dataset>  (621) 
ChEMBL_Kinases

>  <Ligand_Instance>  (621) 
nan

>  <PDB_ID>  (621) 
nan

>  <Standardized_SMILES>  (621) 
CC(CO)/N=C(\N)c1c(O)nsc1Nc1ccc(Oc2cccc(C(F)(F)F)c2Cl)cc1

>  <Name>  (621) 
nan

>  <Pocket>  (621) 
nan

>  <ATP_Site>  (621) 
nan

>  <Peripheral>  (621) 
nan

>  <Num_H_Atoms_ProtBoundConf>  (621) 
nan

>  <Num_Resolved_Atoms>  (621) 
nan

>  <Num_Not_Resolved_Atoms>  (621) 
nan

$$$$
CHEMBL2178799
     RDKit          3D

  0  0  0  0  0  0  0  0  0  0999 V3000
M  V30 BEGIN CTAB
M  V30 COUNTS 38 41 0 0 0
M  V30 BEGIN ATOM
M  V30 1 C 1.561780 -5.078624 3.659801 0
M  V30 2 N 1.155032 -4.065081 2.706062 0
M  V30 3 C 1.824177 -3.709082 1.612598 0
M  V30 4 C 1.175684 -2.704457 0.945068 0
M  V30 5 N 1.034851 -1.805468 -0.142471 0
M  V30 6 C 1.735275 -0.562640 -0.197784 0
M  V30 7 O 2.525505 -0.274270 0.716070 0
M  V30 8 C 1.541550 0.383404 -1.320412 0
M  V30 9 C 1.502131 0.414768 -2.712417 0
M  V30 10 N 1.261805 1.707285 -3.090578 0
M  V30 11 N 1.151099 2.464335 -2.005962 0
M  V30 12 C 0.919861 3.774261 -1.916210 0
M  V30 13 C 0.823859 4.463096 -0.737422 0
M  V30 14 C 0.993132 3.658134 0.364344 0
M  V30 15 N 1.227024 2.350091 0.323437 0
M  V30 16 C 1.314542 1.703173 -0.874187 0
M  V30 17 C 0.017292 -2.447506 1.729575 0
M  V30 18 C -1.169800 -1.548596 1.653084 0
M  V30 19 C -0.902819 -0.202556 1.749680 0
M  V30 20 C -1.981827 0.663851 1.685724 0
M  V30 21 Cl -1.929209 2.405702 1.780191 0
M  V30 22 C -3.282085 0.171150 1.524515 0
M  V30 23 C -3.539357 -1.178667 1.426519 0
M  V30 24 C -2.459530 -2.070947 1.492226 0
M  V30 25 Cl -2.588705 -3.835300 1.369698 0
M  V30 26 N 0.052831 -3.316519 2.801507 0
M  V30 27 H 2.480252 -5.603632 3.348451 0
M  V30 28 H 0.707540 -5.760492 3.827741 0
M  V30 29 H 1.725383 -4.534079 4.641655 0
M  V30 30 H 2.724272 -3.990189 1.119485 0
M  V30 31 H 0.417536 -1.988575 -0.959314 0
M  V30 32 H 1.657913 -0.548431 -3.169399 0
M  V30 33 H 0.784390 4.406294 -2.809690 0
M  V30 34 H 0.644818 5.500447 -0.531845 0
M  V30 35 H 0.966815 3.945104 1.430302 0
M  V30 36 H 0.042811 0.294767 1.882551 0
M  V30 37 H -4.181542 0.801343 1.457364 0
M  V30 38 H -4.459564 -1.703227 1.302225 0
M  V30 END ATOM
M  V30 BEGIN BOND
M  V30 1 1 1 2
M  V30 2 1 2 3
M  V30 3 2 3 4
M  V30 4 1 4 5
M  V30 5 1 5 6
M  V30 6 2 6 7
M  V30 7 1 6 8
M  V30 8 1 8 9
M  V30 9 2 9 10
M  V30 10 1 10 11
M  V30 11 1 11 12
M  V30 12 2 12 13
M  V30 13 1 13 14
M  V30 14 2 14 15
M  V30 15 1 15 16
M  V30 16 1 4 17
M  V30 17 1 17 18
M  V30 18 2 18 19
M  V30 19 1 19 20
M  V30 20 1 20 21
M  V30 21 2 20 22
M  V30 22 1 22 23
M  V30 23 2 23 24
M  V30 24 1 24 25
M  V30 25 2 17 26
M  V30 26 1 26 2
M  V30 27 2 16 8
M  V30 28 1 24 18
M  V30 29 1 16 11
M  V30 30 1 1 27
M  V30 31 1 1 28
M  V30 32 1 1 29
M  V30 33 1 3 30
M  V30 34 1 5 31
M  V30 35 1 9 32
M  V30 36 1 12 33
M  V30 37 1 13 34
M  V30 38 1 14 35
M  V30 39 1 19 36
M  V30 40 1 22 37
M  V30 41 1 23 38
M  V30 END BOND
M  V30 END CTAB
M  END
>  <Dataset>  (622) 
ChEMBL_Kinases

>  <Ligand_Instance>  (622) 
nan

>  <PDB_ID>  (622) 
nan

>  <Standardized_SMILES>  (622) 
Cn1cc(NC(=O)c2cnn3cccnc23)c(-c2cc(Cl)ccc2Cl)n1

>  <Name>  (622) 
nan

>  <Pocket>  (622) 
nan

>  <ATP_Site>  (622) 
nan

>  <Peripheral>  (622) 
nan

>  <Num_H_Atoms_ProtBoundConf>  (622) 
nan

>  <Num_Resolved_Atoms>  (622) 
nan

>  <Num_Not_Resolved_Atoms>  (622) 
nan

$$$$
CHEMBL217910
     RDKit          3D

  0  0  0  0  0  0  0  0  0  0999 V3000
M  V30 BEGIN CTAB
M  V30 COUNTS 47 50 0 0 0
M  V30 BEGIN ATOM
M  V30 1 C -1.911303 1.553996 3.055105 0
M  V30 2 C -1.497231 0.111954 3.153373 0
M  V30 3 C -0.466972 -0.335002 2.429085 0
M  V30 4 C 0.228150 0.601724 1.558777 0
M  V30 5 O -0.027328 1.805117 1.399520 0
M  V30 6 N 1.331314 0.188526 0.766364 0
M  V30 7 C 1.851737 1.289964 -0.010012 0
M  V30 8 C 1.286830 1.458446 -1.270591 0
M  V30 9 C 1.786007 2.521425 -2.025375 0
M  V30 10 C 2.781381 3.346083 -1.533617 0
M  V30 11 N 3.431146 4.416325 -2.032835 0
M  V30 12 N 4.325659 4.874315 -1.154354 0
M  V30 13 C 4.267084 4.086759 -0.043700 0
M  V30 14 C 3.294753 3.118587 -0.273335 0
M  V30 15 C 2.841268 2.081006 0.523233 0
M  V30 16 F 3.326804 1.846936 1.744325 0
M  V30 17 C -0.032053 -1.741964 2.497692 0
M  V30 18 C -0.526821 -2.568056 1.384053 0
M  V30 19 C 0.266526 -3.278387 0.507680 0
M  V30 20 C -0.184039 -4.054129 -0.538121 0
M  V30 21 C -1.535993 -4.143597 -0.746316 0
M  V30 22 C -1.976012 -4.990654 -1.884697 0
M  V30 23 F -2.018194 -4.317250 -3.079327 0
M  V30 24 F -1.126484 -6.086088 -1.933101 0
M  V30 25 F -3.229069 -5.523560 -1.557490 0
M  V30 26 C -2.407255 -3.454606 0.096856 0
M  V30 27 C -1.870976 -2.700380 1.120255 0
M  V30 28 C -0.389890 -2.405515 3.815105 0
M  V30 29 C -1.812025 -2.091620 4.101748 0
M  V30 30 O -2.633190 -3.010610 4.395683 0
M  V30 31 N -2.237558 -0.751885 4.042108 0
M  V30 32 H -2.263165 1.835925 2.057840 0
M  V30 33 H -2.753213 1.738612 3.742463 0
M  V30 34 H -1.071406 2.159014 3.453458 0
M  V30 35 H 1.699571 -0.788286 0.764158 0
M  V30 36 H 0.508937 0.802311 -1.636911 0
M  V30 37 H 1.369760 2.690641 -3.023732 0
M  V30 38 H 3.216802 4.789325 -2.987748 0
M  V30 39 H 4.875629 4.218317 0.831538 0
M  V30 40 H 1.097877 -1.726284 2.499192 0
M  V30 41 H 1.357951 -3.225874 0.649941 0
M  V30 42 H 0.517194 -4.571796 -1.168513 0
M  V30 43 H -3.452500 -3.556496 -0.106947 0
M  V30 44 H -2.627737 -2.214199 1.705153 0
M  V30 45 H 0.285014 -2.031613 4.596297 0
M  V30 46 H -0.264729 -3.500227 3.626735 0
M  V30 47 H -3.042165 -0.411500 4.610578 0
M  V30 END ATOM
M  V30 BEGIN BOND
M  V30 1 1 1 2
M  V30 2 2 2 3
M  V30 3 1 3 4
M  V30 4 2 4 5
M  V30 5 1 4 6
M  V30 6 1 6 7
M  V30 7 2 7 8
M  V30 8 1 8 9
M  V30 9 2 9 10
M  V30 10 1 10 11
M  V30 11 1 11 12
M  V30 12 2 12 13
M  V30 13 1 13 14
M  V30 14 2 14 15
M  V30 15 1 15 16
M  V30 16 1 3 17
M  V30 17 1 17 18
M  V30 18 2 18 19
M  V30 19 1 19 20
M  V30 20 2 20 21
M  V30 21 1 21 22
M  V30 22 1 22 23
M  V30 23 1 22 24
M  V30 24 1 22 25
M  V30 25 1 21 26
M  V30 26 2 26 27
M  V30 27 1 17 28
M  V30 28 1 28 29
M  V30 29 2 29 30
M  V30 30 1 29 31
M  V30 31 1 31 2
M  V30 32 1 15 7
M  V30 33 1 27 18
M  V30 34 1 14 10
M  V30 35 1 1 32
M  V30 36 1 1 33
M  V30 37 1 1 34
M  V30 38 1 6 35
M  V30 39 1 8 36
M  V30 40 1 9 37
M  V30 41 1 11 38
M  V30 42 1 13 39
M  V30 43 1 17 40
M  V30 44 1 19 41
M  V30 45 1 20 42
M  V30 46 1 26 43
M  V30 47 1 27 44
M  V30 48 1 28 45
M  V30 49 1 28 46
M  V30 50 1 31 47
M  V30 END BOND
M  V30 END CTAB
M  END
>  <Dataset>  (623) 
ChEMBL_Kinases

>  <Ligand_Instance>  (623) 
nan

>  <PDB_ID>  (623) 
nan

>  <Standardized_SMILES>  (623) 
CC1=C(C(=O)Nc2ccc3[nH]ncc3c2F)C(c2ccc(C(F)(F)F)cc2)CC(=O)N1

>  <Name>  (623) 
nan

>  <Pocket>  (623) 
nan

>  <ATP_Site>  (623) 
nan

>  <Peripheral>  (623) 
nan

>  <Num_H_Atoms_ProtBoundConf>  (623) 
nan

>  <Num_Resolved_Atoms>  (623) 
nan

>  <Num_Not_Resolved_Atoms>  (623) 
nan

$$$$
CHEMBL2180844
     RDKit          3D

  0  0  0  0  0  0  0  0  0  0999 V3000
M  V30 BEGIN CTAB
M  V30 COUNTS 43 46 0 0 0
M  V30 BEGIN ATOM
M  V30 1 O -0.410681 -1.673294 1.640975 0
M  V30 2 C -0.102947 -2.192878 0.519027 0
M  V30 3 N 1.311480 -2.154465 0.231415 0
M  V30 4 C 2.150503 -1.555478 1.217047 0
M  V30 5 C 2.626177 -2.436056 2.164163 0
M  V30 6 C 3.447972 -1.961128 3.165138 0
M  V30 7 C 3.771280 -0.620233 3.191664 0
M  V30 8 C 3.250760 0.199392 2.201074 0
M  V30 9 C 2.424192 -0.213913 1.173795 0
M  V30 10 C 2.057866 0.899525 0.305861 0
M  V30 11 C 0.621245 1.116477 0.044787 0
M  V30 12 C 0.436631 2.502445 -0.556399 0
M  V30 13 C 1.763975 3.144624 -0.910009 0
M  V30 14 C 2.612471 3.329862 0.310010 0
M  V30 15 N 2.749794 2.018873 0.919720 0
M  V30 16 C 3.489470 1.638207 2.077853 0
M  V30 17 O 4.176002 2.417066 2.792478 0
M  V30 18 N -1.138316 -2.743789 -0.319473 0
M  V30 19 C -2.470382 -2.662196 0.187706 0
M  V30 20 N -3.293998 -1.601379 -0.056166 0
M  V30 21 C -4.552327 -1.569206 0.447733 0
M  V30 22 C -5.009341 -2.621272 1.217675 0
M  V30 23 C -4.183084 -3.699101 1.469839 0
M  V30 24 C -2.888492 -3.732991 0.951853 0
M  V30 25 O -2.096435 -4.838149 1.233273 0
M  V30 26 H 1.565732 -2.585651 -0.699410 0
M  V30 27 H 2.395002 -3.492399 2.176250 0
M  V30 28 H 3.839416 -2.609467 3.920251 0
M  V30 29 H 4.406959 -0.268762 3.971007 0
M  V30 30 H 2.560758 0.741846 -0.673716 0
M  V30 31 H 0.308294 0.387297 -0.742913 0
M  V30 32 H -0.055986 1.054429 0.911122 0
M  V30 33 H -0.075051 3.206653 0.150363 0
M  V30 34 H -0.206530 2.464599 -1.459083 0
M  V30 35 H 1.512085 4.136611 -1.336021 0
M  V30 36 H 2.260573 2.546273 -1.699950 0
M  V30 37 H 3.588654 3.757473 0.004237 0
M  V30 38 H 2.122892 4.050977 0.978450 0
M  V30 39 H -0.753133 -3.145600 -1.225074 0
M  V30 40 H -5.189999 -0.708076 0.236952 0
M  V30 41 H -6.010150 -2.614130 1.628631 0
M  V30 42 H -4.560102 -4.530837 2.085054 0
M  V30 43 H -2.478261 -5.761562 1.041600 0
M  V30 END ATOM
M  V30 BEGIN BOND
M  V30 1 2 1 2
M  V30 2 1 2 3
M  V30 3 1 3 4
M  V30 4 2 4 5
M  V30 5 1 5 6
M  V30 6 2 6 7
M  V30 7 1 7 8
M  V30 8 2 8 9
M  V30 9 1 9 10
M  V30 10 1 10 11
M  V30 11 1 11 12
M  V30 12 1 12 13
M  V30 13 1 13 14
M  V30 14 1 14 15
M  V30 15 1 15 16
M  V30 16 2 16 17
M  V30 17 1 2 18
M  V30 18 1 18 19
M  V30 19 2 19 20
M  V30 20 1 20 21
M  V30 21 2 21 22
M  V30 22 1 22 23
M  V30 23 2 23 24
M  V30 24 1 24 25
M  V30 25 1 9 4
M  V30 26 1 15 10
M  V30 27 1 24 19
M  V30 28 1 16 8
M  V30 29 1 3 26
M  V30 30 1 5 27
M  V30 31 1 6 28
M  V30 32 1 7 29
M  V30 33 1 10 30
M  V30 34 1 11 31
M  V30 35 1 11 32
M  V30 36 1 12 33
M  V30 37 1 12 34
M  V30 38 1 13 35
M  V30 39 1 13 36
M  V30 40 1 14 37
M  V30 41 1 14 38
M  V30 42 1 18 39
M  V30 43 1 21 40
M  V30 44 1 22 41
M  V30 45 1 23 42
M  V30 46 1 25 43
M  V30 END BOND
M  V30 END CTAB
M  END
>  <Dataset>  (624) 
ChEMBL_Kinases

>  <Ligand_Instance>  (624) 
nan

>  <PDB_ID>  (624) 
nan

>  <Standardized_SMILES>  (624) 
O=C(Nc1cccc2c1C1CCCCN1C2=O)Nc1ncccc1O

>  <Name>  (624) 
nan

>  <Pocket>  (624) 
nan

>  <ATP_Site>  (624) 
nan

>  <Peripheral>  (624) 
nan

>  <Num_H_Atoms_ProtBoundConf>  (624) 
nan

>  <Num_Resolved_Atoms>  (624) 
nan

>  <Num_Not_Resolved_Atoms>  (624) 
nan

$$$$
CHEMBL2180851
     RDKit          3D

  0  0  0  0  0  0  0  0  0  0999 V3000
M  V30 BEGIN CTAB
M  V30 COUNTS 49 53 0 0 0
M  V30 BEGIN ATOM
M  V30 1 O 0.022968 0.563851 0.733576 0
M  V30 2 C 0.579026 -0.004809 1.734082 0
M  V30 3 N 1.995355 -0.106224 1.653387 0
M  V30 4 C 2.716122 0.395935 0.531580 0
M  V30 5 C 2.992627 -0.362084 -0.583324 0
M  V30 6 C 3.703435 0.217260 -1.629065 0
M  V30 7 O 3.994523 -0.528466 -2.765118 0
M  V30 8 C 4.121981 1.537458 -1.539838 0
M  V30 9 C 4.836172 2.124080 -2.587317 0
M  V30 10 C 5.203000 3.440033 -2.394725 0
M  V30 11 C 4.937215 4.205664 -1.296415 0
M  V30 12 C 4.225058 3.596569 -0.269299 0
M  V30 13 C 3.830646 2.275769 -0.408608 0
M  V30 14 N 3.132402 1.693963 0.609508 0
M  V30 15 N -0.160327 -0.486433 2.819549 0
M  V30 16 C -1.572519 -0.426459 2.980272 0
M  V30 17 C -2.018288 0.723324 3.620637 0
M  V30 18 C -3.375706 0.873526 3.823395 0
M  V30 19 C -4.294433 -0.077097 3.411961 0
M  V30 20 C -3.783710 -1.188665 2.785563 0
M  V30 21 C -2.440190 -1.414010 2.544904 0
M  V30 22 C -2.194891 -2.686348 1.859063 0
M  V30 23 C -1.607226 -2.549314 0.487652 0
M  V30 24 C -2.187898 -3.505065 -0.526161 0
M  V30 25 C -2.576427 -4.794761 0.150056 0
M  V30 26 C -3.773251 -4.514274 1.050399 0
M  V30 27 N -3.549907 -3.222633 1.703535 0
M  V30 28 C -4.515122 -2.334831 2.254954 0
M  V30 29 O -5.768261 -2.508256 2.279405 0
M  V30 30 H 2.538512 -0.555099 2.422629 0
M  V30 31 H 2.649608 -1.384717 -0.613753 0
M  V30 32 H 4.326185 -1.496253 -2.668155 0
M  V30 33 H 5.080756 1.574411 -3.486505 0
M  V30 34 H 5.758019 3.874825 -3.223957 0
M  V30 35 H 5.280967 5.233420 -1.263874 0
M  V30 36 H 4.006295 4.198611 0.614432 0
M  V30 37 H 0.414751 -0.927992 3.568256 0
M  V30 38 H -1.367851 1.509183 3.970742 0
M  V30 39 H -3.792376 1.757647 4.322582 0
M  V30 40 H -5.344444 0.065596 3.582621 0
M  V30 41 H -1.553755 -3.352607 2.465199 0
M  V30 42 H -0.497447 -2.753103 0.508822 0
M  V30 43 H -1.698152 -1.494600 0.131274 0
M  V30 44 H -3.062555 -3.062775 -1.059686 0
M  V30 45 H -1.435227 -3.678937 -1.320569 0
M  V30 46 H -1.711823 -5.199206 0.688776 0
M  V30 47 H -2.884103 -5.502639 -0.674169 0
M  V30 48 H -4.687835 -4.519180 0.435550 0
M  V30 49 H -3.899000 -5.331740 1.811779 0
M  V30 END ATOM
M  V30 BEGIN BOND
M  V30 1 2 1 2
M  V30 2 1 2 3
M  V30 3 1 3 4
M  V30 4 2 4 5
M  V30 5 1 5 6
M  V30 6 1 6 7
M  V30 7 2 6 8
M  V30 8 1 8 9
M  V30 9 2 9 10
M  V30 10 1 10 11
M  V30 11 2 11 12
M  V30 12 1 12 13
M  V30 13 2 13 14
M  V30 14 1 2 15
M  V30 15 1 15 16
M  V30 16 2 16 17
M  V30 17 1 17 18
M  V30 18 2 18 19
M  V30 19 1 19 20
M  V30 20 2 20 21
M  V30 21 1 21 22
M  V30 22 1 22 23
M  V30 23 1 23 24
M  V30 24 1 24 25
M  V30 25 1 25 26
M  V30 26 1 26 27
M  V30 27 1 27 28
M  V30 28 2 28 29
M  V30 29 1 14 4
M  V30 30 1 21 16
M  V30 31 1 27 22
M  V30 32 1 13 8
M  V30 33 1 28 20
M  V30 34 1 3 30
M  V30 35 1 5 31
M  V30 36 1 7 32
M  V30 37 1 9 33
M  V30 38 1 10 34
M  V30 39 1 11 35
M  V30 40 1 12 36
M  V30 41 1 15 37
M  V30 42 1 17 38
M  V30 43 1 18 39
M  V30 44 1 19 40
M  V30 45 1 22 41
M  V30 46 1 23 42
M  V30 47 1 23 43
M  V30 48 1 24 44
M  V30 49 1 24 45
M  V30 50 1 25 46
M  V30 51 1 25 47
M  V30 52 1 26 48
M  V30 53 1 26 49
M  V30 END BOND
M  V30 END CTAB
M  END
>  <Dataset>  (625) 
ChEMBL_Kinases

>  <Ligand_Instance>  (625) 
nan

>  <PDB_ID>  (625) 
nan

>  <Standardized_SMILES>  (625) 
O=C(Nc1cc(O)c2ccccc2n1)Nc1cccc2c1C1CCCCN1C2=O

>  <Name>  (625) 
nan

>  <Pocket>  (625) 
nan

>  <ATP_Site>  (625) 
nan

>  <Peripheral>  (625) 
nan

>  <Num_H_Atoms_ProtBoundConf>  (625) 
nan

>  <Num_Resolved_Atoms>  (625) 
nan

>  <Num_Not_Resolved_Atoms>  (625) 
nan

$$$$
CHEMBL2182000
     RDKit          3D

  0  0  0  0  0  0  0  0  0  0999 V3000
M  V30 BEGIN CTAB
M  V30 COUNTS 55 58 0 0 0
M  V30 BEGIN ATOM
M  V30 1 C 4.040483 -3.478918 0.016958 0
M  V30 2 N 3.542839 -2.104232 -0.161944 0
M  V30 3 C 3.375920 -1.553811 1.176711 0
M  V30 4 C 1.978276 -1.945624 1.609337 0
M  V30 5 N 0.986435 -1.067926 0.930775 0
M  V30 6 S 1.100774 0.466398 1.659968 0
M  V30 7 O 2.124370 0.356254 2.786828 0
M  V30 8 O -0.180283 0.792362 2.387017 0
M  V30 9 C 1.602869 1.752223 0.619856 0
M  V30 10 C 2.873597 2.308807 0.813355 0
M  V30 11 C 3.366577 3.308551 0.007870 0
M  V30 12 C 2.552032 3.748458 -1.011191 0
M  V30 13 C 1.308804 3.190278 -1.184146 0
M  V30 14 C 0.778727 2.189688 -0.400353 0
M  V30 15 C -0.565559 1.699700 -0.647607 0
M  V30 16 C -1.291283 2.298296 -1.654733 0
M  V30 17 N -2.546099 1.984949 -2.013730 0
M  V30 18 C -3.177278 0.988158 -1.334554 0
M  V30 19 N -4.519368 0.634594 -1.699877 0
M  V30 20 C -2.489262 0.359301 -0.317678 0
M  V30 21 C -3.179794 -0.694141 0.378371 0
M  V30 22 O -4.389551 -0.929523 0.033882 0
M  V30 23 N -2.702471 -1.524719 1.409488 0
M  V30 24 C -3.293579 -2.573760 2.150518 0
M  V30 25 C -4.570766 -3.066791 2.024607 0
M  V30 26 C -5.088115 -4.087036 2.772084 0
M  V30 27 C -4.281525 -4.669465 3.721527 0
M  V30 28 N -3.029215 -4.200903 3.859532 0
M  V30 29 C -2.542554 -3.197758 3.114010 0
M  V30 30 N -1.242376 0.751752 -0.043084 0
M  V30 31 C 1.323660 -1.058967 -0.497449 0
M  V30 32 C 2.282759 -2.154845 -0.872593 0
M  V30 33 H 4.713158 -3.788329 -0.804930 0
M  V30 34 H 3.172221 -4.195777 0.001333 0
M  V30 35 H 4.524711 -3.606498 0.992437 0
M  V30 36 H 3.563969 -0.482420 1.153450 0
M  V30 37 H 4.097872 -2.033464 1.836675 0
M  V30 38 H 1.839785 -3.002298 1.315178 0
M  V30 39 H 1.820576 -1.886515 2.704692 0
M  V30 40 H 3.514272 1.948925 1.629743 0
M  V30 41 H 4.349132 3.689841 0.212686 0
M  V30 42 H 2.990395 4.530714 -1.608953 0
M  V30 43 H 0.831618 3.665515 -2.028926 0
M  V30 44 H -0.982563 3.110081 -2.317545 0
M  V30 45 H -4.887166 0.965489 -2.611213 0
M  V30 46 H -4.890823 0.964010 -2.611225 0
M  V30 47 H -1.713401 -1.272802 1.618747 0
M  V30 48 H -5.226309 -2.629923 1.288448 0
M  V30 49 H -6.119531 -4.426779 2.613748 0
M  V30 50 H -4.703236 -5.475966 4.306611 0
M  V30 51 H -1.523277 -2.963931 3.369632 0
M  V30 52 H 0.379257 -1.283143 -1.034725 0
M  V30 53 H 1.693333 -0.097951 -0.855514 0
M  V30 54 H 1.836670 -3.168602 -0.749668 0
M  V30 55 H 2.515379 -2.022463 -1.947192 0
M  V30 END ATOM
M  V30 BEGIN BOND
M  V30 1 1 1 2
M  V30 2 1 2 3
M  V30 3 1 3 4
M  V30 4 1 4 5
M  V30 5 1 5 6
M  V30 6 2 6 7
M  V30 7 2 6 8
M  V30 8 1 6 9
M  V30 9 2 9 10
M  V30 10 1 10 11
M  V30 11 2 11 12
M  V30 12 1 12 13
M  V30 13 2 13 14
M  V30 14 1 14 15
M  V30 15 2 15 16
M  V30 16 1 16 17
M  V30 17 2 17 18
M  V30 18 1 18 19
M  V30 19 1 18 20
M  V30 20 1 20 21
M  V30 21 2 21 22
M  V30 22 1 21 23
M  V30 23 1 23 24
M  V30 24 2 24 25
M  V30 25 1 25 26
M  V30 26 2 26 27
M  V30 27 1 27 28
M  V30 28 2 28 29
M  V30 29 2 20 30
M  V30 30 1 5 31
M  V30 31 1 31 32
M  V30 32 1 32 2
M  V30 33 1 14 9
M  V30 34 1 30 15
M  V30 35 1 29 24
M  V30 36 1 1 33
M  V30 37 1 1 34
M  V30 38 1 1 35
M  V30 39 1 3 36
M  V30 40 1 3 37
M  V30 41 1 4 38
M  V30 42 1 4 39
M  V30 43 1 10 40
M  V30 44 1 11 41
M  V30 45 1 12 42
M  V30 46 1 13 43
M  V30 47 1 16 44
M  V30 48 1 19 45
M  V30 49 1 19 46
M  V30 50 1 23 47
M  V30 51 1 25 48
M  V30 52 1 26 49
M  V30 53 1 27 50
M  V30 54 1 29 51
M  V30 55 1 31 52
M  V30 56 1 31 53
M  V30 57 1 32 54
M  V30 58 1 32 55
M  V30 END BOND
M  V30 END CTAB
M  END
>  <Dataset>  (626) 
ChEMBL_Kinases

>  <Ligand_Instance>  (626) 
nan

>  <PDB_ID>  (626) 
nan

>  <Standardized_SMILES>  (626) 
CN1CCN(S(=O)(=O)c2ccccc2-c2cnc(N)c(C(=O)Nc3cccnc3)n2)CC1

>  <Name>  (626) 
nan

>  <Pocket>  (626) 
nan

>  <ATP_Site>  (626) 
nan

>  <Peripheral>  (626) 
nan

>  <Num_H_Atoms_ProtBoundConf>  (626) 
nan

>  <Num_Resolved_Atoms>  (626) 
nan

>  <Num_Not_Resolved_Atoms>  (626) 
nan

$$$$
CHEMBL2180854
     RDKit          3D

  0  0  0  0  0  0  0  0  0  0999 V3000
M  V30 BEGIN CTAB
M  V30 COUNTS 42 45 0 0 0
M  V30 BEGIN ATOM
M  V30 1 O 0.519316 -2.525430 -0.441246 0
M  V30 2 C 1.081254 -1.497924 -0.887879 0
M  V30 3 N 2.441300 -1.388773 -1.341084 0
M  V30 4 C 3.179182 -2.616504 -1.247179 0
M  V30 5 C 3.309792 -3.614475 -2.187663 0
M  V30 6 C 4.088196 -4.713698 -1.848384 0
M  V30 7 Br 4.236721 -6.064910 -3.183111 0
M  V30 8 C 4.706577 -4.799916 -0.613935 0
M  V30 9 C 4.548079 -3.767129 0.308792 0
M  V30 10 N 3.792446 -2.727484 -0.054181 0
M  V30 11 N 0.291047 -0.318264 -0.952761 0
M  V30 12 C -1.090311 -0.199908 -0.552971 0
M  V30 13 C -2.122951 -0.429430 -1.446738 0
M  V30 14 C -3.453140 -0.308425 -1.035399 0
M  V30 15 C -3.754033 0.039005 0.257982 0
M  V30 16 C -2.736764 0.268227 1.150124 0
M  V30 17 C -1.398556 0.154374 0.765867 0
M  V30 18 C -0.461914 0.443130 1.878790 0
M  V30 19 C 0.393146 1.659709 1.603442 0
M  V30 20 C 0.518139 2.553400 2.811695 0
M  V30 21 C 0.485329 1.758495 4.103827 0
M  V30 22 C -0.861759 1.093737 4.305629 0
M  V30 23 N -1.350531 0.745400 2.983845 0
M  V30 24 C -2.705290 0.646834 2.570966 0
M  V30 25 O -3.765219 0.829340 3.221554 0
M  V30 26 H 2.796389 -0.465035 -1.695775 0
M  V30 27 H 2.783208 -3.423199 -3.094371 0
M  V30 28 H 5.305751 -5.672870 -0.385665 0
M  V30 29 H 5.035374 -3.844188 1.270382 0
M  V30 30 H 0.654970 0.606298 -1.310432 0
M  V30 31 H -1.891919 -0.706781 -2.479533 0
M  V30 32 H -4.257178 -0.488334 -1.735820 0
M  V30 33 H -4.787381 0.138822 0.599352 0
M  V30 34 H 0.152316 -0.409337 2.193801 0
M  V30 35 H -0.102296 2.244739 0.802338 0
M  V30 36 H 1.400175 1.314502 1.327719 0
M  V30 37 H -0.295474 3.325749 2.851121 0
M  V30 38 H 1.509229 3.049513 2.763308 0
M  V30 39 H 1.287934 1.015228 4.108047 0
M  V30 40 H 0.653368 2.487329 4.921456 0
M  V30 41 H -1.573633 1.693056 4.875158 0
M  V30 42 H -0.695998 0.122580 4.850644 0
M  V30 END ATOM
M  V30 BEGIN BOND
M  V30 1 2 1 2
M  V30 2 1 2 3
M  V30 3 1 3 4
M  V30 4 2 4 5
M  V30 5 1 5 6
M  V30 6 1 6 7
M  V30 7 2 6 8
M  V30 8 1 8 9
M  V30 9 2 9 10
M  V30 10 1 2 11
M  V30 11 1 11 12
M  V30 12 2 12 13
M  V30 13 1 13 14
M  V30 14 2 14 15
M  V30 15 1 15 16
M  V30 16 2 16 17
M  V30 17 1 17 18
M  V30 18 1 18 19
M  V30 19 1 19 20
M  V30 20 1 20 21
M  V30 21 1 21 22
M  V30 22 1 22 23
M  V30 23 1 23 24
M  V30 24 2 24 25
M  V30 25 1 10 4
M  V30 26 1 17 12
M  V30 27 1 23 18
M  V30 28 1 24 16
M  V30 29 1 3 26
M  V30 30 1 5 27
M  V30 31 1 8 28
M  V30 32 1 9 29
M  V30 33 1 11 30
M  V30 34 1 13 31
M  V30 35 1 14 32
M  V30 36 1 15 33
M  V30 37 1 18 34
M  V30 38 1 19 35
M  V30 39 1 19 36
M  V30 40 1 20 37
M  V30 41 1 20 38
M  V30 42 1 21 39
M  V30 43 1 21 40
M  V30 44 1 22 41
M  V30 45 1 22 42
M  V30 END BOND
M  V30 END CTAB
M  END
>  <Dataset>  (627) 
ChEMBL_Kinases

>  <Ligand_Instance>  (627) 
nan

>  <PDB_ID>  (627) 
nan

>  <Standardized_SMILES>  (627) 
O=C(Nc1cc(Br)ccn1)Nc1cccc2c1C1CCCCN1C2=O

>  <Name>  (627) 
nan

>  <Pocket>  (627) 
nan

>  <ATP_Site>  (627) 
nan

>  <Peripheral>  (627) 
nan

>  <Num_H_Atoms_ProtBoundConf>  (627) 
nan

>  <Num_Resolved_Atoms>  (627) 
nan

>  <Num_Not_Resolved_Atoms>  (627) 
nan

$$$$
CHEMBL2180855
     RDKit          3D

  0  0  0  0  0  0  0  0  0  0999 V3000
M  V30 BEGIN CTAB
M  V30 COUNTS 42 45 0 0 0
M  V30 BEGIN ATOM
M  V30 1 O 0.867135 -1.939023 0.090862 0
M  V30 2 C 0.769443 -1.440071 -1.038159 0
M  V30 3 N 1.791209 -1.844068 -1.917278 0
M  V30 4 C 2.820895 -2.729863 -1.541147 0
M  V30 5 C 2.787963 -4.106651 -1.653309 0
M  V30 6 C 3.847593 -4.887499 -1.256962 0
M  V30 7 C 4.958157 -4.243896 -0.737379 0
M  V30 8 C 4.986481 -2.856888 -0.626455 0
M  V30 9 F 6.078149 -2.230130 -0.116136 0
M  V30 10 N 3.927784 -2.117370 -1.025347 0
M  V30 11 N -0.311697 -0.567946 -1.279609 0
M  V30 12 C -1.379494 -0.053758 -0.522045 0
M  V30 13 C -2.484565 0.252188 -1.316576 0
M  V30 14 C -3.639252 0.788231 -0.818080 0
M  V30 15 C -3.696255 1.031642 0.532065 0
M  V30 16 C -2.585040 0.719369 1.295036 0
M  V30 17 C -1.417647 0.180150 0.814615 0
M  V30 18 C -0.488731 0.003257 1.917590 0
M  V30 19 C 0.812132 0.763349 1.790681 0
M  V30 20 C 0.767866 1.972033 2.696417 0
M  V30 21 C 0.651074 1.534075 4.153787 0
M  V30 22 C -0.404786 0.470128 4.301595 0
M  V30 23 N -1.229423 0.535763 3.085635 0
M  V30 24 C -2.516519 0.962043 2.730874 0
M  V30 25 O -3.347921 1.432598 3.543997 0
M  V30 26 H 1.754336 -1.451034 -2.882977 0
M  V30 27 H 1.866999 -4.453289 -2.070862 0
M  V30 28 H 3.709023 -5.930613 -1.390393 0
M  V30 29 H 5.774000 -4.856855 -0.433060 0
M  V30 30 H -0.205656 -0.270236 -2.304221 0
M  V30 31 H -2.514792 0.085771 -2.409010 0
M  V30 32 H -4.484075 1.015941 -1.448477 0
M  V30 33 H -4.617350 1.455419 0.908464 0
M  V30 34 H -0.257523 -1.018496 2.234454 0
M  V30 35 H 1.001570 1.083504 0.765296 0
M  V30 36 H 1.682758 0.135455 2.107628 0
M  V30 37 H 1.683569 2.561482 2.585495 0
M  V30 38 H -0.152568 2.530592 2.474333 0
M  V30 39 H 1.646110 1.220174 4.534783 0
M  V30 40 H 0.353785 2.432657 4.730480 0
M  V30 41 H 0.096459 -0.526402 4.335281 0
M  V30 42 H -1.036307 0.565719 5.189828 0
M  V30 END ATOM
M  V30 BEGIN BOND
M  V30 1 2 1 2
M  V30 2 1 2 3
M  V30 3 1 3 4
M  V30 4 2 4 5
M  V30 5 1 5 6
M  V30 6 2 6 7
M  V30 7 1 7 8
M  V30 8 1 8 9
M  V30 9 2 8 10
M  V30 10 1 2 11
M  V30 11 1 11 12
M  V30 12 2 12 13
M  V30 13 1 13 14
M  V30 14 2 14 15
M  V30 15 1 15 16
M  V30 16 2 16 17
M  V30 17 1 17 18
M  V30 18 1 18 19
M  V30 19 1 19 20
M  V30 20 1 20 21
M  V30 21 1 21 22
M  V30 22 1 22 23
M  V30 23 1 23 24
M  V30 24 2 24 25
M  V30 25 1 10 4
M  V30 26 1 17 12
M  V30 27 1 23 18
M  V30 28 1 24 16
M  V30 29 1 3 26
M  V30 30 1 5 27
M  V30 31 1 6 28
M  V30 32 1 7 29
M  V30 33 1 11 30
M  V30 34 1 13 31
M  V30 35 1 14 32
M  V30 36 1 15 33
M  V30 37 1 18 34
M  V30 38 1 19 35
M  V30 39 1 19 36
M  V30 40 1 20 37
M  V30 41 1 20 38
M  V30 42 1 21 39
M  V30 43 1 21 40
M  V30 44 1 22 41
M  V30 45 1 22 42
M  V30 END BOND
M  V30 END CTAB
M  END
>  <Dataset>  (628) 
ChEMBL_Kinases

>  <Ligand_Instance>  (628) 
nan

>  <PDB_ID>  (628) 
nan

>  <Standardized_SMILES>  (628) 
O=C(Nc1cccc(F)n1)Nc1cccc2c1C1CCCCN1C2=O

>  <Name>  (628) 
nan

>  <Pocket>  (628) 
nan

>  <ATP_Site>  (628) 
nan

>  <Peripheral>  (628) 
nan

>  <Num_H_Atoms_ProtBoundConf>  (628) 
nan

>  <Num_Resolved_Atoms>  (628) 
nan

>  <Num_Not_Resolved_Atoms>  (628) 
nan

$$$$
CHEMBL2180858
     RDKit          3D

  0  0  0  0  0  0  0  0  0  0999 V3000
M  V30 BEGIN CTAB
M  V30 COUNTS 46 49 0 0 0
M  V30 BEGIN ATOM
M  V30 1 C 0.567931 -4.460946 -1.497659 0
M  V30 2 O 1.124655 -3.167366 -1.459644 0
M  V30 3 C 2.483164 -2.983192 -1.618635 0
M  V30 4 C 3.468281 -3.933030 -1.825691 0
M  V30 5 C 4.787338 -3.551689 -1.962914 0
M  V30 6 C 5.157710 -2.209393 -1.896822 0
M  V30 7 N 4.167374 -1.322517 -1.694428 0
M  V30 8 C 2.868651 -1.650784 -1.555324 0
M  V30 9 N 2.070442 -0.486696 -1.354152 0
M  V30 10 C 1.817376 0.006570 -0.045259 0
M  V30 11 O 2.298027 -0.581840 0.961802 0
M  V30 12 N 1.008560 1.183747 0.134947 0
M  V30 13 C 0.816385 1.595951 1.505996 0
M  V30 14 C 1.717744 2.485662 2.091561 0
M  V30 15 C 1.510915 2.864746 3.406744 0
M  V30 16 C 0.433267 2.364320 4.106630 0
M  V30 17 C -0.442609 1.485396 3.501915 0
M  V30 18 C -0.282780 1.073643 2.190313 0
M  V30 19 C -1.341634 0.132827 1.761856 0
M  V30 20 C -2.210264 0.702032 0.676294 0
M  V30 21 C -3.605076 1.012023 1.163019 0
M  V30 22 C -4.261578 -0.153005 1.853008 0
M  V30 23 C -3.301625 -0.883448 2.770382 0
M  V30 24 N -2.163315 0.021260 2.966209 0
M  V30 25 C -1.639070 0.824503 4.017119 0
M  V30 26 O -2.168145 0.901388 5.162371 0
M  V30 27 H -0.496301 -4.462784 -1.780448 0
M  V30 28 H 1.100029 -5.037378 -2.265231 0
M  V30 29 H 0.674319 -4.881267 -0.468532 0
M  V30 30 H 3.098570 -4.940991 -1.863549 0
M  V30 31 H 5.511066 -4.354102 -2.123888 0
M  V30 32 H 6.197249 -1.932095 -2.006921 0
M  V30 33 H 1.676341 -0.006585 -2.203344 0
M  V30 34 H 0.627689 1.643380 -0.729173 0
M  V30 35 H 2.554926 2.865087 1.524633 0
M  V30 36 H 2.192834 3.557603 3.898817 0
M  V30 37 H 0.244066 2.645349 5.146304 0
M  V30 38 H -0.958521 -0.879889 1.534472 0
M  V30 39 H -1.806276 1.682642 0.294776 0
M  V30 40 H -2.309287 0.059324 -0.216454 0
M  V30 41 H -3.595118 1.863853 1.869273 0
M  V30 42 H -4.226646 1.308340 0.308870 0
M  V30 43 H -5.117830 0.284817 2.444720 0
M  V30 44 H -4.716110 -0.807187 1.080377 0
M  V30 45 H -2.898645 -1.814133 2.320912 0
M  V30 46 H -3.745782 -1.110616 3.762649 0
M  V30 END ATOM
M  V30 BEGIN BOND
M  V30 1 1 1 2
M  V30 2 1 2 3
M  V30 3 2 3 4
M  V30 4 1 4 5
M  V30 5 2 5 6
M  V30 6 1 6 7
M  V30 7 2 7 8
M  V30 8 1 8 9
M  V30 9 1 9 10
M  V30 10 2 10 11
M  V30 11 1 10 12
M  V30 12 1 12 13
M  V30 13 2 13 14
M  V30 14 1 14 15
M  V30 15 2 15 16
M  V30 16 1 16 17
M  V30 17 2 17 18
M  V30 18 1 18 19
M  V30 19 1 19 20
M  V30 20 1 20 21
M  V30 21 1 21 22
M  V30 22 1 22 23
M  V30 23 1 23 24
M  V30 24 1 24 25
M  V30 25 2 25 26
M  V30 26 1 8 3
M  V30 27 1 18 13
M  V30 28 1 24 19
M  V30 29 1 25 17
M  V30 30 1 1 27
M  V30 31 1 1 28
M  V30 32 1 1 29
M  V30 33 1 4 30
M  V30 34 1 5 31
M  V30 35 1 6 32
M  V30 36 1 9 33
M  V30 37 1 12 34
M  V30 38 1 14 35
M  V30 39 1 15 36
M  V30 40 1 16 37
M  V30 41 1 19 38
M  V30 42 1 20 39
M  V30 43 1 20 40
M  V30 44 1 21 41
M  V30 45 1 21 42
M  V30 46 1 22 43
M  V30 47 1 22 44
M  V30 48 1 23 45
M  V30 49 1 23 46
M  V30 END BOND
M  V30 END CTAB
M  END
>  <Dataset>  (629) 
ChEMBL_Kinases

>  <Ligand_Instance>  (629) 
nan

>  <PDB_ID>  (629) 
nan

>  <Standardized_SMILES>  (629) 
COc1cccnc1NC(=O)Nc1cccc2c1C1CCCCN1C2=O

>  <Name>  (629) 
nan

>  <Pocket>  (629) 
nan

>  <ATP_Site>  (629) 
nan

>  <Peripheral>  (629) 
nan

>  <Num_H_Atoms_ProtBoundConf>  (629) 
nan

>  <Num_Resolved_Atoms>  (629) 
nan

>  <Num_Not_Resolved_Atoms>  (629) 
nan

$$$$
CHEMBL2180868
     RDKit          3D

  0  0  0  0  0  0  0  0  0  0999 V3000
M  V30 BEGIN CTAB
M  V30 COUNTS 48 52 0 0 0
M  V30 BEGIN ATOM
M  V30 1 O 0.807618 0.719660 2.442385 0
M  V30 2 C 1.552383 -0.286982 2.186470 0
M  V30 3 N 2.775216 -0.244995 1.436346 0
M  V30 4 C 3.063657 1.104224 0.998673 0
M  V30 5 C 3.809894 2.058870 1.708831 0
M  V30 6 S 3.718796 3.503089 0.488249 0
M  V30 7 C 2.732438 2.540270 -0.667648 0
M  V30 8 C 2.225001 3.077426 -2.012397 0
M  V30 9 C 1.475091 2.248422 -2.820777 0
M  V30 10 C 1.047455 2.787039 -4.016482 0
M  V30 11 N 1.337524 4.048779 -4.387469 0
M  V30 12 C 2.072659 4.795180 -3.546871 0
M  V30 13 C 2.561843 4.377884 -2.323526 0
M  V30 14 N 2.568516 1.466151 -0.195649 0
M  V30 15 N 1.127006 -1.561478 2.692676 0
M  V30 16 C -0.034331 -1.857473 3.454927 0
M  V30 17 C 0.063468 -1.791400 4.825003 0
M  V30 18 C -1.054675 -2.074797 5.614527 0
M  V30 19 C -2.247073 -2.418912 4.998654 0
M  V30 20 C -2.341068 -2.484584 3.608854 0
M  V30 21 C -1.230941 -2.202932 2.829834 0
M  V30 22 C -1.581871 -2.335872 1.417433 0
M  V30 23 C -0.737931 -3.296464 0.631179 0
M  V30 24 C -1.251954 -3.260891 -0.789928 0
M  V30 25 C -2.575110 -2.553354 -0.917881 0
M  V30 26 C -3.579501 -2.942096 0.140003 0
M  V30 27 N -2.979401 -2.728228 1.430301 0
M  V30 28 C -3.486690 -2.826709 2.747431 0
M  V30 29 O -4.646858 -3.134365 3.118677 0
M  V30 30 H 3.365148 -1.079349 1.240834 0
M  V30 31 H 4.225409 1.776039 2.695905 0
M  V30 32 H 1.276936 1.247564 -2.466425 0
M  V30 33 H 0.453075 2.087427 -4.626292 0
M  V30 34 H 2.283077 5.816934 -3.893357 0
M  V30 35 H 3.148990 5.015200 -1.682055 0
M  V30 36 H 1.707587 -2.388910 2.501491 0
M  V30 37 H 0.958026 -1.530702 5.377302 0
M  V30 38 H -1.073850 -2.049012 6.694402 0
M  V30 39 H -3.144519 -2.647961 5.577177 0
M  V30 40 H -1.497170 -1.350023 0.899606 0
M  V30 41 H -0.860813 -4.348204 0.963651 0
M  V30 42 H 0.295172 -2.949706 0.642205 0
M  V30 43 H -1.297362 -4.290061 -1.247341 0
M  V30 44 H -0.535763 -2.711107 -1.422280 0
M  V30 45 H -2.466879 -1.452049 -0.887411 0
M  V30 46 H -2.993639 -2.774839 -1.938904 0
M  V30 47 H -3.847468 -4.000799 -0.037422 0
M  V30 48 H -4.443095 -2.263111 0.011818 0
M  V30 END ATOM
M  V30 BEGIN BOND
M  V30 1 2 1 2
M  V30 2 1 2 3
M  V30 3 1 3 4
M  V30 4 2 4 5
M  V30 5 1 5 6
M  V30 6 1 6 7
M  V30 7 1 7 8
M  V30 8 2 8 9
M  V30 9 1 9 10
M  V30 10 2 10 11
M  V30 11 1 11 12
M  V30 12 2 12 13
M  V30 13 2 7 14
M  V30 14 1 2 15
M  V30 15 1 15 16
M  V30 16 2 16 17
M  V30 17 1 17 18
M  V30 18 2 18 19
M  V30 19 1 19 20
M  V30 20 2 20 21
M  V30 21 1 21 22
M  V30 22 1 22 23
M  V30 23 1 23 24
M  V30 24 1 24 25
M  V30 25 1 25 26
M  V30 26 1 26 27
M  V30 27 1 27 28
M  V30 28 2 28 29
M  V30 29 1 14 4
M  V30 30 1 21 16
M  V30 31 1 27 22
M  V30 32 1 13 8
M  V30 33 1 28 20
M  V30 34 1 3 30
M  V30 35 1 5 31
M  V30 36 1 9 32
M  V30 37 1 10 33
M  V30 38 1 12 34
M  V30 39 1 13 35
M  V30 40 1 15 36
M  V30 41 1 17 37
M  V30 42 1 18 38
M  V30 43 1 19 39
M  V30 44 1 22 40
M  V30 45 1 23 41
M  V30 46 1 23 42
M  V30 47 1 24 43
M  V30 48 1 24 44
M  V30 49 1 25 45
M  V30 50 1 25 46
M  V30 51 1 26 47
M  V30 52 1 26 48
M  V30 END BOND
M  V30 END CTAB
M  END
>  <Dataset>  (630) 
ChEMBL_Kinases

>  <Ligand_Instance>  (630) 
nan

>  <PDB_ID>  (630) 
nan

>  <Standardized_SMILES>  (630) 
O=C(Nc1csc(-c2ccncc2)n1)Nc1cccc2c1C1CCCCN1C2=O

>  <Name>  (630) 
nan

>  <Pocket>  (630) 
nan

>  <ATP_Site>  (630) 
nan

>  <Peripheral>  (630) 
nan

>  <Num_H_Atoms_ProtBoundConf>  (630) 
nan

>  <Num_Resolved_Atoms>  (630) 
nan

>  <Num_Not_Resolved_Atoms>  (630) 
nan

$$$$
CHEMBL218088
     RDKit          3D

  0  0  0  0  0  0  0  0  0  0999 V3000
M  V30 BEGIN CTAB
M  V30 COUNTS 36 37 0 0 0
M  V30 BEGIN ATOM
M  V30 1 C -0.564888 -1.815682 2.892847 0
M  V30 2 C 0.283444 -2.727475 2.099915 0
M  V30 3 C 0.508126 -3.982017 2.656198 0
M  V30 4 C 1.291697 -4.835790 1.926096 0
M  V30 5 O 1.545135 -6.096604 2.436532 0
M  V30 6 C 1.833327 -4.497484 0.717466 0
M  V30 7 C 1.604066 -3.255149 0.178699 0
M  V30 8 C 2.219451 -2.946737 -1.136290 0
M  V30 9 C 0.811468 -2.354245 0.888924 0
M  V30 10 C 0.626761 -1.076205 0.253167 0
M  V30 11 C 0.060358 0.090296 0.394510 0
M  V30 12 C 0.007095 1.291144 -0.421544 0
M  V30 13 C 0.639756 1.386691 -1.641985 0
M  V30 14 N 0.576230 2.513606 -2.383416 0
M  V30 15 C -0.122040 3.598258 -1.941131 0
M  V30 16 C -0.747930 3.483266 -0.718190 0
M  V30 17 C -1.501343 4.630464 -0.223429 0
M  V30 18 N -2.182232 4.611648 1.026035 0
M  V30 19 O -1.527779 5.654601 -0.953897 0
M  V30 20 C -0.709051 2.357791 0.066862 0
M  V30 21 H -0.008212 -0.949622 3.297249 0
M  V30 22 H -0.908466 -2.361785 3.836684 0
M  V30 23 H -1.539246 -1.571178 2.415429 0
M  V30 24 H 0.103717 -4.297608 3.606459 0
M  V30 25 H 0.854350 -6.816765 2.385591 0
M  V30 26 H 2.434722 -5.198506 0.191695 0
M  V30 27 H 1.492431 -2.987300 -1.982859 0
M  V30 28 H 2.782537 -1.993088 -1.080547 0
M  V30 29 H 2.975348 -3.725086 -1.349170 0
M  V30 30 H 1.098343 -0.913641 -0.732318 0
M  V30 31 H -0.454013 0.080986 1.340111 0
M  V30 32 H 1.211833 0.580043 -2.066616 0
M  V30 33 H -0.168478 4.496611 -2.539828 0
M  V30 34 H -2.924647 3.986853 1.452975 0
M  V30 35 H -2.170708 5.184443 1.891089 0
M  V30 36 H -1.217496 2.328392 1.011671 0
M  V30 END ATOM
M  V30 BEGIN BOND
M  V30 1 1 1 2
M  V30 2 2 2 3
M  V30 3 1 3 4
M  V30 4 1 4 5
M  V30 5 2 4 6
M  V30 6 1 6 7
M  V30 7 1 7 8
M  V30 8 2 7 9
M  V30 9 1 9 10
M  V30 10 2 10 11
M  V30 11 1 11 12
M  V30 12 2 12 13
M  V30 13 1 13 14
M  V30 14 2 14 15
M  V30 15 1 15 16
M  V30 16 1 16 17
M  V30 17 1 17 18
M  V30 18 2 17 19
M  V30 19 2 16 20
M  V30 20 1 9 2
M  V30 21 1 20 12
M  V30 22 1 1 21
M  V30 23 1 1 22
M  V30 24 1 1 23
M  V30 25 1 3 24
M  V30 26 1 5 25
M  V30 27 1 6 26
M  V30 28 1 8 27
M  V30 29 1 8 28
M  V30 30 1 8 29
M  V30 31 1 10 30
M  V30 32 1 11 31
M  V30 33 1 13 32
M  V30 34 1 15 33
M  V30 35 1 18 34
M  V30 36 1 18 35
M  V30 37 1 20 36
M  V30 END BOND
M  V30 END CTAB
M  END
>  <Dataset>  (631) 
ChEMBL_Kinases

>  <Ligand_Instance>  (631) 
nan

>  <PDB_ID>  (631) 
nan

>  <Standardized_SMILES>  (631) 
Cc1cc(O)cc(C)c1/C=C/c1cncc(C(N)=O)c1

>  <Name>  (631) 
GW435821X

>  <Pocket>  (631) 
nan

>  <ATP_Site>  (631) 
nan

>  <Peripheral>  (631) 
nan

>  <Num_H_Atoms_ProtBoundConf>  (631) 
nan

>  <Num_Resolved_Atoms>  (631) 
nan

>  <Num_Not_Resolved_Atoms>  (631) 
nan

$$$$
CHEMBL218139
     RDKit          3D

  0  0  0  0  0  0  0  0  0  0999 V3000
M  V30 BEGIN CTAB
M  V30 COUNTS 47 48 0 0 0
M  V30 BEGIN ATOM
M  V30 1 C 2.183309 -6.329274 0.148879 0
M  V30 2 S 1.090843 -6.165961 -1.241508 0
M  V30 3 O -0.036963 -7.144389 -1.069317 0
M  V30 4 O 1.890794 -6.561137 -2.465863 0
M  V30 5 C 0.447939 -4.561658 -1.403764 0
M  V30 6 C 1.067718 -3.572190 -2.141591 0
M  V30 7 C 0.606153 -2.294606 -2.303782 0
M  V30 8 C -0.591728 -1.931466 -1.681462 0
M  V30 9 C -1.268893 -0.608506 -1.724620 0
M  V30 10 N -0.859731 0.265756 -0.666208 0
M  V30 11 C 0.338082 0.989316 -0.563081 0
M  V30 12 O 1.213549 0.909651 -1.482505 0
M  V30 13 C 0.595912 1.839862 0.595009 0
M  V30 14 C 1.761359 2.556219 0.690181 0
M  V30 15 C 2.020183 3.365016 1.773312 0
M  V30 16 N 3.222462 4.114851 1.886900 0
M  V30 17 C 1.098364 3.466043 2.789354 0
M  V30 18 C 1.321430 4.297003 3.941863 0
M  V30 19 N 1.510224 4.964198 4.894594 0
M  V30 20 C -0.094522 2.737277 2.698733 0
M  V30 21 N -1.069993 2.828507 3.729150 0
M  V30 22 C -2.353114 2.182675 3.865797 0
M  V30 23 C -2.298408 0.693203 4.021662 0
M  V30 24 N -1.681350 0.099893 2.884588 0
M  V30 25 N -0.266560 1.977289 1.614855 0
M  V30 26 C -1.233232 -2.913868 -0.932276 0
M  V30 27 C -0.742683 -4.196875 -0.786484 0
M  V30 28 H 3.084998 -5.689930 0.043188 0
M  V30 29 H 2.478598 -7.404255 0.185206 0
M  V30 30 H 1.601304 -6.085528 1.056189 0
M  V30 31 H 1.991697 -3.850070 -2.623294 0
M  V30 32 H 1.061778 -1.517154 -2.863466 0
M  V30 33 H -1.007365 -0.166122 -2.733476 0
M  V30 34 H -2.346276 -0.781749 -1.771223 0
M  V30 35 H -1.545405 0.363257 0.108411 0
M  V30 36 H 2.521173 2.522495 -0.065032 0
M  V30 37 H 4.129095 4.203190 2.387887 0
M  V30 38 H 3.086999 4.837182 1.172531 0
M  V30 39 H -0.822419 3.476971 4.539650 0
M  V30 40 H -2.960798 2.660941 4.670770 0
M  V30 41 H -2.983514 2.350525 2.934481 0
M  V30 42 H -1.731026 0.371254 4.918086 0
M  V30 43 H -3.338505 0.355590 4.202005 0
M  V30 44 H -2.284159 -0.621098 2.400709 0
M  V30 45 H -0.774911 -0.337713 3.098954 0
M  V30 46 H -2.169837 -2.710074 -0.416705 0
M  V30 47 H -1.272486 -4.928809 -0.195689 0
M  V30 END ATOM
M  V30 BEGIN BOND
M  V30 1 1 1 2
M  V30 2 2 2 3
M  V30 3 2 2 4
M  V30 4 1 2 5
M  V30 5 2 5 6
M  V30 6 1 6 7
M  V30 7 2 7 8
M  V30 8 1 8 9
M  V30 9 1 9 10
M  V30 10 1 10 11
M  V30 11 2 11 12
M  V30 12 1 11 13
M  V30 13 2 13 14
M  V30 14 1 14 15
M  V30 15 1 15 16
M  V30 16 2 15 17
M  V30 17 1 17 18
M  V30 18 3 18 19
M  V30 19 1 17 20
M  V30 20 1 20 21
M  V30 21 1 21 22
M  V30 22 1 22 23
M  V30 23 1 23 24
M  V30 24 2 20 25
M  V30 25 1 8 26
M  V30 26 2 26 27
M  V30 27 1 27 5
M  V30 28 1 25 13
M  V30 29 1 1 28
M  V30 30 1 1 29
M  V30 31 1 1 30
M  V30 32 1 6 31
M  V30 33 1 7 32
M  V30 34 1 9 33
M  V30 35 1 9 34
M  V30 36 1 10 35
M  V30 37 1 14 36
M  V30 38 1 16 37
M  V30 39 1 16 38
M  V30 40 1 21 39
M  V30 41 1 22 40
M  V30 42 1 22 41
M  V30 43 1 23 42
M  V30 44 1 23 43
M  V30 45 1 24 44
M  V30 46 1 24 45
M  V30 47 1 26 46
M  V30 48 1 27 47
M  V30 END BOND
M  V30 END CTAB
M  END
>  <Dataset>  (632) 
ChEMBL_Kinases

>  <Ligand_Instance>  (632) 
nan

>  <PDB_ID>  (632) 
nan

>  <Standardized_SMILES>  (632) 
CS(=O)(=O)c1ccc(CNC(=O)c2cc(N)c(C#N)c(NCCN)n2)cc1

>  <Name>  (632) 
nan

>  <Pocket>  (632) 
nan

>  <ATP_Site>  (632) 
nan

>  <Peripheral>  (632) 
nan

>  <Num_H_Atoms_ProtBoundConf>  (632) 
nan

>  <Num_Resolved_Atoms>  (632) 
nan

>  <Num_Not_Resolved_Atoms>  (632) 
nan

$$$$
CHEMBL218171
     RDKit          3D

  0  0  0  0  0  0  0  0  0  0999 V3000
M  V30 BEGIN CTAB
M  V30 COUNTS 57 62 0 0 0
M  V30 BEGIN ATOM
M  V30 1 O 3.089819 -3.403676 1.564374 0
M  V30 2 C 3.416778 -2.205213 1.371032 0
M  V30 3 N 4.667139 -1.849463 1.709806 0
M  V30 4 C 5.126975 -0.595869 1.548048 0
M  V30 5 C 6.421737 -0.294996 1.916072 0
M  V30 6 C 6.865028 1.008061 1.736017 0
M  V30 7 C 5.981789 1.941425 1.194578 0
M  V30 8 N 6.545738 3.242312 1.056526 0
M  V30 9 C 7.477827 3.605829 0.140971 0
M  V30 10 C 7.708003 4.952000 0.398277 0
M  V30 11 N 6.934307 5.357728 1.430446 0
M  V30 12 C 6.210345 4.284541 1.837292 0
M  V30 13 C 4.691649 1.602959 0.837730 0
M  V30 14 C 4.239396 0.313417 1.011260 0
M  V30 15 C 2.955825 -0.051558 0.663430 0
M  V30 16 C 2.492182 -1.338721 0.832441 0
M  V30 17 C 1.134648 -1.705539 0.459676 0
M  V30 18 C 0.212264 -0.837989 -0.078391 0
M  V30 19 C -0.969567 -1.508875 -0.313256 0
M  V30 20 C -2.200381 -1.122319 -0.834608 0
M  V30 21 C -3.242415 -2.021974 -0.963115 0
M  V30 22 C -4.574845 -1.717244 -1.498510 0
M  V30 23 N -5.550101 -1.288833 -0.566144 0
M  V30 24 C -6.846265 -0.989858 -1.070755 0
M  V30 25 C -7.775391 -2.148119 -1.018600 0
M  V30 26 C -7.381585 -3.263195 -0.098796 0
M  V30 27 C -6.487651 -2.906242 1.029874 0
M  V30 28 C -5.501246 -1.821199 0.743177 0
M  V30 29 C -2.995469 -3.330506 -0.544601 0
M  V30 30 C -1.784130 -3.744766 -0.022874 0
M  V30 31 C -0.768479 -2.812989 0.088381 0
M  V30 32 N 0.497787 -2.870562 0.538015 0
M  V30 33 H 5.337574 -2.556160 2.120339 0
M  V30 34 H 7.098158 -1.029918 2.335858 0
M  V30 35 H 7.884232 1.243816 2.025992 0
M  V30 36 H 7.906584 2.955094 -0.594887 0
M  V30 37 H 8.425157 5.532117 -0.190567 0
M  V30 38 H 5.493595 4.297237 2.653765 0
M  V30 39 H 4.058366 2.381636 0.421601 0
M  V30 40 H 2.279344 0.697791 0.239946 0
M  V30 41 H 0.318016 0.210463 -0.309432 0
M  V30 42 H -2.374798 -0.111281 -1.152345 0
M  V30 43 H -4.447913 -0.888653 -2.255024 0
M  V30 44 H -4.902726 -2.598340 -2.120811 0
M  V30 45 H -6.740947 -0.597961 -2.104460 0
M  V30 46 H -7.284913 -0.149363 -0.484729 0
M  V30 47 H -8.804151 -1.782739 -0.812284 0
M  V30 48 H -7.847248 -2.562296 -2.067221 0
M  V30 49 H -8.334839 -3.672108 0.342228 0
M  V30 50 H -6.969735 -4.121832 -0.695637 0
M  V30 51 H -5.863705 -3.822102 1.250119 0
M  V30 52 H -7.072500 -2.740886 1.964290 0
M  V30 53 H -5.762094 -0.974511 1.444800 0
M  V30 54 H -4.455988 -2.071315 0.990835 0
M  V30 55 H -3.750185 -4.106193 -0.606030 0
M  V30 56 H -1.609171 -4.759798 0.296068 0
M  V30 57 H 0.890191 -3.765017 0.900901 0
M  V30 END ATOM
M  V30 BEGIN BOND
M  V30 1 2 1 2
M  V30 2 1 2 3
M  V30 3 1 3 4
M  V30 4 2 4 5
M  V30 5 1 5 6
M  V30 6 2 6 7
M  V30 7 1 7 8
M  V30 8 1 8 9
M  V30 9 2 9 10
M  V30 10 1 10 11
M  V30 11 2 11 12
M  V30 12 1 7 13
M  V30 13 2 13 14
M  V30 14 1 14 15
M  V30 15 2 15 16
M  V30 16 1 16 17
M  V30 17 2 17 18
M  V30 18 1 18 19
M  V30 19 2 19 20
M  V30 20 1 20 21
M  V30 21 1 21 22
M  V30 22 1 22 23
M  V30 23 1 23 24
M  V30 24 1 24 25
M  V30 25 1 25 26
M  V30 26 1 26 27
M  V30 27 1 27 28
M  V30 28 2 21 29
M  V30 29 1 29 30
M  V30 30 2 30 31
M  V30 31 1 31 32
M  V30 32 1 16 2
M  V30 33 1 32 17
M  V30 34 1 14 4
M  V30 35 1 31 19
M  V30 36 1 12 8
M  V30 37 1 28 23
M  V30 38 1 3 33
M  V30 39 1 5 34
M  V30 40 1 6 35
M  V30 41 1 9 36
M  V30 42 1 10 37
M  V30 43 1 12 38
M  V30 44 1 13 39
M  V30 45 1 15 40
M  V30 46 1 18 41
M  V30 47 1 20 42
M  V30 48 1 22 43
M  V30 49 1 22 44
M  V30 50 1 24 45
M  V30 51 1 24 46
M  V30 52 1 25 47
M  V30 53 1 25 48
M  V30 54 1 26 49
M  V30 55 1 26 50
M  V30 56 1 27 51
M  V30 57 1 27 52
M  V30 58 1 28 53
M  V30 59 1 28 54
M  V30 60 1 29 55
M  V30 61 1 30 56
M  V30 62 1 32 57
M  V30 END BOND
M  V30 END CTAB
M  END
>  <Dataset>  (633) 
ChEMBL_Kinases

>  <Ligand_Instance>  (633) 
nan

>  <PDB_ID>  (633) 
nan

>  <Standardized_SMILES>  (633) 
O=c1[nH]c2ccc(-n3ccnc3)cc2cc1-c1cc2cc(CN3CCCCC3)ccc2[nH]1

>  <Name>  (633) 
nan

>  <Pocket>  (633) 
nan

>  <ATP_Site>  (633) 
nan

>  <Peripheral>  (633) 
nan

>  <Num_H_Atoms_ProtBoundConf>  (633) 
nan

>  <Num_Resolved_Atoms>  (633) 
nan

>  <Num_Not_Resolved_Atoms>  (633) 
nan

$$$$
CHEMBL2181999
     RDKit          3D

  0  0  0  0  0  0  0  0  0  0999 V3000
M  V30 BEGIN CTAB
M  V30 COUNTS 55 58 0 0 0
M  V30 BEGIN ATOM
M  V30 1 C 3.622794 -0.752631 -2.286319 0
M  V30 2 N 4.361830 -1.871745 -1.788512 0
M  V30 3 C 3.541377 -2.622784 -0.865922 0
M  V30 4 C 3.063376 -1.794332 0.291211 0
M  V30 5 N 3.899511 -0.744158 0.687000 0
M  V30 6 S 3.189768 0.564671 1.474219 0
M  V30 7 O 4.274788 1.542253 1.844600 0
M  V30 8 O 2.581541 0.131215 2.799550 0
M  V30 9 C 2.003092 1.410327 0.509361 0
M  V30 10 C 2.449777 2.467139 -0.276822 0
M  V30 11 C 1.562185 3.186809 -1.071926 0
M  V30 12 C 0.239845 2.800663 -1.037257 0
M  V30 13 C -0.260171 1.766894 -0.282023 0
M  V30 14 C -1.655926 1.360316 -0.246991 0
M  V30 15 C -2.618979 1.991983 -0.985912 0
M  V30 16 N -3.932880 1.661731 -0.997467 0
M  V30 17 C -4.325855 0.620393 -0.212894 0
M  V30 18 N -5.702968 0.257958 -0.211399 0
M  V30 19 C -3.366296 -0.022829 0.534916 0
M  V30 20 C -3.840325 -1.125793 1.351881 0
M  V30 21 O -5.066852 -1.433074 1.338709 0
M  V30 22 N -3.054294 -1.945487 2.209528 0
M  V30 23 C -3.922039 -2.917150 2.829636 0
M  V30 24 C -4.567434 -2.692461 4.028179 0
M  V30 25 C -5.389972 -3.645597 4.590575 0
M  V30 26 C -5.515442 -4.814204 3.879464 0
M  V30 27 N -4.887898 -5.057693 2.694585 0
M  V30 28 C -4.077996 -4.117023 2.142641 0
M  V30 29 N -2.065295 0.318410 0.534424 0
M  V30 30 C 0.654143 1.072210 0.498030 0
M  V30 31 C 5.121015 -0.504754 0.034949 0
M  V30 32 C 5.517972 -1.439413 -1.044575 0
M  V30 33 H 2.798257 -0.468591 -1.610487 0
M  V30 34 H 4.247998 0.159699 -2.405662 0
M  V30 35 H 3.144557 -1.074396 -3.249649 0
M  V30 36 H 4.184243 -3.458929 -0.500646 0
M  V30 37 H 2.720066 -3.086601 -1.448767 0
M  V30 38 H 2.922130 -2.487093 1.164727 0
M  V30 39 H 2.050188 -1.422277 0.036312 0
M  V30 40 H 3.499845 2.728094 -0.266362 0
M  V30 41 H 1.879966 4.020648 -1.699753 0
M  V30 42 H -0.428334 3.358760 -1.649626 0
M  V30 43 H -2.390594 2.826446 -1.633520 0
M  V30 44 H -5.837118 -0.419848 -0.970073 0
M  V30 45 H -6.402676 0.649520 0.469257 0
M  V30 46 H -2.021435 -1.717605 2.246845 0
M  V30 47 H -4.417067 -1.729248 4.539020 0
M  V30 48 H -5.906733 -3.515079 5.511991 0
M  V30 49 H -6.155344 -5.616437 4.269678 0
M  V30 50 H -3.591761 -4.344991 1.194264 0
M  V30 51 H 0.401882 0.248735 1.131559 0
M  V30 52 H 5.926000 -0.537376 0.826697 0
M  V30 53 H 5.204614 0.543498 -0.363150 0
M  V30 54 H 6.190850 -0.937167 -1.780057 0
M  V30 55 H 6.093158 -2.312545 -0.670791 0
M  V30 END ATOM
M  V30 BEGIN BOND
M  V30 1 1 1 2
M  V30 2 1 2 3
M  V30 3 1 3 4
M  V30 4 1 4 5
M  V30 5 1 5 6
M  V30 6 2 6 7
M  V30 7 2 6 8
M  V30 8 1 6 9
M  V30 9 2 9 10
M  V30 10 1 10 11
M  V30 11 2 11 12
M  V30 12 1 12 13
M  V30 13 1 13 14
M  V30 14 2 14 15
M  V30 15 1 15 16
M  V30 16 2 16 17
M  V30 17 1 17 18
M  V30 18 1 17 19
M  V30 19 1 19 20
M  V30 20 2 20 21
M  V30 21 1 20 22
M  V30 22 1 22 23
M  V30 23 2 23 24
M  V30 24 1 24 25
M  V30 25 2 25 26
M  V30 26 1 26 27
M  V30 27 2 27 28
M  V30 28 2 19 29
M  V30 29 2 13 30
M  V30 30 1 5 31
M  V30 31 1 31 32
M  V30 32 1 32 2
M  V30 33 1 30 9
M  V30 34 1 29 14
M  V30 35 1 28 23
M  V30 36 1 1 33
M  V30 37 1 1 34
M  V30 38 1 1 35
M  V30 39 1 3 36
M  V30 40 1 3 37
M  V30 41 1 4 38
M  V30 42 1 4 39
M  V30 43 1 10 40
M  V30 44 1 11 41
M  V30 45 1 12 42
M  V30 46 1 15 43
M  V30 47 1 18 44
M  V30 48 1 18 45
M  V30 49 1 22 46
M  V30 50 1 24 47
M  V30 51 1 25 48
M  V30 52 1 26 49
M  V30 53 1 28 50
M  V30 54 1 30 51
M  V30 55 1 31 52
M  V30 56 1 31 53
M  V30 57 1 32 54
M  V30 58 1 32 55
M  V30 END BOND
M  V30 END CTAB
M  END
>  <Dataset>  (634) 
ChEMBL_Kinases

>  <Ligand_Instance>  (634) 
nan

>  <PDB_ID>  (634) 
nan

>  <Standardized_SMILES>  (634) 
CN1CCN(S(=O)(=O)c2cccc(-c3cnc(N)c(C(=O)Nc4cccnc4)n3)c2)CC1

>  <Name>  (634) 
nan

>  <Pocket>  (634) 
nan

>  <ATP_Site>  (634) 
nan

>  <Peripheral>  (634) 
nan

>  <Num_H_Atoms_ProtBoundConf>  (634) 
nan

>  <Num_Resolved_Atoms>  (634) 
nan

>  <Num_Not_Resolved_Atoms>  (634) 
nan

$$$$
CHEMBL2180852
     RDKit          3D

  0  0  0  0  0  0  0  0  0  0999 V3000
M  V30 BEGIN CTAB
M  V30 COUNTS 42 45 0 0 0
M  V30 BEGIN ATOM
M  V30 1 O 0.862913 -1.933455 0.192682 0
M  V30 2 C 0.725502 -1.620996 -1.001215 0
M  V30 3 N 1.718875 -2.190488 -1.816812 0
M  V30 4 C 2.754123 -3.023084 -1.328423 0
M  V30 5 C 2.688418 -4.381707 -1.215431 0
M  V30 6 C 3.743670 -5.140840 -0.726741 0
M  V30 7 C 4.855079 -4.402201 -0.368958 0
M  V30 8 C 4.950820 -3.029280 -0.471702 0
M  V30 9 Br 6.548370 -2.112705 0.057392 0
M  V30 10 N 3.876677 -2.361387 -0.958446 0
M  V30 11 N -0.350850 -0.792092 -1.301763 0
M  V30 12 C -1.382286 -0.143519 -0.603774 0
M  V30 13 C -2.463708 0.161700 -1.440800 0
M  V30 14 C -3.580812 0.818644 -0.990139 0
M  V30 15 C -3.620411 1.181688 0.329925 0
M  V30 16 C -2.539777 0.867352 1.125583 0
M  V30 17 C -1.404498 0.208369 0.704283 0
M  V30 18 C -0.505553 0.082776 1.837148 0
M  V30 19 C 0.797453 0.839633 1.716164 0
M  V30 20 C 0.810709 2.114593 2.492619 0
M  V30 21 C 0.622209 1.846556 3.970998 0
M  V30 22 C -0.406075 0.732716 4.179593 0
M  V30 23 N -1.216703 0.754784 2.952126 0
M  V30 24 C -2.469435 1.230966 2.534653 0
M  V30 25 O -3.269690 1.824931 3.296575 0
M  V30 26 H 1.642204 -1.954213 -2.829480 0
M  V30 27 H 1.768661 -4.878161 -1.523227 0
M  V30 28 H 3.697994 -6.216642 -0.634800 0
M  V30 29 H 5.705751 -4.980416 0.021557 0
M  V30 30 H -0.272278 -0.668807 -2.364068 0
M  V30 31 H -2.509958 -0.095254 -2.510846 0
M  V30 32 H -4.403810 1.041699 -1.652366 0
M  V30 33 H -4.514521 1.697126 0.652507 0
M  V30 34 H -0.317157 -0.913744 2.238455 0
M  V30 35 H 0.974665 1.050586 0.644584 0
M  V30 36 H 1.657128 0.220379 2.090660 0
M  V30 37 H 0.048967 2.839381 2.148560 0
M  V30 38 H 1.810738 2.574764 2.384046 0
M  V30 39 H 1.574342 1.518632 4.459650 0
M  V30 40 H 0.210986 2.771896 4.423019 0
M  V30 41 H 0.117200 -0.244335 4.294218 0
M  V30 42 H -1.071038 0.911610 5.023709 0
M  V30 END ATOM
M  V30 BEGIN BOND
M  V30 1 2 1 2
M  V30 2 1 2 3
M  V30 3 1 3 4
M  V30 4 2 4 5
M  V30 5 1 5 6
M  V30 6 2 6 7
M  V30 7 1 7 8
M  V30 8 1 8 9
M  V30 9 2 8 10
M  V30 10 1 2 11
M  V30 11 1 11 12
M  V30 12 2 12 13
M  V30 13 1 13 14
M  V30 14 2 14 15
M  V30 15 1 15 16
M  V30 16 2 16 17
M  V30 17 1 17 18
M  V30 18 1 18 19
M  V30 19 1 19 20
M  V30 20 1 20 21
M  V30 21 1 21 22
M  V30 22 1 22 23
M  V30 23 1 23 24
M  V30 24 2 24 25
M  V30 25 1 10 4
M  V30 26 1 17 12
M  V30 27 1 23 18
M  V30 28 1 24 16
M  V30 29 1 3 26
M  V30 30 1 5 27
M  V30 31 1 6 28
M  V30 32 1 7 29
M  V30 33 1 11 30
M  V30 34 1 13 31
M  V30 35 1 14 32
M  V30 36 1 15 33
M  V30 37 1 18 34
M  V30 38 1 19 35
M  V30 39 1 19 36
M  V30 40 1 20 37
M  V30 41 1 20 38
M  V30 42 1 21 39
M  V30 43 1 21 40
M  V30 44 1 22 41
M  V30 45 1 22 42
M  V30 END BOND
M  V30 END CTAB
M  END
>  <Dataset>  (635) 
ChEMBL_Kinases

>  <Ligand_Instance>  (635) 
nan

>  <PDB_ID>  (635) 
nan

>  <Standardized_SMILES>  (635) 
O=C(Nc1cccc(Br)n1)Nc1cccc2c1C1CCCCN1C2=O

>  <Name>  (635) 
nan

>  <Pocket>  (635) 
nan

>  <ATP_Site>  (635) 
nan

>  <Peripheral>  (635) 
nan

>  <Num_H_Atoms_ProtBoundConf>  (635) 
nan

>  <Num_Resolved_Atoms>  (635) 
nan

>  <Num_Not_Resolved_Atoms>  (635) 
nan

$$$$
CHEMBL2203526
     RDKit          3D

  0  0  0  0  0  0  0  0  0  0999 V3000
M  V30 BEGIN CTAB
M  V30 COUNTS 38 41 0 0 0
M  V30 BEGIN ATOM
M  V30 1 O 0.562341 -1.806544 3.132754 0
M  V30 2 C -0.002431 -2.559066 2.293053 0
M  V30 3 N 0.630769 -2.730356 0.997569 0
M  V30 4 C 1.800161 -1.947464 1.027740 0
M  V30 5 C 2.816815 -2.694690 1.564527 0
M  V30 6 C 4.059293 -2.125852 1.724931 0
M  V30 7 C 4.205529 -0.820620 1.329946 0
M  V30 8 C 3.139733 -0.145223 0.802539 0
M  V30 9 C 1.877697 -0.662054 0.617960 0
M  V30 10 C 0.888815 0.161542 -0.000390 0
M  V30 11 N 1.235652 1.418948 -0.284286 0
M  V30 12 C 0.486965 2.346929 -0.874248 0
M  V30 13 C 1.062153 3.582456 -1.063224 0
M  V30 14 C 0.235747 4.497135 -1.677230 0
M  V30 15 C -1.056866 4.294397 -2.099897 0
M  V30 16 C -1.531754 3.023657 -1.861345 0
M  V30 17 C -0.792868 2.037350 -1.256867 0
M  V30 18 N -1.212574 0.803849 -1.009091 0
M  V30 19 C -0.378577 -0.040416 -0.414732 0
M  V30 20 O -0.896783 -1.149909 -0.249355 0
M  V30 21 C -1.265513 -3.269995 2.557409 0
M  V30 22 C -2.001649 -3.237632 3.695918 0
M  V30 23 C -3.140762 -3.944923 3.788545 0
M  V30 24 C -3.486925 -4.715269 2.592658 0
M  V30 25 Cl -5.053279 -5.763430 2.553458 0
M  V30 26 S -2.051364 -4.296438 1.434547 0
M  V30 27 H 0.244527 -3.363357 0.245047 0
M  V30 28 H 2.768253 -3.721899 1.893808 0
M  V30 29 H 4.925767 -2.609512 2.130709 0
M  V30 30 H 5.148619 -0.331281 1.432514 0
M  V30 31 H 3.370524 0.897366 0.519635 0
M  V30 32 H 2.057803 3.787009 -0.753597 0
M  V30 33 H 0.663593 5.493558 -1.843165 0
M  V30 34 H -1.630733 5.076689 -2.574727 0
M  V30 35 H -2.538632 2.761967 -2.156425 0
M  V30 36 H -2.181910 0.575489 -1.301172 0
M  V30 37 H -1.671066 -2.638806 4.536369 0
M  V30 38 H -3.812353 -4.004736 4.630298 0
M  V30 END ATOM
M  V30 BEGIN BOND
M  V30 1 2 1 2
M  V30 2 1 2 3
M  V30 3 1 3 4
M  V30 4 2 4 5
M  V30 5 1 5 6
M  V30 6 2 6 7
M  V30 7 1 7 8
M  V30 8 2 8 9
M  V30 9 1 9 10
M  V30 10 2 10 11
M  V30 11 1 11 12
M  V30 12 2 12 13
M  V30 13 1 13 14
M  V30 14 2 14 15
M  V30 15 1 15 16
M  V30 16 2 16 17
M  V30 17 1 17 18
M  V30 18 1 18 19
M  V30 19 2 19 20
M  V30 20 1 2 21
M  V30 21 2 21 22
M  V30 22 1 22 23
M  V30 23 2 23 24
M  V30 24 1 24 25
M  V30 25 1 24 26
M  V30 26 1 9 4
M  V30 27 1 19 10
M  V30 28 1 26 21
M  V30 29 1 17 12
M  V30 30 1 3 27
M  V30 31 1 5 28
M  V30 32 1 6 29
M  V30 33 1 7 30
M  V30 34 1 8 31
M  V30 35 1 13 32
M  V30 36 1 14 33
M  V30 37 1 15 34
M  V30 38 1 16 35
M  V30 39 1 18 36
M  V30 40 1 22 37
M  V30 41 1 23 38
M  V30 END BOND
M  V30 END CTAB
M  END
>  <Dataset>  (636) 
ChEMBL_Kinases

>  <Ligand_Instance>  (636) 
nan

>  <PDB_ID>  (636) 
nan

>  <Standardized_SMILES>  (636) 
O=C(Nc1ccccc1-c1nc2ccccc2[nH]c1=O)c1ccc(Cl)s1

>  <Name>  (636) 
nan

>  <Pocket>  (636) 
nan

>  <ATP_Site>  (636) 
nan

>  <Peripheral>  (636) 
nan

>  <Num_H_Atoms_ProtBoundConf>  (636) 
nan

>  <Num_Resolved_Atoms>  (636) 
nan

>  <Num_Not_Resolved_Atoms>  (636) 
nan

$$$$
CHEMBL2203525
     RDKit          3D

  0  0  0  0  0  0  0  0  0  0999 V3000
M  V30 BEGIN CTAB
M  V30 COUNTS 47 49 0 0 0
M  V30 BEGIN ATOM
M  V30 1 C 2.160589 -6.448418 -0.560084 0
M  V30 2 C 0.950000 -5.703431 -0.164341 0
M  V30 3 O -0.209692 -6.048487 -0.559163 0
M  V30 4 N 1.153131 -4.580196 0.681707 0
M  V30 5 C 0.022832 -3.793352 1.117809 0
M  V30 6 C -0.738366 -3.185822 -0.056614 0 CFG=2
M  V30 7 C 0.214739 -2.289695 -0.828805 0
M  V30 8 C 0.048488 -1.013067 -0.109063 0 CFG=1
M  V30 9 N 0.445901 0.174426 -0.671341 0
M  V30 10 S 1.449207 1.245226 0.203137 0
M  V30 11 O 2.577033 1.861014 -0.550856 0
M  V30 12 O 2.359667 0.101511 0.737510 0
M  V30 13 C 0.907083 1.909504 1.661992 0
M  V30 14 C 1.521233 1.671816 2.915692 0
M  V30 15 C 1.171331 2.131550 4.183301 0
M  V30 16 C 0.060438 2.939954 4.227752 0
M  V30 17 C -0.615848 3.237861 3.061411 0
M  V30 18 C -1.702665 4.060638 3.262876 0
M  V30 19 N -2.427270 4.415992 2.187694 0
M  V30 20 C -2.021381 3.927832 0.974846 0
M  V30 21 C -0.920817 3.083746 0.701824 0
M  V30 22 C -0.635055 2.677567 -0.675633 0
M  V30 23 C -0.207884 2.743985 1.836366 0
M  V30 24 C -1.471204 -0.982286 0.057882 0
M  V30 25 N -1.740060 -2.310174 0.542109 0
M  V30 26 H 1.970643 -7.255817 -1.287272 0
M  V30 27 H 2.886902 -5.752895 -1.027489 0
M  V30 28 H 2.677446 -6.910079 0.314714 0
M  V30 29 H 2.125231 -4.302988 1.003930 0
M  V30 30 H 0.342938 -3.012307 1.834370 0
M  V30 31 H -0.622642 -4.479817 1.701010 0
M  V30 32 H -1.225592 -3.946218 -0.663409 0
M  V30 33 H -0.153116 -2.300240 -1.866652 0
M  V30 34 H 1.211052 -2.761962 -0.721333 0
M  V30 35 H 0.441722 -1.183668 0.935933 0
M  V30 36 H 0.819263 0.152384 -1.641277 0
M  V30 37 H 2.407193 1.037043 2.922951 0
M  V30 38 H 1.735741 1.865587 5.045650 0
M  V30 39 H -0.227967 3.306288 5.200823 0
M  V30 40 H -2.004241 4.431380 4.210438 0
M  V30 41 H -2.656208 4.258612 0.153945 0
M  V30 42 H 0.342900 2.882527 -1.094885 0
M  V30 43 H -1.326585 1.983844 -1.153023 0
M  V30 44 H -1.088284 3.606461 -1.233893 0
M  V30 45 H -1.801344 -0.184989 0.717412 0
M  V30 46 H -1.890253 -0.910921 -0.975951 0
M  V30 47 H -1.726144 -2.294191 1.567596 0
M  V30 END ATOM
M  V30 BEGIN BOND
M  V30 1 1 1 2
M  V30 2 2 2 3
M  V30 3 1 2 4
M  V30 4 1 4 5
M  V30 5 1 5 6
M  V30 6 1 6 7
M  V30 7 1 7 8
M  V30 8 1 8 9
M  V30 9 1 9 10
M  V30 10 2 10 11
M  V30 11 2 10 12
M  V30 12 1 10 13
M  V30 13 2 13 14
M  V30 14 1 14 15
M  V30 15 2 15 16
M  V30 16 1 16 17
M  V30 17 2 17 18
M  V30 18 1 18 19
M  V30 19 2 19 20
M  V30 20 1 20 21
M  V30 21 1 21 22
M  V30 22 2 21 23
M  V30 23 1 8 24
M  V30 24 1 24 25
M  V30 25 1 25 6
M  V30 26 1 23 13
M  V30 27 1 23 17
M  V30 28 1 1 26
M  V30 29 1 1 27
M  V30 30 1 1 28
M  V30 31 1 4 29
M  V30 32 1 5 30
M  V30 33 1 5 31
M  V30 34 1 6 32 CFG=3
M  V30 35 1 7 33
M  V30 36 1 7 34
M  V30 37 1 8 35 CFG=1
M  V30 38 1 9 36
M  V30 39 1 14 37
M  V30 40 1 15 38
M  V30 41 1 16 39
M  V30 42 1 18 40
M  V30 43 1 20 41
M  V30 44 1 22 42
M  V30 45 1 22 43
M  V30 46 1 22 44
M  V30 47 1 24 45
M  V30 48 1 24 46
M  V30 49 1 25 47
M  V30 END BOND
M  V30 END CTAB
M  END
>  <Dataset>  (637) 
ChEMBL_Kinases

>  <Ligand_Instance>  (637) 
nan

>  <PDB_ID>  (637) 
nan

>  <Standardized_SMILES>  (637) 
CC(=O)NC[C@@H]1C[C@@H](NS(=O)(=O)c2cccc3cncc(C)c23)CN1

>  <Name>  (637) 
nan

>  <Pocket>  (637) 
nan

>  <ATP_Site>  (637) 
nan

>  <Peripheral>  (637) 
nan

>  <Num_H_Atoms_ProtBoundConf>  (637) 
nan

>  <Num_Resolved_Atoms>  (637) 
nan

>  <Num_Not_Resolved_Atoms>  (637) 
nan

$$$$
CHEMBL2203524
     RDKit          3D

  0  0  0  0  0  0  0  0  0  0999 V3000
M  V30 BEGIN CTAB
M  V30 COUNTS 61 65 0 0 0
M  V30 BEGIN ATOM
M  V30 1 C 1.854794 -3.636612 6.459810 0
M  V30 2 O 2.323988 -2.318853 6.356424 0
M  V30 3 C 2.756102 -1.706715 5.190872 0
M  V30 4 C 3.145301 -0.395378 5.488280 0
M  V30 5 C 3.621116 0.430762 4.474898 0
M  V30 6 C 3.702409 -0.058635 3.183136 0
M  V30 7 N 4.166426 0.668654 2.059874 0
M  V30 8 N 5.445687 0.752849 1.657167 0
M  V30 9 C 5.526890 1.520279 0.555264 0
M  V30 10 C 4.269722 1.965677 0.205693 0
M  V30 11 C 3.632092 2.733706 -0.745251 0
M  V30 12 C 2.269508 2.938538 -0.737120 0
M  V30 13 C 1.496740 2.365260 0.247244 0
M  V30 14 N 0.083434 2.459074 0.402271 0
M  V30 15 C -0.844268 1.450093 0.006161 0
M  V30 16 C -2.218257 1.572545 0.084516 0
M  V30 17 C -2.992000 0.522737 -0.311940 0
M  V30 18 C -2.521302 -0.679967 -0.796172 0
M  V30 19 N -3.458566 -1.709563 -1.192965 0
M  V30 20 C -4.880188 -1.698130 -0.975007 0
M  V30 21 C -5.696778 -2.043909 -2.195563 0
M  V30 22 N -4.984816 -2.925437 -3.093086 0
M  V30 23 C -4.390131 -2.269341 -4.216530 0
M  V30 24 C -4.057865 -3.721324 -2.357992 0
M  V30 25 C -2.923416 -2.845393 -1.876931 0
M  V30 26 C -1.128554 -0.816171 -0.880946 0
M  V30 27 O -0.594158 -1.991484 -1.353932 0
M  V30 28 C 0.742918 -2.330223 -1.513582 0
M  V30 29 C -0.353098 0.264082 -0.472172 0
M  V30 30 N 2.124593 1.607826 1.184383 0
M  V30 31 C 3.469796 1.404273 1.177015 0
M  V30 32 C 3.317031 -1.349248 2.901422 0
M  V30 33 C 2.839705 -2.187436 3.901885 0
M  V30 34 H 2.237026 -4.115584 7.388015 0
M  V30 35 H 2.162113 -4.254591 5.577113 0
M  V30 36 H 0.755758 -3.638451 6.552559 0
M  V30 37 H 3.136308 0.111291 6.431942 0
M  V30 38 H 3.944163 1.461157 4.619245 0
M  V30 39 H 6.406166 1.803565 -0.040897 0
M  V30 40 H 4.267833 3.168054 -1.501613 0
M  V30 41 H 1.758392 3.534276 -1.469378 0
M  V30 42 H -0.296274 3.335707 0.841938 0
M  V30 43 H -2.574893 2.524503 0.466910 0
M  V30 44 H -4.059349 0.769073 -0.192583 0
M  V30 45 H -5.128708 -2.442174 -0.159112 0
M  V30 46 H -5.289808 -0.744639 -0.596222 0
M  V30 47 H -6.589480 -2.630907 -1.853508 0
M  V30 48 H -6.066273 -1.182821 -2.748994 0
M  V30 49 H -3.575355 -2.875089 -4.635632 0
M  V30 50 H -5.155033 -2.122701 -5.028826 0
M  V30 51 H -3.933469 -1.282872 -3.952888 0
M  V30 52 H -3.581023 -4.493779 -3.000587 0
M  V30 53 H -4.512206 -4.194788 -1.472348 0
M  V30 54 H -2.312761 -3.522104 -1.217149 0
M  V30 55 H -2.325646 -2.461892 -2.739431 0
M  V30 56 H 1.035786 -3.222100 -0.879673 0
M  V30 57 H 1.475905 -1.528774 -1.404671 0
M  V30 58 H 0.865787 -2.735145 -2.563877 0
M  V30 59 H 0.736505 0.149934 -0.542005 0
M  V30 60 H 3.339993 -1.832342 1.918240 0
M  V30 61 H 2.505870 -3.209957 3.821738 0
M  V30 END ATOM
M  V30 BEGIN BOND
M  V30 1 1 1 2
M  V30 2 1 2 3
M  V30 3 2 3 4
M  V30 4 1 4 5
M  V30 5 2 5 6
M  V30 6 1 6 7
M  V30 7 1 7 8
M  V30 8 2 8 9
M  V30 9 1 9 10
M  V30 10 2 10 11
M  V30 11 1 11 12
M  V30 12 2 12 13
M  V30 13 1 13 14
M  V30 14 1 14 15
M  V30 15 2 15 16
M  V30 16 1 16 17
M  V30 17 2 17 18
M  V30 18 1 18 19
M  V30 19 1 19 20
M  V30 20 1 20 21
M  V30 21 1 21 22
M  V30 22 1 22 23
M  V30 23 1 22 24
M  V30 24 1 24 25
M  V30 25 1 18 26
M  V30 26 1 26 27
M  V30 27 1 27 28
M  V30 28 2 26 29
M  V30 29 1 13 30
M  V30 30 2 30 31
M  V30 31 1 6 32
M  V30 32 2 32 33
M  V30 33 1 33 3
M  V30 34 1 31 7
M  V30 35 1 31 10
M  V30 36 1 29 15
M  V30 37 1 25 19
M  V30 38 1 1 34
M  V30 39 1 1 35
M  V30 40 1 1 36
M  V30 41 1 4 37
M  V30 42 1 5 38
M  V30 43 1 9 39
M  V30 44 1 11 40
M  V30 45 1 12 41
M  V30 46 1 14 42
M  V30 47 1 16 43
M  V30 48 1 17 44
M  V30 49 1 20 45
M  V30 50 1 20 46
M  V30 51 1 21 47
M  V30 52 1 21 48
M  V30 53 1 23 49
M  V30 54 1 23 50
M  V30 55 1 23 51
M  V30 56 1 24 52
M  V30 57 1 24 53
M  V30 58 1 25 54
M  V30 59 1 25 55
M  V30 60 1 28 56
M  V30 61 1 28 57
M  V30 62 1 28 58
M  V30 63 1 29 59
M  V30 64 1 32 60
M  V30 65 1 33 61
M  V30 END BOND
M  V30 END CTAB
M  END
>  <Dataset>  (638) 
ChEMBL_Kinases

>  <Ligand_Instance>  (638) 
nan

>  <PDB_ID>  (638) 
nan

>  <Standardized_SMILES>  (638) 
COc1ccc(-n2ncc3ccc(Nc4ccc(N5CCN(C)CC5)c(OC)c4)nc32)cc1

>  <Name>  (638) 
nan

>  <Pocket>  (638) 
nan

>  <ATP_Site>  (638) 
nan

>  <Peripheral>  (638) 
nan

>  <Num_H_Atoms_ProtBoundConf>  (638) 
nan

>  <Num_Resolved_Atoms>  (638) 
nan

>  <Num_Not_Resolved_Atoms>  (638) 
nan

$$$$
CHEMBL220343
     RDKit          3D

  0  0  0  0  0  0  0  0  0  0999 V3000
M  V30 BEGIN CTAB
M  V30 COUNTS 43 46 0 0 0
M  V30 BEGIN ATOM
M  V30 1 O 3.227885 1.162334 -0.659884 0
M  V30 2 C 2.638528 0.293330 0.031761 0
M  V30 3 N 2.502971 -1.042204 -0.436806 0
M  V30 4 C 2.996841 -1.555734 -1.701697 0
M  V30 5 C 2.190093 -1.165045 -2.865276 0
M  V30 6 C 1.106618 -1.911694 -3.325898 0
M  V30 7 C 0.358752 -1.523125 -4.432157 0
M  V30 8 C 0.671755 -0.365017 -5.120922 0
M  V30 9 N 1.728369 0.365111 -4.673640 0
M  V30 10 C 2.439566 -0.027764 -3.601334 0
M  V30 11 C 2.090402 0.685915 1.338124 0
M  V30 12 C 1.418275 -0.112503 2.255405 0
M  V30 13 C 1.061411 0.633647 3.365050 0
M  V30 14 C 0.346604 0.035348 4.476285 0
M  V30 15 N 0.850934 -0.028825 5.741932 0
M  V30 16 N -0.013599 -0.620923 6.541191 0
M  V30 17 C -1.122290 -0.979017 5.869969 0
M  V30 18 C -0.895636 -0.566804 4.573583 0
M  V30 19 C -1.736651 -0.678652 3.380605 0
M  V30 20 C -2.287846 0.303850 2.590925 0
M  V30 21 C -3.055388 -0.059552 1.503095 0
M  V30 22 C -3.279898 -1.382566 1.193443 0
M  V30 23 C -2.731751 -2.386833 1.979256 0
M  V30 24 Cl -3.047026 -4.056512 1.542227 0
M  V30 25 C -1.953868 -2.028135 3.081487 0
M  V30 26 C 1.541143 1.909336 3.085851 0
M  V30 27 N 2.140228 1.910772 1.890326 0
M  V30 28 H 1.986032 -1.689907 0.231581 0
M  V30 29 H 2.979612 -2.656261 -1.642084 0
M  V30 30 H 4.068955 -1.266055 -1.858589 0
M  V30 31 H 0.833066 -2.820747 -2.813704 0
M  V30 32 H -0.483561 -2.090525 -4.801675 0
M  V30 33 H 0.143635 0.006932 -5.986811 0
M  V30 34 H 3.252125 0.635736 -3.348539 0
M  V30 35 H 1.236057 -1.155977 2.064736 0
M  V30 36 H 1.770175 0.305571 6.137946 0
M  V30 37 H -2.010118 -1.471493 6.201783 0
M  V30 38 H -2.037672 1.296966 2.938666 0
M  V30 39 H -3.457617 0.757879 0.926662 0
M  V30 40 H -3.889327 -1.622267 0.331110 0
M  V30 41 H -1.580225 -2.894353 3.618137 0
M  V30 42 H 1.390138 2.711791 3.815238 0
M  V30 43 H 2.587270 2.764590 1.451430 0
M  V30 END ATOM
M  V30 BEGIN BOND
M  V30 1 2 1 2
M  V30 2 1 2 3
M  V30 3 1 3 4
M  V30 4 1 4 5
M  V30 5 2 5 6
M  V30 6 1 6 7
M  V30 7 2 7 8
M  V30 8 1 8 9
M  V30 9 2 9 10
M  V30 10 1 2 11
M  V30 11 2 11 12
M  V30 12 1 12 13
M  V30 13 1 13 14
M  V30 14 1 14 15
M  V30 15 1 15 16
M  V30 16 2 16 17
M  V30 17 1 17 18
M  V30 18 1 18 19
M  V30 19 2 19 20
M  V30 20 1 20 21
M  V30 21 2 21 22
M  V30 22 1 22 23
M  V30 23 1 23 24
M  V30 24 2 23 25
M  V30 25 2 13 26
M  V30 26 1 26 27
M  V30 27 1 10 5
M  V30 28 1 27 11
M  V30 29 2 18 14
M  V30 30 1 25 19
M  V30 31 1 3 28
M  V30 32 1 4 29
M  V30 33 1 4 30
M  V30 34 1 6 31
M  V30 35 1 7 32
M  V30 36 1 8 33
M  V30 37 1 10 34
M  V30 38 1 12 35
M  V30 39 1 15 36
M  V30 40 1 17 37
M  V30 41 1 20 38
M  V30 42 1 21 39
M  V30 43 1 22 40
M  V30 44 1 25 41
M  V30 45 1 26 42
M  V30 46 1 27 43
M  V30 END BOND
M  V30 END CTAB
M  END
>  <Dataset>  (639) 
ChEMBL_Kinases

>  <Ligand_Instance>  (639) 
nan

>  <PDB_ID>  (639) 
nan

>  <Standardized_SMILES>  (639) 
O=C(NCc1cccnc1)c1cc(-c2[nH]ncc2-c2cccc(Cl)c2)c[nH]1

>  <Name>  (639) 
nan

>  <Pocket>  (639) 
nan

>  <ATP_Site>  (639) 
nan

>  <Peripheral>  (639) 
nan

>  <Num_H_Atoms_ProtBoundConf>  (639) 
nan

>  <Num_Resolved_Atoms>  (639) 
nan

>  <Num_Not_Resolved_Atoms>  (639) 
nan

$$$$
CHEMBL2203300
     RDKit          3D

  0  0  0  0  0  0  0  0  0  0999 V3000
M  V30 BEGIN CTAB
M  V30 COUNTS 45 47 0 0 0
M  V30 BEGIN ATOM
M  V30 1 C -0.468904 -6.577623 2.508148 0
M  V30 2 O -0.494642 -5.513753 1.578210 0
M  V30 3 C 0.707061 -5.036699 1.070495 0
M  V30 4 O 1.753397 -5.590177 1.477042 0
M  V30 5 C 0.638669 -3.938842 0.114003 0
M  V30 6 C 1.808532 -3.410098 -0.436453 0
M  V30 7 N 1.771813 -2.385174 -1.331358 0
M  V30 8 C 0.582695 -1.847403 -1.713545 0
M  V30 9 N 0.461795 -0.775119 -2.643561 0
M  V30 10 C 0.464897 0.605058 -2.221662 0
M  V30 11 C 0.343382 1.583108 -3.186169 0
M  V30 12 N 0.345024 2.867644 -2.805582 0
M  V30 13 C 0.464273 3.201022 -1.492872 0
M  V30 14 C 0.463574 4.561818 -1.115376 0
M  V30 15 N 0.460760 5.661567 -0.830858 0
M  V30 16 C 0.586218 2.267203 -0.511477 0
M  V30 17 O 0.715332 2.293773 0.815109 0
M  V30 18 C 0.784475 3.247669 1.794589 0 CFG=2
M  V30 19 C 2.061889 3.078985 2.614665 0
M  V30 20 C 1.663199 2.111805 3.677314 0
M  V30 21 N 0.236959 2.192758 3.854033 0
M  V30 22 C -0.312279 3.043996 2.834050 0
M  V30 23 N 0.580172 0.984403 -0.936536 0
M  V30 24 C -0.595959 -2.337424 -1.196354 0
M  V30 25 C -0.552010 -3.374383 -0.291442 0
M  V30 26 S -2.100979 -4.005639 0.377048 0
M  V30 27 C -2.472587 -3.055621 1.881751 0
M  V30 28 H 0.130449 -7.412301 2.057651 0
M  V30 29 H 0.009170 -6.209235 3.420449 0
M  V30 30 H -1.494795 -6.979258 2.677008 0
M  V30 31 H 2.761789 -3.829665 -0.140180 0
M  V30 32 H 0.370788 -1.013369 -3.639301 0
M  V30 33 H 0.244975 1.400310 -4.243346 0
M  V30 34 H 0.716449 4.254409 1.396585 0
M  V30 35 H 2.375018 4.046096 3.043386 0
M  V30 36 H 2.838298 2.669718 1.942847 0
M  V30 37 H 1.877917 1.074859 3.307910 0
M  V30 38 H 2.249801 2.227074 4.601686 0
M  V30 39 H -0.070241 2.410087 4.809954 0
M  V30 40 H -0.652746 4.028395 3.178212 0
M  V30 41 H -1.165605 2.532521 2.352918 0
M  V30 42 H -1.570220 -1.933484 -1.477390 0
M  V30 43 H -1.776148 -3.258758 2.709969 0
M  V30 44 H -2.404653 -1.962403 1.675229 0
M  V30 45 H -3.508168 -3.270855 2.163345 0
M  V30 END ATOM
M  V30 BEGIN BOND
M  V30 1 1 1 2
M  V30 2 1 2 3
M  V30 3 2 3 4
M  V30 4 1 3 5
M  V30 5 2 5 6
M  V30 6 1 6 7
M  V30 7 2 7 8
M  V30 8 1 8 9
M  V30 9 1 9 10
M  V30 10 2 10 11
M  V30 11 1 11 12
M  V30 12 2 12 13
M  V30 13 1 13 14
M  V30 14 3 14 15
M  V30 15 1 13 16
M  V30 16 1 16 17
M  V30 17 1 17 18
M  V30 18 1 18 19
M  V30 19 1 19 20
M  V30 20 1 20 21
M  V30 21 1 21 22
M  V30 22 2 16 23
M  V30 23 1 8 24
M  V30 24 2 24 25
M  V30 25 1 25 26
M  V30 26 1 26 27
M  V30 27 1 25 5
M  V30 28 1 23 10
M  V30 29 1 22 18
M  V30 30 1 1 28
M  V30 31 1 1 29
M  V30 32 1 1 30
M  V30 33 1 6 31
M  V30 34 1 9 32
M  V30 35 1 11 33
M  V30 36 1 18 34 CFG=3
M  V30 37 1 19 35
M  V30 38 1 19 36
M  V30 39 1 20 37
M  V30 40 1 20 38
M  V30 41 1 21 39
M  V30 42 1 22 40
M  V30 43 1 22 41
M  V30 44 1 24 42
M  V30 45 1 27 43
M  V30 46 1 27 44
M  V30 47 1 27 45
M  V30 END BOND
M  V30 END CTAB
M  END
>  <Dataset>  (640) 
ChEMBL_Kinases

>  <Ligand_Instance>  (640) 
nan

>  <PDB_ID>  (640) 
nan

>  <Standardized_SMILES>  (640) 
COC(=O)c1cnc(Nc2cnc(C#N)c(O[C@@H]3CCNC3)n2)cc1SC

>  <Name>  (640) 
nan

>  <Pocket>  (640) 
nan

>  <ATP_Site>  (640) 
nan

>  <Peripheral>  (640) 
nan

>  <Num_H_Atoms_ProtBoundConf>  (640) 
nan

>  <Num_Resolved_Atoms>  (640) 
nan

>  <Num_Not_Resolved_Atoms>  (640) 
nan

$$$$
CHEMBL220233
     RDKit          3D

  0  0  0  0  0  0  0  0  0  0999 V3000
M  V30 BEGIN CTAB
M  V30 COUNTS 42 45 0 0 0
M  V30 BEGIN ATOM
M  V30 1 N 0.948986 -4.625654 4.807783 0
M  V30 2 C 1.339660 -3.778478 4.125725 0
M  V30 3 C 1.826447 -2.724604 3.264827 0
M  V30 4 C 3.159270 -2.346632 3.259128 0
M  V30 5 N 3.605245 -1.365574 2.455813 0
M  V30 6 C 2.747098 -0.733090 1.638138 0
M  V30 7 C 3.226882 0.268240 0.824492 0
M  V30 8 C 2.309269 0.886846 0.004218 0
M  V30 9 C 0.970368 0.589993 -0.067324 0
M  V30 10 N 0.039475 1.237532 -0.908734 0
M  V30 11 C 0.194115 2.326335 -1.847255 0
M  V30 12 C 0.563019 3.593484 -1.175912 0
M  V30 13 C 1.649852 4.358229 -0.815313 0
M  V30 14 C 1.237918 5.495773 -0.156587 0
M  V30 15 N -0.096767 5.412059 -0.123130 0
M  V30 16 N -0.499023 4.317008 -0.709156 0
M  V30 17 C 0.561568 -0.410519 0.763906 0
M  V30 18 C 1.411539 -1.066270 1.601123 0
M  V30 19 C 0.925361 -2.077928 2.422610 0
M  V30 20 N -0.459077 -2.414948 2.376425 0
M  V30 21 C -1.138532 -3.365925 1.562478 0
M  V30 22 C -2.492111 -3.494107 1.719816 0
M  V30 23 C -3.158552 -4.411012 0.937443 0
M  V30 24 C -2.417743 -5.152383 0.034064 0
M  V30 25 F -3.088544 -6.058787 -0.736811 0
M  V30 26 C -1.037724 -5.042471 -0.147270 0
M  V30 27 Cl -0.198715 -6.027075 -1.316354 0
M  V30 28 C -0.411398 -4.111820 0.657433 0
M  V30 29 H 3.780355 -2.912571 3.952352 0
M  V30 30 H 4.259545 0.524156 0.854644 0
M  V30 31 H 2.709975 1.661996 -0.626126 0
M  V30 32 H -0.965856 0.886159 -0.868756 0
M  V30 33 H 1.129268 2.041447 -2.435144 0
M  V30 34 H -0.650669 2.436415 -2.526735 0
M  V30 35 H 2.613722 3.961993 -1.099952 0
M  V30 36 H 1.982257 6.198881 0.190605 0
M  V30 37 H -0.667514 6.166220 0.331345 0
M  V30 38 H -0.490351 -0.717327 0.776442 0
M  V30 39 H -0.939827 -1.825437 3.072056 0
M  V30 40 H -3.060652 -2.908953 2.429422 0
M  V30 41 H -4.227187 -4.560737 1.012780 0
M  V30 42 H 0.673943 -4.023009 0.517203 0
M  V30 END ATOM
M  V30 BEGIN BOND
M  V30 1 3 1 2
M  V30 2 1 2 3
M  V30 3 2 3 4
M  V30 4 1 4 5
M  V30 5 2 5 6
M  V30 6 1 6 7
M  V30 7 2 7 8
M  V30 8 1 8 9
M  V30 9 1 9 10
M  V30 10 1 10 11
M  V30 11 1 11 12
M  V30 12 1 12 13
M  V30 13 2 13 14
M  V30 14 1 14 15
M  V30 15 1 15 16
M  V30 16 2 9 17
M  V30 17 1 17 18
M  V30 18 2 18 19
M  V30 19 1 19 20
M  V30 20 1 20 21
M  V30 21 2 21 22
M  V30 22 1 22 23
M  V30 23 2 23 24
M  V30 24 1 24 25
M  V30 25 1 24 26
M  V30 26 1 26 27
M  V30 27 2 26 28
M  V30 28 1 19 3
M  V30 29 1 28 21
M  V30 30 1 18 6
M  V30 31 2 16 12
M  V30 32 1 4 29
M  V30 33 1 7 30
M  V30 34 1 8 31
M  V30 35 1 10 32
M  V30 36 1 11 33
M  V30 37 1 11 34
M  V30 38 1 13 35
M  V30 39 1 14 36
M  V30 40 1 15 37
M  V30 41 1 17 38
M  V30 42 1 20 39
M  V30 43 1 22 40
M  V30 44 1 23 41
M  V30 45 1 28 42
M  V30 END BOND
M  V30 END CTAB
M  END
>  <Dataset>  (641) 
ChEMBL_Kinases

>  <Ligand_Instance>  (641) 
nan

>  <PDB_ID>  (641) 
nan

>  <Standardized_SMILES>  (641) 
N#Cc1cnc2ccc(NCc3cc[nH]n3)cc2c1Nc1ccc(F)c(Cl)c1

>  <Name>  (641) 
nan

>  <Pocket>  (641) 
nan

>  <ATP_Site>  (641) 
nan

>  <Peripheral>  (641) 
nan

>  <Num_H_Atoms_ProtBoundConf>  (641) 
nan

>  <Num_Resolved_Atoms>  (641) 
nan

>  <Num_Not_Resolved_Atoms>  (641) 
nan

$$$$
CHEMBL220169
     RDKit          3D

  0  0  0  0  0  0  0  0  0  0999 V3000
M  V30 BEGIN CTAB
M  V30 COUNTS 32 33 0 0 0
M  V30 BEGIN ATOM
M  V30 1 N -2.694506 -5.087985 3.227539 0
M  V30 2 C -1.712923 -5.812801 2.464890 0
M  V30 3 O -1.777645 -7.045645 2.743064 0
M  V30 4 C -0.807172 -5.088766 1.512737 0
M  V30 5 O -1.122719 -3.733203 1.557166 0
M  V30 6 C -0.552616 -2.705767 0.862379 0
M  V30 7 C 0.469678 -2.702115 -0.058472 0
M  V30 8 C 0.879310 -1.520345 -0.631477 0
M  V30 9 C 0.291346 -0.315997 -0.310033 0
M  V30 10 C 0.729655 0.919736 -0.944607 0
M  V30 11 C 1.119302 2.107589 -0.517999 0
M  V30 12 C 1.487367 3.124689 -1.487219 0
M  V30 13 O 1.418747 2.896830 -2.727412 0
M  V30 14 N 1.925771 4.382052 -0.991656 0
M  V30 15 C 2.039491 4.742784 0.386534 0
M  V30 16 S 2.555588 6.215001 0.861870 0
M  V30 17 N 1.674558 3.734159 1.337737 0
M  V30 18 C 1.231698 2.464653 0.877902 0
M  V30 19 O 0.951842 1.689039 1.810916 0
M  V30 20 C -0.754600 -0.270749 0.622286 0
M  V30 21 C -1.154815 -1.483012 1.192658 0
M  V30 22 H -2.282971 -4.294158 3.747528 0
M  V30 23 H -3.464659 -4.628820 3.742010 0
M  V30 24 H 0.267099 -5.249722 1.816320 0
M  V30 25 H -0.981658 -5.552122 0.506594 0
M  V30 26 H 0.873764 -3.686702 -0.252860 0
M  V30 27 H 1.698505 -1.567329 -1.361472 0
M  V30 28 H 0.700242 0.751721 -2.009404 0
M  V30 29 H 2.182320 5.084037 -1.732832 0
M  V30 30 H 1.763138 4.012979 2.340662 0
M  V30 31 H -1.283432 0.650588 0.909294 0
M  V30 32 H -1.971820 -1.374916 1.912734 0
M  V30 END ATOM
M  V30 BEGIN BOND
M  V30 1 1 1 2
M  V30 2 2 2 3
M  V30 3 1 2 4
M  V30 4 1 4 5
M  V30 5 1 5 6
M  V30 6 2 6 7
M  V30 7 1 7 8
M  V30 8 2 8 9
M  V30 9 1 9 10
M  V30 10 2 10 11 CFG=2
M  V30 11 1 11 12
M  V30 12 2 12 13
M  V30 13 1 12 14
M  V30 14 1 14 15
M  V30 15 2 15 16
M  V30 16 1 15 17
M  V30 17 1 17 18
M  V30 18 2 18 19
M  V30 19 1 9 20
M  V30 20 2 20 21
M  V30 21 1 21 6
M  V30 22 1 18 11
M  V30 23 1 1 22
M  V30 24 1 1 23
M  V30 25 1 4 24
M  V30 26 1 4 25
M  V30 27 1 7 26
M  V30 28 1 8 27
M  V30 29 1 10 28
M  V30 30 1 14 29
M  V30 31 1 17 30
M  V30 32 1 20 31
M  V30 33 1 21 32
M  V30 END BOND
M  V30 END CTAB
M  END
>  <Dataset>  (642) 
ChEMBL_Kinases

>  <Ligand_Instance>  (642) 
nan

>  <PDB_ID>  (642) 
nan

>  <Standardized_SMILES>  (642) 
NC(=O)COc1ccc(C=C2C(=O)NC(=S)NC2=O)cc1

>  <Name>  (642) 
nan

>  <Pocket>  (642) 
nan

>  <ATP_Site>  (642) 
nan

>  <Peripheral>  (642) 
nan

>  <Num_H_Atoms_ProtBoundConf>  (642) 
nan

>  <Num_Resolved_Atoms>  (642) 
nan

>  <Num_Not_Resolved_Atoms>  (642) 
nan

$$$$
CHEMBL220145
     RDKit          3D

  0  0  0  0  0  0  0  0  0  0999 V3000
M  V30 BEGIN CTAB
M  V30 COUNTS 51 54 0 0 0
M  V30 BEGIN ATOM
M  V30 1 C 5.875345 -5.656705 2.900772 0
M  V30 2 O 4.549474 -5.622949 2.430310 0
M  V30 3 C 4.028650 -4.476419 1.851013 0
M  V30 4 C 4.691446 -3.260351 1.654701 0
M  V30 5 C 4.048272 -2.199037 1.066360 0
M  V30 6 N 4.521972 -0.965996 0.797610 0
M  V30 7 C 3.536965 -0.263459 0.216330 0
M  V30 8 N 2.413231 -1.029363 0.101058 0
M  V30 9 C 1.082401 -0.938225 -0.370669 0
M  V30 10 C 0.082468 -0.146024 0.092909 0
M  V30 11 C -1.170414 -0.216764 -0.474769 0
M  V30 12 O -2.313411 0.482555 -0.168934 0
M  V30 13 C -2.426049 1.481036 0.831086 0 CFG=2
M  V30 14 C -3.073948 0.828322 1.976291 0
M  V30 15 C -2.998893 2.631504 0.187305 0
M  V30 16 C -3.895936 2.413679 -0.878197 0
M  V30 17 C -4.560754 3.365005 -1.620234 0
M  V30 18 C -4.314032 4.694454 -1.271918 0
M  V30 19 C -3.437192 4.932571 -0.227502 0
M  V30 20 C -2.775731 3.946835 0.508367 0
M  V30 21 C -1.862133 4.255204 1.604800 0
M  V30 22 F -0.585237 3.836816 1.495895 0
M  V30 23 F -2.432752 4.030710 2.867956 0
M  V30 24 F -1.745540 5.647396 1.637399 0
M  V30 25 C -1.295482 -1.154124 -1.538244 0
M  V30 26 C -2.460331 -1.499217 -2.359964 0
M  V30 27 N -3.359522 -1.755832 -2.998269 0
M  V30 28 S 0.367663 -1.919945 -1.714708 0
M  V30 29 C 2.754338 -2.239398 0.639331 0
M  V30 30 C 2.134243 -3.468194 0.854282 0
M  V30 31 C 2.713608 -4.570107 1.434716 0
M  V30 32 O 1.985459 -5.742899 1.592393 0
M  V30 33 C 0.649970 -5.895839 1.186699 0
M  V30 34 H 6.573913 -5.193945 2.194096 0
M  V30 35 H 5.930462 -5.141665 3.891301 0
M  V30 36 H 6.194692 -6.705614 3.069412 0
M  V30 37 H 5.718817 -3.257739 2.004356 0
M  V30 38 H 3.407764 0.729980 -0.176086 0
M  V30 39 H 0.243460 0.545039 0.908271 0
M  V30 40 H -1.391209 1.717789 1.142136 0
M  V30 41 H -2.592990 1.168397 2.924061 0
M  V30 42 H -4.106032 1.259233 2.156228 0
M  V30 43 H -3.033199 -0.255252 2.033048 0
M  V30 44 H -4.122917 1.384236 -1.193876 0
M  V30 45 H -5.234289 3.118507 -2.420196 0
M  V30 46 H -4.785022 5.508038 -1.802218 0
M  V30 47 H -3.266307 5.996611 0.014915 0
M  V30 48 H 1.095673 -3.579037 0.539305 0
M  V30 49 H 0.252481 -6.844243 1.627794 0
M  V30 50 H 0.011660 -5.032131 1.436717 0
M  V30 51 H 0.622599 -6.070145 0.071219 0
M  V30 END ATOM
M  V30 BEGIN BOND
M  V30 1 1 1 2
M  V30 2 1 2 3
M  V30 3 2 3 4
M  V30 4 1 4 5
M  V30 5 1 5 6
M  V30 6 2 6 7
M  V30 7 1 7 8
M  V30 8 1 8 9
M  V30 9 2 9 10
M  V30 10 1 10 11
M  V30 11 1 11 12
M  V30 12 1 12 13
M  V30 13 1 13 14
M  V30 14 1 13 15
M  V30 15 2 15 16
M  V30 16 1 16 17
M  V30 17 2 17 18
M  V30 18 1 18 19
M  V30 19 2 19 20
M  V30 20 1 20 21
M  V30 21 1 21 22
M  V30 22 1 21 23
M  V30 23 1 21 24
M  V30 24 2 11 25
M  V30 25 1 25 26
M  V30 26 3 26 27
M  V30 27 1 25 28
M  V30 28 1 8 29
M  V30 29 1 29 30
M  V30 30 2 30 31
M  V30 31 1 31 32
M  V30 32 1 32 33
M  V30 33 1 31 3
M  V30 34 2 29 5
M  V30 35 1 28 9
M  V30 36 1 20 15
M  V30 37 1 1 34
M  V30 38 1 1 35
M  V30 39 1 1 36
M  V30 40 1 4 37
M  V30 41 1 7 38
M  V30 42 1 10 39
M  V30 43 1 13 40 CFG=1
M  V30 44 1 14 41
M  V30 45 1 14 42
M  V30 46 1 14 43
M  V30 47 1 16 44
M  V30 48 1 17 45
M  V30 49 1 18 46
M  V30 50 1 19 47
M  V30 51 1 30 48
M  V30 52 1 33 49
M  V30 53 1 33 50
M  V30 54 1 33 51
M  V30 END BOND
M  V30 END CTAB
M  END
>  <Dataset>  (643) 
ChEMBL_Kinases

>  <Ligand_Instance>  (643) 
nan

>  <PDB_ID>  (643) 
nan

>  <Standardized_SMILES>  (643) 
COc1cc2ncn(-c3cc(O[C@H](C)c4ccccc4C(F)(F)F)c(C#N)s3)c2cc1OC

>  <Name>  (643) 
nan

>  <Pocket>  (643) 
nan

>  <ATP_Site>  (643) 
nan

>  <Peripheral>  (643) 
nan

>  <Num_H_Atoms_ProtBoundConf>  (643) 
nan

>  <Num_Resolved_Atoms>  (643) 
nan

>  <Num_Not_Resolved_Atoms>  (643) 
nan

$$$$
CHEMBL220099
     RDKit          3D

  0  0  0  0  0  0  0  0  0  0999 V3000
M  V30 BEGIN CTAB
M  V30 COUNTS 122 125 0 0 0
M  V30 BEGIN ATOM
M  V30 1 C 10.910422 -2.197678 4.065124 0
M  V30 2 C 9.618167 -2.549947 4.677468 0
M  V30 3 C 9.666291 -3.910725 5.199026 0
M  V30 4 C 8.516838 -1.783162 4.769704 0
M  V30 5 C 8.283573 -0.344677 4.266469 0
M  V30 6 C 6.811252 -0.364898 4.187856 0
M  V30 7 C 6.357070 -1.243480 2.995783 0
M  V30 8 O 6.758439 -0.562246 1.873756 0
M  V30 9 C 6.112236 0.959715 3.967767 0
M  V30 10 O 4.818013 0.712508 3.834239 0
M  V30 11 C 3.577370 0.486391 3.703571 0
M  V30 12 O 3.303774 1.594913 3.340585 0
M  V30 13 C 2.623645 -0.672784 3.866230 0
M  V30 14 C 2.776538 -1.876784 4.434353 0
M  V30 15 C 1.902441 -2.921383 4.366275 0
M  V30 16 C 0.793959 -2.682580 3.644072 0
M  V30 17 C -0.208803 -3.560229 3.094434 0
M  V30 18 C -1.052855 -4.297144 2.606856 0
M  V30 19 C -2.080245 -5.196558 1.979513 0
M  V30 20 C -3.235208 -4.511398 1.804793 0
M  V30 21 C -3.959761 -4.928731 0.624514 0
M  V30 22 C -3.274524 -5.937477 -0.039927 0
M  V30 23 C -3.482027 -5.747102 -1.503672 0
M  V30 24 C -3.638755 -5.570107 -2.704846 0
M  V30 25 C -3.803505 -5.341967 -4.109170 0
M  V30 26 C -3.514318 -3.942416 -4.164542 0
M  V30 27 C -3.362674 -3.289997 -5.427680 0
M  V30 28 C -3.502741 -4.038615 -6.618650 0
M  V30 29 O -3.296234 -3.218707 -7.776572 0
M  V30 30 C -2.996742 -1.927904 -7.405796 0
M  V30 31 C -2.606917 -0.791698 -8.238108 0
M  V30 32 O -2.492731 0.233899 -7.255640 0
M  V30 33 C -1.944881 1.380923 -7.612811 0
M  V30 34 C -2.074432 2.438236 -6.530921 0
M  V30 35 O -1.495649 2.087661 -5.311592 0
M  V30 36 C -1.711269 3.096049 -4.407003 0
M  V30 37 C -1.191074 2.839119 -2.986588 0
M  V30 38 N -1.458848 3.931553 -2.137145 0
M  V30 39 C -1.071812 3.933245 -0.823172 0
M  V30 40 C -1.707183 3.134295 0.206156 0
M  V30 41 O -1.775812 3.525009 1.400825 0
M  V30 42 O -2.366946 2.089027 0.823385 0
M  V30 43 C -2.665166 2.150668 2.232341 0
M  V30 44 C -1.451024 2.251930 3.086568 0
M  V30 45 C -3.312297 0.793145 2.530791 0
M  V30 46 C -3.601481 3.266717 2.553132 0
M  V30 47 C -2.722861 4.567216 -2.371756 0
M  V30 48 C -3.870862 3.711254 -2.062428 0
M  V30 49 O -3.888463 2.526542 -1.650645 0
M  V30 50 O -5.233975 3.762115 -2.065811 0
M  V30 51 C -6.133864 2.774575 -1.703785 0
M  V30 52 C -6.051443 2.321963 -0.266846 0
M  V30 53 C -6.028741 1.550623 -2.596180 0
M  V30 54 C -7.564752 3.316767 -1.889252 0
M  V30 55 C -3.775544 -5.322551 -6.370682 0
M  V30 56 C -3.944164 -6.068295 -5.245894 0
M  V30 57 C -2.092476 -6.668980 0.136361 0
M  V30 58 C -1.406293 -6.221184 1.329976 0
M  V30 59 C 0.568263 -1.423185 3.023456 0
M  V30 60 C 1.467773 -0.335740 3.094734 0
M  V30 61 O 6.434528 -1.043989 5.345130 0
M  V30 62 C 7.231671 -2.226828 5.400776 0
M  V30 63 O 6.890501 -3.332331 5.866807 0
M  V30 64 H 10.990646 -1.104653 3.808345 0
M  V30 65 H 11.682318 -2.370609 4.839684 0
M  V30 66 H 11.149037 -2.842110 3.182920 0
M  V30 67 H 9.584019 -4.673242 4.354872 0
M  V30 68 H 8.917895 -4.127062 6.007218 0
M  V30 69 H 10.645782 -4.139747 5.668465 0
M  V30 70 H 8.797432 -0.206311 3.295791 0
M  V30 71 H 8.651541 0.360048 4.995165 0
M  V30 72 H 5.251241 -1.286451 3.055744 0
M  V30 73 H 6.801951 -2.256389 3.101836 0
M  V30 74 H 6.283058 -0.926285 1.072585 0
M  V30 75 H 6.550135 1.400448 2.998271 0
M  V30 76 H 6.440823 1.682893 4.734094 0
M  V30 77 H 3.701876 -2.000803 4.987808 0
M  V30 78 H 1.912755 -3.888936 4.762976 0
M  V30 79 H -3.635812 -3.751725 2.427256 0
M  V30 80 H -4.888171 -4.528804 0.301512 0
M  V30 81 H -3.381930 -3.174127 -3.362554 0
M  V30 82 H -3.174669 -2.204906 -5.211887 0
M  V30 83 H -3.911380 -1.572388 -6.821041 0
M  V30 84 H -2.165306 -2.002945 -6.560531 0
M  V30 85 H -1.667468 -0.889810 -8.829543 0
M  V30 86 H -3.433258 -0.507619 -8.900938 0
M  V30 87 H -2.431496 1.803826 -8.519546 0
M  V30 88 H -0.839162 1.279504 -7.875861 0
M  V30 89 H -1.519619 3.316621 -6.911521 0
M  V30 90 H -3.132075 2.742913 -6.394255 0
M  V30 91 H -2.799721 3.294794 -4.260093 0
M  V30 92 H -1.250930 4.048644 -4.747192 0
M  V30 93 H -0.070330 2.603078 -3.027290 0
M  V30 94 H -1.655454 1.891158 -2.654281 0
M  V30 95 H 0.057184 3.622571 -0.729226 0
M  V30 96 H -0.970183 4.979703 -0.367256 0
M  V30 97 H -0.579638 1.967774 2.453136 0
M  V30 98 H -1.314837 3.168847 3.650141 0
M  V30 99 H -1.451454 1.436738 3.884568 0
M  V30 100 H -3.943281 0.473898 1.664517 0
M  V30 101 H -3.895733 0.864181 3.445064 0
M  V30 102 H -2.576038 -0.020660 2.685246 0
M  V30 103 H -4.459771 2.824191 3.163816 0
M  V30 104 H -3.128554 3.978032 3.261414 0
M  V30 105 H -3.988365 3.822937 1.700910 0
M  V30 106 H -2.770467 5.079185 -3.355583 0
M  V30 107 H -2.798368 5.439140 -1.634132 0
M  V30 108 H -6.912488 2.780908 0.327876 0
M  V30 109 H -6.234878 1.232180 -0.231084 0
M  V30 110 H -5.116345 2.499234 0.238378 0
M  V30 111 H -6.985068 1.373021 -3.098868 0
M  V30 112 H -5.227191 1.761278 -3.326752 0
M  V30 113 H -5.732101 0.668303 -1.985948 0
M  V30 114 H -8.070484 3.435724 -0.910873 0
M  V30 115 H -7.482567 4.291771 -2.448982 0
M  V30 116 H -8.167065 2.617071 -2.479654 0
M  V30 117 H -3.867609 -5.835891 -7.308845 0
M  V30 118 H -4.149815 -7.041502 -4.963951 0
M  V30 119 H -1.719915 -7.444010 -0.473692 0
M  V30 120 H -0.487618 -6.636800 1.657030 0
M  V30 121 H -0.301820 -1.103755 2.419741 0
M  V30 122 H 1.286048 0.603951 2.613836 0
M  V30 END ATOM
M  V30 BEGIN BOND
M  V30 1 1 1 2
M  V30 2 1 2 3
M  V30 3 2 2 4 CFG=2
M  V30 4 1 4 5
M  V30 5 1 5 6
M  V30 6 1 6 7
M  V30 7 1 7 8
M  V30 8 1 6 9
M  V30 9 1 9 10
M  V30 10 1 10 11
M  V30 11 2 11 12
M  V30 12 1 11 13
M  V30 13 2 13 14
M  V30 14 1 14 15
M  V30 15 2 15 16
M  V30 16 1 16 17
M  V30 17 3 17 18
M  V30 18 1 18 19
M  V30 19 2 19 20
M  V30 20 1 20 21
M  V30 21 2 21 22
M  V30 22 1 22 23
M  V30 23 3 23 24
M  V30 24 1 24 25
M  V30 25 2 25 26
M  V30 26 1 26 27
M  V30 27 2 27 28
M  V30 28 1 28 29
M  V30 29 1 29 30
M  V30 30 1 30 31
M  V30 31 1 31 32
M  V30 32 1 32 33
M  V30 33 1 33 34
M  V30 34 1 34 35
M  V30 35 1 35 36
M  V30 36 1 36 37
M  V30 37 1 37 38
M  V30 38 1 38 39
M  V30 39 1 39 40
M  V30 40 2 40 41
M  V30 41 1 40 42
M  V30 42 1 42 43
M  V30 43 1 43 44
M  V30 44 1 43 45
M  V30 45 1 43 46
M  V30 46 1 38 47
M  V30 47 1 47 48
M  V30 48 2 48 49
M  V30 49 1 48 50
M  V30 50 1 50 51
M  V30 51 1 51 52
M  V30 52 1 51 53
M  V30 53 1 51 54
M  V30 54 1 28 55
M  V30 55 2 55 56
M  V30 56 1 22 57
M  V30 57 2 57 58
M  V30 58 1 16 59
M  V30 59 2 59 60
M  V30 60 1 6 61
M  V30 61 1 61 62
M  V30 62 2 62 63
M  V30 63 1 62 4
M  V30 64 1 60 13
M  V30 65 1 58 19
M  V30 66 1 56 25
M  V30 67 1 1 64
M  V30 68 1 1 65
M  V30 69 1 1 66
M  V30 70 1 3 67
M  V30 71 1 3 68
M  V30 72 1 3 69
M  V30 73 1 5 70
M  V30 74 1 5 71
M  V30 75 1 7 72
M  V30 76 1 7 73
M  V30 77 1 8 74
M  V30 78 1 9 75
M  V30 79 1 9 76
M  V30 80 1 14 77
M  V30 81 1 15 78
M  V30 82 1 20 79
M  V30 83 1 21 80
M  V30 84 1 26 81
M  V30 85 1 27 82
M  V30 86 1 30 83
M  V30 87 1 30 84
M  V30 88 1 31 85
M  V30 89 1 31 86
M  V30 90 1 33 87
M  V30 91 1 33 88
M  V30 92 1 34 89
M  V30 93 1 34 90
M  V30 94 1 36 91
M  V30 95 1 36 92
M  V30 96 1 37 93
M  V30 97 1 37 94
M  V30 98 1 39 95
M  V30 99 1 39 96
M  V30 100 1 44 97
M  V30 101 1 44 98
M  V30 102 1 44 99
M  V30 103 1 45 100
M  V30 104 1 45 101
M  V30 105 1 45 102
M  V30 106 1 46 103
M  V30 107 1 46 104
M  V30 108 1 46 105
M  V30 109 1 47 106
M  V30 110 1 47 107
M  V30 111 1 52 108
M  V30 112 1 52 109
M  V30 113 1 52 110
M  V30 114 1 53 111
M  V30 115 1 53 112
M  V30 116 1 53 113
M  V30 117 1 54 114
M  V30 118 1 54 115
M  V30 119 1 54 116
M  V30 120 1 55 117
M  V30 121 1 56 118
M  V30 122 1 57 119
M  V30 123 1 58 120
M  V30 124 1 59 121
M  V30 125 1 60 122
M  V30 END BOND
M  V30 END CTAB
M  END
>  <Dataset>  (644) 
ChEMBL_Kinases

>  <Ligand_Instance>  (644) 
nan

>  <PDB_ID>  (644) 
nan

>  <Standardized_SMILES>  (644) 
CC(C)=C1CC(CO)(COC(=O)c2ccc(C#Cc3ccc(C#Cc4ccc(OCCOCCOCCN(CC(=O)OC(C)(C)C)CC(=O)OC(C)(C)C)cc4)cc3)cc2)OC1=O

>  <Name>  (644) 
nan

>  <Pocket>  (644) 
nan

>  <ATP_Site>  (644) 
nan

>  <Peripheral>  (644) 
nan

>  <Num_H_Atoms_ProtBoundConf>  (644) 
nan

>  <Num_Resolved_Atoms>  (644) 
nan

>  <Num_Not_Resolved_Atoms>  (644) 
nan

$$$$
CHEMBL220090
     RDKit          3D

  0  0  0  0  0  0  0  0  0  0999 V3000
M  V30 BEGIN CTAB
M  V30 COUNTS 55 58 0 0 0
M  V30 BEGIN ATOM
M  V30 1 C 2.175901 -0.021674 -2.329161 0
M  V30 2 O 3.084325 0.588206 -1.456220 0
M  V30 3 C 2.716496 0.978746 -0.196498 0
M  V30 4 C 1.396422 0.730208 0.146270 0
M  V30 5 C 0.870445 1.062284 1.375438 0
M  V30 6 C 1.711099 1.669442 2.296114 0
M  V30 7 C 3.017236 1.907786 1.938224 0
M  V30 8 C 3.578035 1.592475 0.724117 0
M  V30 9 O 4.827478 1.754443 0.207912 0
M  V30 10 C 5.955930 2.333717 0.785917 0
M  V30 11 C 5.860037 3.775134 1.141461 0
M  V30 12 C 5.573772 4.627940 -0.101293 0
M  V30 13 O 4.366167 4.179013 -0.624069 0
M  V30 14 N 1.045593 1.925186 3.435568 0
M  V30 15 C -0.235539 1.488208 3.271752 0
M  V30 16 N -0.306021 0.979973 2.034221 0
M  V30 17 C -1.421924 0.377550 1.326392 0
M  V30 18 C -1.922266 -0.837783 1.411730 0
M  V30 19 C -2.983212 -1.203517 0.648383 0
M  V30 20 O -3.638334 -2.424773 0.601605 0
M  V30 21 C -3.265306 -3.525951 1.395778 0
M  V30 22 C -4.158007 -4.677049 1.107139 0
M  V30 23 C -5.172415 -5.053413 1.964670 0
M  V30 24 C -5.974320 -6.148786 1.620548 0
M  V30 25 C -5.785181 -6.849693 0.472603 0
M  V30 26 C -4.761222 -6.429120 -0.341000 0
M  V30 27 C -3.914308 -5.347507 -0.073641 0
M  V30 28 C -2.842896 -4.983286 -1.014835 0
M  V30 29 F -1.570789 -5.053645 -0.450456 0
M  V30 30 F -2.849016 -5.872204 -2.071743 0
M  V30 31 F -3.049849 -3.715654 -1.568825 0
M  V30 32 C -3.492302 -0.222686 -0.211463 0
M  V30 33 C -4.591318 -0.228633 -1.161226 0
M  V30 34 N -5.452180 -0.216371 -1.897729 0
M  V30 35 S -2.379746 1.267014 0.116600 0
M  V30 36 H 1.696457 -0.926860 -1.901411 0
M  V30 37 H 2.645493 -0.360066 -3.274465 0
M  V30 38 H 1.359439 0.685718 -2.652554 0
M  V30 39 H 0.691884 0.251304 -0.548050 0
M  V30 40 H 3.685781 2.364839 2.639138 0
M  V30 41 H 6.345604 1.735101 1.651515 0
M  V30 42 H 6.799865 2.259733 0.030241 0
M  V30 43 H 6.865491 4.086088 1.506655 0
M  V30 44 H 5.089131 4.021664 1.854575 0
M  V30 45 H 6.376905 4.590198 -0.834906 0
M  V30 46 H 5.395941 5.665015 0.264338 0
M  V30 47 H 3.861451 4.888551 -1.095851 0
M  V30 48 H -1.089654 1.501531 3.935369 0
M  V30 49 H -1.479096 -1.556614 2.102826 0
M  V30 50 H -3.479486 -3.216802 2.457033 0
M  V30 51 H -2.196903 -3.787546 1.351625 0
M  V30 52 H -5.305670 -4.477601 2.878564 0
M  V30 53 H -6.773567 -6.434611 2.309963 0
M  V30 54 H -6.395207 -7.702478 0.185288 0
M  V30 55 H -4.561560 -6.953683 -1.276930 0
M  V30 END ATOM
M  V30 BEGIN BOND
M  V30 1 1 1 2
M  V30 2 1 2 3
M  V30 3 2 3 4
M  V30 4 1 4 5
M  V30 5 2 5 6
M  V30 6 1 6 7
M  V30 7 2 7 8
M  V30 8 1 8 9
M  V30 9 1 9 10
M  V30 10 1 10 11
M  V30 11 1 11 12
M  V30 12 1 12 13
M  V30 13 1 6 14
M  V30 14 2 14 15
M  V30 15 1 15 16
M  V30 16 1 16 17
M  V30 17 2 17 18
M  V30 18 1 18 19
M  V30 19 1 19 20
M  V30 20 1 20 21
M  V30 21 1 21 22
M  V30 22 2 22 23
M  V30 23 1 23 24
M  V30 24 2 24 25
M  V30 25 1 25 26
M  V30 26 2 26 27
M  V30 27 1 27 28
M  V30 28 1 28 29
M  V30 29 1 28 30
M  V30 30 1 28 31
M  V30 31 2 19 32
M  V30 32 1 32 33
M  V30 33 3 33 34
M  V30 34 1 32 35
M  V30 35 1 8 3
M  V30 36 1 35 17
M  V30 37 1 16 5
M  V30 38 1 27 22
M  V30 39 1 1 36
M  V30 40 1 1 37
M  V30 41 1 1 38
M  V30 42 1 4 39
M  V30 43 1 7 40
M  V30 44 1 10 41
M  V30 45 1 10 42
M  V30 46 1 11 43
M  V30 47 1 11 44
M  V30 48 1 12 45
M  V30 49 1 12 46
M  V30 50 1 13 47
M  V30 51 1 15 48
M  V30 52 1 18 49
M  V30 53 1 21 50
M  V30 54 1 21 51
M  V30 55 1 23 52
M  V30 56 1 24 53
M  V30 57 1 25 54
M  V30 58 1 26 55
M  V30 END BOND
M  V30 END CTAB
M  END
>  <Dataset>  (645) 
ChEMBL_Kinases

>  <Ligand_Instance>  (645) 
nan

>  <PDB_ID>  (645) 
nan

>  <Standardized_SMILES>  (645) 
COc1cc2c(cc1OCCCO)ncn2-c1cc(OCc2ccccc2C(F)(F)F)c(C#N)s1

>  <Name>  (645) 
nan

>  <Pocket>  (645) 
nan

>  <ATP_Site>  (645) 
nan

>  <Peripheral>  (645) 
nan

>  <Num_H_Atoms_ProtBoundConf>  (645) 
nan

>  <Num_Resolved_Atoms>  (645) 
nan

>  <Num_Not_Resolved_Atoms>  (645) 
nan

$$$$
CHEMBL220074
     RDKit          3D

  0  0  0  0  0  0  0  0  0  0999 V3000
M  V30 BEGIN CTAB
M  V30 COUNTS 40 43 0 0 0
M  V30 BEGIN ATOM
M  V30 1 N 0.986868 -4.060192 0.408017 0
M  V30 2 C 2.375906 -3.920343 0.167241 0
M  V30 3 C 3.184081 -4.818756 0.832313 0
M  V30 4 C 4.547880 -4.802148 0.694531 0
M  V30 5 C 5.135163 -3.861450 -0.132291 0
M  V30 6 C 4.333740 -2.956737 -0.803127 0
M  V30 7 C 2.948540 -2.977323 -0.660129 0
M  V30 8 N 2.085483 -2.068300 -1.329515 0
M  V30 9 C 1.140683 -1.092800 -0.907515 0
M  V30 10 C 0.465457 -0.387678 -1.881833 0
M  V30 11 C -0.433670 0.540767 -1.398275 0
M  V30 12 C -0.691917 0.800405 -0.065217 0
M  V30 13 C 0.029012 0.048380 0.836688 0
M  V30 14 C 0.947932 -0.901079 0.441147 0
M  V30 15 S -0.093067 0.164354 2.613030 0
M  V30 16 C -0.671936 1.753742 3.166256 0
M  V30 17 C -1.887134 2.285926 2.590144 0
M  V30 18 C -2.732843 2.845203 3.540481 0
M  V30 19 C -3.955204 3.423020 3.264714 0
M  V30 20 C -4.393602 3.461146 1.955976 0
M  V30 21 C -3.547132 2.900221 0.996595 0
M  V30 22 C -2.310455 2.315871 1.277276 0
M  V30 23 C -1.687026 1.830453 0.053419 0
M  V30 24 O -2.093800 2.406359 -1.011309 0
M  V30 25 H 0.396993 -3.723418 1.206583 0
M  V30 26 H 0.687569 -4.592002 -0.421886 0
M  V30 27 H 2.806245 -5.582775 1.494803 0
M  V30 28 H 5.193333 -5.502093 1.211231 0
M  V30 29 H 6.215258 -3.784931 -0.293514 0
M  V30 30 H 4.708944 -2.180000 -1.475864 0
M  V30 31 H 2.284976 -2.258739 -2.335787 0
M  V30 32 H 0.610272 -0.531434 -2.943244 0
M  V30 33 H -0.983499 1.114736 -2.157816 0
M  V30 34 H 1.447810 -1.423097 1.222743 0
M  V30 35 H -0.800997 1.679753 4.274205 0
M  V30 36 H 0.135690 2.526935 3.040152 0
M  V30 37 H -2.371213 2.806935 4.571373 0
M  V30 38 H -4.570810 3.843051 4.048976 0
M  V30 39 H -5.327774 3.889795 1.652710 0
M  V30 40 H -3.912274 2.939801 -0.037454 0
M  V30 END ATOM
M  V30 BEGIN BOND
M  V30 1 1 1 2
M  V30 2 2 2 3
M  V30 3 1 3 4
M  V30 4 2 4 5
M  V30 5 1 5 6
M  V30 6 2 6 7
M  V30 7 1 7 8
M  V30 8 1 8 9
M  V30 9 2 9 10
M  V30 10 1 10 11
M  V30 11 2 11 12
M  V30 12 1 12 13
M  V30 13 2 13 14
M  V30 14 1 13 15
M  V30 15 1 15 16
M  V30 16 1 16 17
M  V30 17 2 17 18
M  V30 18 1 18 19
M  V30 19 2 19 20
M  V30 20 1 20 21
M  V30 21 2 21 22
M  V30 22 1 22 23
M  V30 23 2 23 24
M  V30 24 1 7 2
M  V30 25 1 14 9
M  V30 26 1 22 17
M  V30 27 1 23 12
M  V30 28 1 1 25
M  V30 29 1 1 26
M  V30 30 1 3 27
M  V30 31 1 4 28
M  V30 32 1 5 29
M  V30 33 1 6 30
M  V30 34 1 8 31
M  V30 35 1 10 32
M  V30 36 1 11 33
M  V30 37 1 14 34
M  V30 38 1 16 35
M  V30 39 1 16 36
M  V30 40 1 18 37
M  V30 41 1 19 38
M  V30 42 1 20 39
M  V30 43 1 21 40
M  V30 END BOND
M  V30 END CTAB
M  END
>  <Dataset>  (646) 
ChEMBL_Kinases

>  <Ligand_Instance>  (646) 
nan

>  <PDB_ID>  (646) 
nan

>  <Standardized_SMILES>  (646) 
Nc1ccccc1Nc1ccc2c(c1)SCc1ccccc1C2=O

>  <Name>  (646) 
nan

>  <Pocket>  (646) 
nan

>  <ATP_Site>  (646) 
nan

>  <Peripheral>  (646) 
nan

>  <Num_H_Atoms_ProtBoundConf>  (646) 
nan

>  <Num_Resolved_Atoms>  (646) 
nan

>  <Num_Not_Resolved_Atoms>  (646) 
nan

$$$$
CHEMBL220054
     RDKit          3D

  0  0  0  0  0  0  0  0  0  0999 V3000
M  V30 BEGIN CTAB
M  V30 COUNTS 48 51 0 0 0
M  V30 BEGIN ATOM
M  V30 1 O -0.430001 1.344990 3.483554 0
M  V30 2 C -0.075604 0.833797 2.402744 0
M  V30 3 N 1.281363 1.028426 2.016864 0
M  V30 4 C 2.342882 1.756211 2.719327 0
M  V30 5 C 3.442450 0.760507 3.012767 0
M  V30 6 O 2.876431 -0.233495 3.807925 0
M  V30 7 C 2.831599 2.882048 1.858067 0
M  V30 8 C 3.029546 4.142580 2.419270 0
M  V30 9 C 3.476241 5.217249 1.681016 0
M  V30 10 C 3.745219 5.069793 0.336445 0
M  V30 11 F 4.184448 6.108518 -0.410643 0
M  V30 12 C 3.545385 3.811230 -0.214231 0
M  V30 13 Cl 3.889949 3.641733 -1.915789 0
M  V30 14 C 3.095999 2.718642 0.515523 0
M  V30 15 C -0.916500 0.053185 1.490824 0
M  V30 16 C -0.618880 -0.561719 0.274027 0
M  V30 17 C -1.804051 -1.167453 -0.160374 0
M  V30 18 C -1.825078 -1.904289 -1.421444 0
M  V30 19 N -1.534491 -1.281204 -2.576987 0
M  V30 20 N -1.623601 -2.171865 -3.572157 0
M  V30 21 C -1.969906 -3.378262 -3.090211 0
M  V30 22 C -2.102364 -3.224424 -1.718868 0
M  V30 23 C -2.458015 -4.192694 -0.708504 0
M  V30 24 C -3.734481 -4.711085 -0.941893 0
M  V30 25 C -4.294129 -5.667920 -0.091698 0
M  V30 26 C -3.569750 -6.119410 1.014300 0
M  V30 27 C -2.312424 -5.593599 1.224425 0
M  V30 28 Cl -1.332530 -6.107585 2.594123 0
M  V30 29 C -1.767675 -4.651604 0.382939 0
M  V30 30 C -2.765825 -0.902351 0.795052 0
M  V30 31 N -2.213251 -0.166506 1.781426 0
M  V30 32 H 1.633694 0.623448 1.121958 0
M  V30 33 H 1.988760 2.176575 3.664042 0
M  V30 34 H 4.334159 1.206401 3.462631 0
M  V30 35 H 3.672157 0.269536 2.021798 0
M  V30 36 H 3.389581 -1.095246 3.754435 0
M  V30 37 H 2.818422 4.258861 3.475639 0
M  V30 38 H 3.630305 6.199718 2.119450 0
M  V30 39 H 2.953015 1.746967 0.041892 0
M  V30 40 H 0.358754 -0.507478 -0.137737 0
M  V30 41 H -1.271424 -0.303137 -2.824081 0
M  V30 42 H -2.145339 -4.342200 -3.527451 0
M  V30 43 H -4.408354 -4.444225 -1.770742 0
M  V30 44 H -5.281045 -6.084761 -0.251254 0
M  V30 45 H -3.991901 -6.852343 1.670008 0
M  V30 46 H -0.789373 -4.185981 0.472488 0
M  V30 47 H -3.750496 -1.300195 0.615961 0
M  V30 48 H -2.789846 0.133401 2.597870 0
M  V30 END ATOM
M  V30 BEGIN BOND
M  V30 1 2 1 2
M  V30 2 1 2 3
M  V30 3 1 3 4
M  V30 4 1 4 5
M  V30 5 1 5 6
M  V30 6 1 4 7
M  V30 7 2 7 8
M  V30 8 1 8 9
M  V30 9 2 9 10
M  V30 10 1 10 11
M  V30 11 1 10 12
M  V30 12 1 12 13
M  V30 13 2 12 14
M  V30 14 1 2 15
M  V30 15 2 15 16
M  V30 16 1 16 17
M  V30 17 1 17 18
M  V30 18 1 18 19
M  V30 19 1 19 20
M  V30 20 2 20 21
M  V30 21 1 21 22
M  V30 22 1 22 23
M  V30 23 2 23 24
M  V30 24 1 24 25
M  V30 25 2 25 26
M  V30 26 1 26 27
M  V30 27 1 27 28
M  V30 28 2 27 29
M  V30 29 2 17 30
M  V30 30 1 30 31
M  V30 31 1 14 7
M  V30 32 1 31 15
M  V30 33 2 22 18
M  V30 34 1 29 23
M  V30 35 1 3 32
M  V30 36 1 4 33
M  V30 37 1 5 34
M  V30 38 1 5 35
M  V30 39 1 6 36
M  V30 40 1 8 37
M  V30 41 1 9 38
M  V30 42 1 14 39
M  V30 43 1 16 40
M  V30 44 1 19 41
M  V30 45 1 21 42
M  V30 46 1 24 43
M  V30 47 1 25 44
M  V30 48 1 26 45
M  V30 49 1 29 46
M  V30 50 1 30 47
M  V30 51 1 31 48
M  V30 END BOND
M  V30 END CTAB
M  END
>  <Dataset>  (647) 
ChEMBL_Kinases

>  <Ligand_Instance>  (647) 
nan

>  <PDB_ID>  (647) 
nan

>  <Standardized_SMILES>  (647) 
O=C(NC(CO)c1ccc(F)c(Cl)c1)c1cc(-c2[nH]ncc2-c2cccc(Cl)c2)c[nH]1

>  <Name>  (647) 
nan

>  <Pocket>  (647) 
nan

>  <ATP_Site>  (647) 
nan

>  <Peripheral>  (647) 
nan

>  <Num_H_Atoms_ProtBoundConf>  (647) 
nan

>  <Num_Resolved_Atoms>  (647) 
nan

>  <Num_Not_Resolved_Atoms>  (647) 
nan

$$$$
CHEMBL220037
     RDKit          3D

  0  0  0  0  0  0  0  0  0  0999 V3000
M  V30 BEGIN CTAB
M  V30 COUNTS 42 45 0 0 0
M  V30 BEGIN ATOM
M  V30 1 N 0.990023 -4.696778 4.672626 0
M  V30 2 C 1.389183 -3.875397 3.976229 0
M  V30 3 C 1.898736 -2.841968 3.111596 0
M  V30 4 C 3.241846 -2.537242 3.011980 0
M  V30 5 N 3.683523 -1.557659 2.186997 0
M  V30 6 C 2.801127 -0.864638 1.447744 0
M  V30 7 C 3.254915 0.129396 0.611153 0
M  V30 8 C 2.314156 0.803061 -0.118319 0
M  V30 9 C 0.956878 0.578375 -0.092222 0
M  V30 10 N -0.000257 1.288525 -0.847051 0
M  V30 11 C 0.146235 2.386514 -1.774120 0
M  V30 12 C 0.629635 3.622608 -1.108598 0
M  V30 13 C 1.778740 4.318485 -0.819460 0
M  V30 14 N 1.485800 5.433581 -0.129801 0
M  V30 15 C 0.156838 5.465540 0.029601 0
M  V30 16 N -0.355103 4.390348 -0.551226 0
M  V30 17 C 0.569179 -0.415039 0.752186 0
M  V30 18 C 1.454862 -1.133547 1.514683 0
M  V30 19 C 0.976285 -2.133944 2.353611 0
M  V30 20 N -0.420750 -2.401679 2.412859 0
M  V30 21 C -1.195623 -3.306402 1.633407 0
M  V30 22 C -2.548138 -3.372684 1.897484 0
M  V30 23 C -3.312646 -4.247247 1.147837 0
M  V30 24 C -2.665805 -5.003885 0.174990 0
M  V30 25 F -3.447949 -5.860486 -0.550996 0
M  V30 26 C -1.315051 -4.949860 -0.101812 0
M  V30 27 Cl -0.622105 -5.949396 -1.346921 0
M  V30 28 C -0.566610 -4.062449 0.665612 0
M  V30 29 H 3.868365 -3.153534 3.648797 0
M  V30 30 H 4.308884 0.334463 0.563589 0
M  V30 31 H 2.705897 1.570205 -0.766966 0
M  V30 32 H -1.010194 0.986546 -0.733479 0
M  V30 33 H -0.753298 2.555822 -2.376936 0
M  V30 34 H 1.008449 2.060596 -2.446592 0
M  V30 35 H 2.697913 3.881317 -1.181198 0
M  V30 36 H 2.259761 6.067913 0.163057 0
M  V30 37 H -0.316239 6.277665 0.559230 0
M  V30 38 H -0.491499 -0.672087 0.845693 0
M  V30 39 H -0.814587 -1.804998 3.151595 0
M  V30 40 H -3.001430 -2.764641 2.662790 0
M  V30 41 H -4.378621 -4.346528 1.305440 0
M  V30 42 H 0.503565 -3.991418 0.476626 0
M  V30 END ATOM
M  V30 BEGIN BOND
M  V30 1 3 1 2
M  V30 2 1 2 3
M  V30 3 2 3 4
M  V30 4 1 4 5
M  V30 5 2 5 6
M  V30 6 1 6 7
M  V30 7 2 7 8
M  V30 8 1 8 9
M  V30 9 1 9 10
M  V30 10 1 10 11
M  V30 11 1 11 12
M  V30 12 2 12 13
M  V30 13 1 13 14
M  V30 14 1 14 15
M  V30 15 2 15 16
M  V30 16 2 9 17
M  V30 17 1 17 18
M  V30 18 2 18 19
M  V30 19 1 19 20
M  V30 20 1 20 21
M  V30 21 2 21 22
M  V30 22 1 22 23
M  V30 23 2 23 24
M  V30 24 1 24 25
M  V30 25 1 24 26
M  V30 26 1 26 27
M  V30 27 2 26 28
M  V30 28 1 19 3
M  V30 29 1 28 21
M  V30 30 1 18 6
M  V30 31 1 16 12
M  V30 32 1 4 29
M  V30 33 1 7 30
M  V30 34 1 8 31
M  V30 35 1 10 32
M  V30 36 1 11 33
M  V30 37 1 11 34
M  V30 38 1 13 35
M  V30 39 1 14 36
M  V30 40 1 15 37
M  V30 41 1 17 38
M  V30 42 1 20 39
M  V30 43 1 22 40
M  V30 44 1 23 41
M  V30 45 1 28 42
M  V30 END BOND
M  V30 END CTAB
M  END
>  <Dataset>  (648) 
ChEMBL_Kinases

>  <Ligand_Instance>  (648) 
nan

>  <PDB_ID>  (648) 
nan

>  <Standardized_SMILES>  (648) 
N#Cc1cnc2ccc(NCc3c[nH]cn3)cc2c1Nc1ccc(F)c(Cl)c1

>  <Name>  (648) 
nan

>  <Pocket>  (648) 
nan

>  <ATP_Site>  (648) 
nan

>  <Peripheral>  (648) 
nan

>  <Num_H_Atoms_ProtBoundConf>  (648) 
nan

>  <Num_Resolved_Atoms>  (648) 
nan

>  <Num_Not_Resolved_Atoms>  (648) 
nan

$$$$
CHEMBL220035
     RDKit          3D

  0  0  0  0  0  0  0  0  0  0999 V3000
M  V30 BEGIN CTAB
M  V30 COUNTS 56 59 0 0 0
M  V30 BEGIN ATOM
M  V30 1 N 6.506471 -1.872218 4.190407 0
M  V30 2 C 6.186140 -1.557491 3.130215 0
M  V30 3 C 5.801776 -1.185000 1.803556 0
M  V30 4 N 6.533600 -0.946491 0.709593 0
M  V30 5 C 5.877328 -0.599691 -0.432968 0
M  V30 6 C 4.516697 -0.484623 -0.517529 0
M  V30 7 N 3.778860 -0.720505 0.566298 0
M  V30 8 C 4.441950 -1.067119 1.706768 0
M  V30 9 O 3.326092 -1.208243 2.529622 0
M  V30 10 C 2.529837 -0.047566 2.747533 0
M  V30 11 C 1.310446 -0.264707 3.549026 0
M  V30 12 C 0.517816 1.043012 3.580383 0
M  V30 13 C 0.311302 1.526159 2.150012 0
M  V30 14 C -0.315850 0.517864 1.254686 0
M  V30 15 O -0.319135 1.002386 -0.082450 0
M  V30 16 C -0.811209 0.260282 -1.139630 0
M  V30 17 C -2.123474 -0.140509 -1.151724 0
M  V30 18 C -2.740556 -0.879884 -2.136553 0
M  V30 19 N -4.112301 -1.186044 -1.979766 0
M  V30 20 C -5.146115 -0.972066 -1.013059 0
M  V30 21 C -4.881099 -1.760496 0.199463 0
M  V30 22 C -4.282339 -1.526128 1.414462 0
M  V30 23 C -4.174666 -2.514469 2.344333 0
M  V30 24 N -4.623978 -3.747098 2.163862 0
M  V30 25 C -5.229448 -4.068374 0.993612 0
M  V30 26 C -5.349806 -3.071177 0.027787 0
M  V30 27 C -1.950332 -1.244802 -3.208324 0
M  V30 28 Cl -2.754990 -2.195753 -4.473050 0
M  V30 29 C -0.646117 -0.867916 -3.236296 0
M  V30 30 C -0.030590 -0.117028 -2.227758 0
M  V30 31 N 1.330744 0.078833 -2.592694 0
M  V30 32 C 2.542591 -0.109214 -1.898001 0
M  V30 33 O 1.718285 -0.451624 -1.017669 0
M  V30 34 N 3.948000 -0.095703 -1.759836 0
M  V30 35 H 6.432168 -0.406221 -1.315992 0
M  V30 36 H 2.334817 0.381092 1.751509 0
M  V30 37 H 3.153619 0.737015 3.277420 0
M  V30 38 H 0.710702 -1.105916 3.212624 0
M  V30 39 H 1.602208 -0.450225 4.612126 0
M  V30 40 H 1.109887 1.799061 4.098567 0
M  V30 41 H -0.453198 0.892422 4.037818 0
M  V30 42 H 1.211518 2.008992 1.783307 0
M  V30 43 H -0.436882 2.376772 2.273601 0
M  V30 44 H -1.391377 0.356580 1.529942 0
M  V30 45 H 0.171371 -0.462312 1.368985 0
M  V30 46 H -2.697988 0.167606 -0.315477 0
M  V30 47 H -4.467984 -1.731733 -2.818861 0
M  V30 48 H -5.093275 0.123742 -0.706900 0
M  V30 49 H -6.142243 -1.140572 -1.415177 0
M  V30 50 H -3.955224 -0.520558 1.501585 0
M  V30 51 H -3.683021 -2.197915 3.261304 0
M  V30 52 H -5.570943 -5.073132 0.906586 0
M  V30 53 H -5.855052 -3.478857 -0.854534 0
M  V30 54 H -0.169600 -1.243308 -4.155781 0
M  V30 55 H 1.595239 0.427752 -3.534715 0
M  V30 56 H 4.532826 0.207249 -2.569406 0
M  V30 END ATOM
M  V30 BEGIN BOND
M  V30 1 3 1 2
M  V30 2 1 2 3
M  V30 3 2 3 4
M  V30 4 1 4 5
M  V30 5 2 5 6
M  V30 6 1 6 7
M  V30 7 2 7 8
M  V30 8 1 8 9
M  V30 9 1 9 10
M  V30 10 1 10 11
M  V30 11 1 11 12
M  V30 12 1 12 13
M  V30 13 1 13 14
M  V30 14 1 14 15
M  V30 15 1 15 16
M  V30 16 2 16 17
M  V30 17 1 17 18
M  V30 18 1 18 19
M  V30 19 1 19 20
M  V30 20 1 20 21
M  V30 21 2 21 22
M  V30 22 1 22 23
M  V30 23 2 23 24
M  V30 24 1 24 25
M  V30 25 2 25 26
M  V30 26 2 18 27
M  V30 27 1 27 28
M  V30 28 1 27 29
M  V30 29 2 29 30
M  V30 30 1 30 31
M  V30 31 1 31 32
M  V30 32 2 32 33
M  V30 33 1 32 34
M  V30 34 1 8 3
M  V30 35 1 30 16
M  V30 36 1 34 6
M  V30 37 1 26 21
M  V30 38 1 5 35
M  V30 39 1 10 36
M  V30 40 1 10 37
M  V30 41 1 11 38
M  V30 42 1 11 39
M  V30 43 1 12 40
M  V30 44 1 12 41
M  V30 45 1 13 42
M  V30 46 1 13 43
M  V30 47 1 14 44
M  V30 48 1 14 45
M  V30 49 1 17 46
M  V30 50 1 19 47
M  V30 51 1 20 48
M  V30 52 1 20 49
M  V30 53 1 22 50
M  V30 54 1 23 51
M  V30 55 1 25 52
M  V30 56 1 26 53
M  V30 57 1 29 54
M  V30 58 1 31 55
M  V30 59 1 34 56
M  V30 END BOND
M  V30 END CTAB
M  END
>  <Dataset>  (649) 
ChEMBL_Kinases

>  <Ligand_Instance>  (649) 
nan

>  <PDB_ID>  (649) 
nan

>  <Standardized_SMILES>  (649) 
N#Cc1ncc2nc1OCCCCCOc1cc(NCc3ccncc3)c(Cl)cc1NC(=O)N2

>  <Name>  (649) 
nan

>  <Pocket>  (649) 
nan

>  <ATP_Site>  (649) 
nan

>  <Peripheral>  (649) 
nan

>  <Num_H_Atoms_ProtBoundConf>  (649) 
nan

>  <Num_Resolved_Atoms>  (649) 
nan

>  <Num_Not_Resolved_Atoms>  (649) 
nan

$$$$
CHEMBL220034
     RDKit          3D

  0  0  0  0  0  0  0  0  0  0999 V3000
M  V30 BEGIN CTAB
M  V30 COUNTS 53 55 0 0 0
M  V30 BEGIN ATOM
M  V30 1 C 1.806365 -3.632046 3.042230 0
M  V30 2 C 3.262020 -3.249290 3.007024 0
M  V30 3 C 3.950726 -3.825452 1.794076 0
M  V30 4 N 3.414567 -1.797186 3.059096 0
M  V30 5 C 2.940429 -0.816302 2.142806 0
M  V30 6 C 2.242521 -1.280306 1.050615 0
M  V30 7 C 1.701924 -0.506281 0.053967 0
M  V30 8 C 1.921545 0.873978 0.231168 0
M  V30 9 C 2.621757 1.361420 1.323126 0
M  V30 10 C 3.148380 0.543727 2.304098 0
M  V30 11 Cl 4.035854 1.050263 3.704030 0
M  V30 12 N 1.541855 2.028630 -0.560535 0
M  V30 13 C 0.410426 2.710416 -1.061594 0
M  V30 14 O 0.135771 1.698625 -0.379041 0
M  V30 15 N -0.860313 3.203717 -1.438815 0
M  V30 16 C -2.197132 2.778913 -1.205982 0
M  V30 17 C -3.225910 3.674127 -1.177110 0
M  V30 18 N -4.495389 3.294471 -0.959370 0
M  V30 19 C -4.761481 1.999474 -0.763950 0
M  V30 20 C -6.016928 1.356807 -0.515668 0
M  V30 21 N -7.040613 0.855305 -0.317973 0
M  V30 22 C -3.737039 1.088195 -0.789330 0
M  V30 23 N -2.486244 1.513880 -1.011112 0
M  V30 24 O -3.581030 -0.302306 -0.635006 0
M  V30 25 C -3.113640 -0.824076 0.590595 0
M  V30 26 C -2.944030 -2.272561 0.650528 0
M  V30 27 C -2.030245 -3.022546 -0.213649 0
M  V30 28 C -0.582464 -2.673709 -0.248203 0
M  V30 29 C -0.276969 -1.437182 -0.999922 0
M  V30 30 O 1.010336 -0.937129 -1.029249 0
M  V30 31 H 1.639017 -4.243933 3.962335 0
M  V30 32 H 1.522502 -4.264499 2.191486 0
M  V30 33 H 1.192652 -2.696148 3.095655 0
M  V30 34 H 3.768263 -3.650334 3.903624 0
M  V30 35 H 3.198946 -4.425844 1.237435 0
M  V30 36 H 4.359079 -3.046295 1.116458 0
M  V30 37 H 4.813024 -4.438627 2.121658 0
M  V30 38 H 3.942511 -1.373245 3.871020 0
M  V30 39 H 2.087816 -2.331991 0.914477 0
M  V30 40 H 2.853511 2.408058 1.561051 0
M  V30 41 H 2.363483 2.612963 -0.920616 0
M  V30 42 H -0.677324 4.058569 -2.013919 0
M  V30 43 H -2.945653 4.697575 -1.337787 0
M  V30 44 H -4.014313 -0.608381 1.294173 0
M  V30 45 H -2.333222 -0.205963 1.087338 0
M  V30 46 H -2.792644 -2.616451 1.737428 0
M  V30 47 H -3.989775 -2.714302 0.441076 0
M  V30 48 H -2.394677 -3.063529 -1.287826 0
M  V30 49 H -2.085873 -4.116409 0.090355 0
M  V30 50 H -0.002594 -3.502074 -0.688652 0
M  V30 51 H -0.246130 -2.590146 0.822156 0
M  V30 52 H -0.496850 -1.700487 -2.101779 0
M  V30 53 H -0.970734 -0.658063 -0.676390 0
M  V30 END ATOM
M  V30 BEGIN BOND
M  V30 1 1 1 2
M  V30 2 1 2 3
M  V30 3 1 2 4
M  V30 4 1 4 5
M  V30 5 2 5 6
M  V30 6 1 6 7
M  V30 7 2 7 8
M  V30 8 1 8 9
M  V30 9 2 9 10
M  V30 10 1 10 11
M  V30 11 1 8 12
M  V30 12 1 12 13
M  V30 13 2 13 14
M  V30 14 1 13 15
M  V30 15 1 15 16
M  V30 16 1 16 17
M  V30 17 2 17 18
M  V30 18 1 18 19
M  V30 19 1 19 20
M  V30 20 3 20 21
M  V30 21 2 19 22
M  V30 22 1 22 23
M  V30 23 1 22 24
M  V30 24 1 24 25
M  V30 25 1 25 26
M  V30 26 1 26 27
M  V30 27 1 27 28
M  V30 28 1 28 29
M  V30 29 1 29 30
M  V30 30 1 10 5
M  V30 31 2 23 16
M  V30 32 1 30 7
M  V30 33 1 1 31
M  V30 34 1 1 32
M  V30 35 1 1 33
M  V30 36 1 2 34
M  V30 37 1 3 35
M  V30 38 1 3 36
M  V30 39 1 3 37
M  V30 40 1 4 38
M  V30 41 1 6 39
M  V30 42 1 9 40
M  V30 43 1 12 41
M  V30 44 1 15 42
M  V30 45 1 17 43
M  V30 46 1 25 44
M  V30 47 1 25 45
M  V30 48 1 26 46
M  V30 49 1 26 47
M  V30 50 1 27 48
M  V30 51 1 27 49
M  V30 52 1 28 50
M  V30 53 1 28 51
M  V30 54 1 29 52
M  V30 55 1 29 53
M  V30 END BOND
M  V30 END CTAB
M  END
>  <Dataset>  (650) 
ChEMBL_Kinases

>  <Ligand_Instance>  (650) 
nan

>  <PDB_ID>  (650) 
nan

>  <Standardized_SMILES>  (650) 
CC(C)Nc1cc2c(cc1Cl)NC(=O)Nc1cnc(C#N)c(n1)OCCCCCO2

>  <Name>  (650) 
nan

>  <Pocket>  (650) 
nan

>  <ATP_Site>  (650) 
nan

>  <Peripheral>  (650) 
nan

>  <Num_H_Atoms_ProtBoundConf>  (650) 
nan

>  <Num_Resolved_Atoms>  (650) 
nan

>  <Num_Not_Resolved_Atoms>  (650) 
nan

$$$$
CHEMBL219635
     RDKit          3D

  0  0  0  0  0  0  0  0  0  0999 V3000
M  V30 BEGIN CTAB
M  V30 COUNTS 51 53 0 0 0
M  V30 BEGIN ATOM
M  V30 1 C 3.708994 -2.550697 7.117040 0
M  V30 2 C 4.752466 -1.898354 6.210844 0
M  V30 3 O 5.783801 -2.818294 6.044161 0
M  V30 4 C 4.143755 -1.474370 4.954485 0
M  V30 5 C 3.656304 -1.118673 3.899905 0
M  V30 6 C 3.083037 -0.710040 2.619937 0
M  V30 7 C 2.212721 -1.554462 2.002293 0
M  V30 8 C 1.602875 -1.272535 0.779223 0
M  V30 9 C 2.026537 -0.044485 0.339620 0
M  V30 10 C 2.864342 0.895545 0.817738 0
M  V30 11 C 3.413960 0.510838 2.039049 0
M  V30 12 Cl 4.549785 1.492673 2.945753 0
M  V30 13 N 1.677708 0.688719 -0.874407 0
M  V30 14 C 0.355695 1.327722 -0.928886 0
M  V30 15 O -0.177537 1.143120 0.191795 0
M  V30 16 N -0.938843 1.748951 -0.485388 0
M  V30 17 C -1.982280 2.411324 -1.270916 0
M  V30 18 C -2.527232 3.700637 -1.534388 0
M  V30 19 N -3.446934 3.408833 -2.421201 0
M  V30 20 C -3.796458 2.286046 -2.940310 0
M  V30 21 C -4.869422 2.323318 -3.908421 0
M  V30 22 N -5.719003 2.343815 -4.699596 0
M  V30 23 C -3.265216 1.053710 -2.678642 0
M  V30 24 N -2.290912 1.135283 -1.779624 0
M  V30 25 O -3.580637 -0.175528 -3.186297 0
M  V30 26 C -3.050995 -1.396352 -2.794280 0
M  V30 27 C -3.331156 -1.720460 -1.374138 0
M  V30 28 C -2.734845 -3.019799 -0.901461 0
M  V30 29 C -1.236341 -3.081463 -0.906512 0
M  V30 30 C -0.663076 -2.069650 0.107990 0
M  V30 31 O 0.712492 -2.035465 0.055023 0
M  V30 32 H 2.697279 -2.197427 6.775314 0
M  V30 33 H 3.860830 -2.253149 8.166806 0
M  V30 34 H 3.745523 -3.638738 7.028378 0
M  V30 35 H 5.186282 -1.012946 6.715601 0
M  V30 36 H 5.699732 -3.557043 6.677081 0
M  V30 37 H 1.920283 -2.535182 2.427378 0
M  V30 38 H 3.154871 1.863166 0.401122 0
M  V30 39 H 1.448093 1.170404 -1.671498 0
M  V30 40 H -1.492860 1.680189 0.399696 0
M  V30 41 H -1.756231 3.867057 -0.801345 0
M  V30 42 H -3.553021 -2.200964 -3.408193 0
M  V30 43 H -1.979782 -1.421457 -3.074303 0
M  V30 44 H -3.099756 -0.901271 -0.649930 0
M  V30 45 H -4.432111 -1.845464 -1.296184 0
M  V30 46 H -3.201202 -3.849085 -1.455365 0
M  V30 47 H -3.051857 -3.137886 0.171525 0
M  V30 48 H -0.734789 -2.947220 -1.852188 0
M  V30 49 H -0.961709 -4.069974 -0.499048 0
M  V30 50 H -0.904578 -2.517815 1.135530 0
M  V30 51 H -1.230876 -1.151811 0.093893 0
M  V30 END ATOM
M  V30 BEGIN BOND
M  V30 1 1 1 2
M  V30 2 1 2 3
M  V30 3 1 2 4
M  V30 4 3 4 5
M  V30 5 1 5 6
M  V30 6 2 6 7
M  V30 7 1 7 8
M  V30 8 2 8 9
M  V30 9 1 9 10
M  V30 10 2 10 11
M  V30 11 1 11 12
M  V30 12 1 9 13
M  V30 13 1 13 14
M  V30 14 2 14 15
M  V30 15 1 14 16
M  V30 16 1 16 17
M  V30 17 1 17 18
M  V30 18 2 18 19
M  V30 19 1 19 20
M  V30 20 1 20 21
M  V30 21 3 21 22
M  V30 22 2 20 23
M  V30 23 1 23 24
M  V30 24 1 23 25
M  V30 25 1 25 26
M  V30 26 1 26 27
M  V30 27 1 27 28
M  V30 28 1 28 29
M  V30 29 1 29 30
M  V30 30 1 30 31
M  V30 31 1 11 6
M  V30 32 2 24 17
M  V30 33 1 31 8
M  V30 34 1 1 32
M  V30 35 1 1 33
M  V30 36 1 1 34
M  V30 37 1 2 35
M  V30 38 1 3 36
M  V30 39 1 7 37
M  V30 40 1 10 38
M  V30 41 1 13 39
M  V30 42 1 16 40
M  V30 43 1 18 41
M  V30 44 1 26 42
M  V30 45 1 26 43
M  V30 46 1 27 44
M  V30 47 1 27 45
M  V30 48 1 28 46
M  V30 49 1 28 47
M  V30 50 1 29 48
M  V30 51 1 29 49
M  V30 52 1 30 50
M  V30 53 1 30 51
M  V30 END BOND
M  V30 END CTAB
M  END
>  <Dataset>  (651) 
ChEMBL_Kinases

>  <Ligand_Instance>  (651) 
nan

>  <PDB_ID>  (651) 
nan

>  <Standardized_SMILES>  (651) 
CC(O)C#Cc1cc2c(cc1Cl)NC(=O)Nc1cnc(C#N)c(n1)OCCCCCO2

>  <Name>  (651) 
nan

>  <Pocket>  (651) 
nan

>  <ATP_Site>  (651) 
nan

>  <Peripheral>  (651) 
nan

>  <Num_H_Atoms_ProtBoundConf>  (651) 
nan

>  <Num_Resolved_Atoms>  (651) 
nan

>  <Num_Not_Resolved_Atoms>  (651) 
nan

$$$$
CHEMBL219637
     RDKit          3D

  0  0  0  0  0  0  0  0  0  0999 V3000
M  V30 BEGIN CTAB
M  V30 COUNTS 53 55 0 0 0
M  V30 BEGIN ATOM
M  V30 1 N 8.403598 -1.548486 0.445626 0
M  V30 2 C 7.326254 -1.881517 0.226439 0
M  V30 3 C 5.978969 -2.313833 -0.055944 0
M  V30 4 N 5.609469 -3.582519 -0.351156 0
M  V30 5 C 4.329873 -3.836787 -0.595010 0
M  V30 6 C 3.334986 -2.919433 -0.575652 0
M  V30 7 N 3.685553 -1.654502 -0.284279 0
M  V30 8 C 4.950471 -1.381944 -0.038698 0
M  V30 9 O 5.083512 -0.091131 0.229049 0
M  V30 10 C 4.862659 1.049799 0.810382 0
M  V30 11 C 3.596758 1.818966 0.773734 0
M  V30 12 C 2.370616 1.199834 1.306165 0
M  V30 13 C 1.187065 2.167081 1.265924 0
M  V30 14 C -0.082173 1.565610 1.751420 0
M  V30 15 O -0.552008 0.491734 1.031236 0
M  V30 16 C -1.671624 -0.282783 1.190432 0
M  V30 17 C -2.962563 0.028326 1.483134 0
M  V30 18 C -3.932238 -0.944112 1.591156 0
M  V30 19 C -5.346810 -0.603393 1.814805 0
M  V30 20 C -6.022626 -0.311675 0.507292 0
M  V30 21 O -7.393286 -0.033452 0.657815 0
M  V30 22 C -5.809986 -1.264588 -0.602492 0
M  V30 23 O -6.367522 -0.702729 -1.795676 0
M  V30 24 C -3.608264 -2.295140 1.406840 0
M  V30 25 Cl -4.728978 -3.641102 1.555944 0
M  V30 26 C -2.325458 -2.632257 1.116438 0
M  V30 27 C -1.391150 -1.667643 1.008469 0
M  V30 28 N -0.085005 -2.025938 0.657622 0
M  V30 29 C 0.956890 -2.523589 -0.101691 0
M  V30 30 O 0.393475 -2.978874 -1.054426 0
M  V30 31 N 1.936415 -2.982470 -0.798676 0
M  V30 32 H 3.955418 -4.824241 -0.844310 0
M  V30 33 H 5.708045 1.788929 0.490349 0
M  V30 34 H 5.133568 1.002961 1.951305 0
M  V30 35 H 3.779534 2.852751 1.178673 0
M  V30 36 H 3.399246 2.019711 -0.322039 0
M  V30 37 H 2.505994 0.899341 2.354866 0
M  V30 38 H 2.084012 0.366980 0.630562 0
M  V30 39 H 1.039526 2.576323 0.249237 0
M  V30 40 H 1.444143 2.985370 2.005069 0
M  V30 41 H -0.002928 1.428560 2.838505 0
M  V30 42 H -0.897759 2.365323 1.655223 0
M  V30 43 H -3.151052 1.062191 1.599210 0
M  V30 44 H -5.466801 0.230241 2.541804 0
M  V30 45 H -5.891315 -1.522409 2.199228 0
M  V30 46 H -5.629583 0.708647 0.117208 0
M  V30 47 H -7.792175 0.434655 -0.087676 0
M  V30 48 H -6.270381 -2.255962 -0.469815 0
M  V30 49 H -4.706013 -1.388509 -0.849674 0
M  V30 50 H -5.883701 -1.103814 -2.563972 0
M  V30 51 H -1.834171 -3.561537 0.960547 0
M  V30 52 H 0.265712 -1.793675 1.587622 0
M  V30 53 H 2.069874 -3.507274 -1.730547 0
M  V30 END ATOM
M  V30 BEGIN BOND
M  V30 1 3 1 2
M  V30 2 1 2 3
M  V30 3 2 3 4
M  V30 4 1 4 5
M  V30 5 2 5 6
M  V30 6 1 6 7
M  V30 7 2 7 8
M  V30 8 1 8 9
M  V30 9 1 9 10
M  V30 10 1 10 11
M  V30 11 1 11 12
M  V30 12 1 12 13
M  V30 13 1 13 14
M  V30 14 1 14 15
M  V30 15 1 15 16
M  V30 16 2 16 17
M  V30 17 1 17 18
M  V30 18 1 18 19
M  V30 19 1 19 20
M  V30 20 1 20 21
M  V30 21 1 20 22
M  V30 22 1 22 23
M  V30 23 2 18 24
M  V30 24 1 24 25
M  V30 25 1 24 26
M  V30 26 2 26 27
M  V30 27 1 27 28
M  V30 28 1 28 29
M  V30 29 2 29 30
M  V30 30 1 29 31
M  V30 31 1 8 3
M  V30 32 1 27 16
M  V30 33 1 31 6
M  V30 34 1 5 32
M  V30 35 1 10 33
M  V30 36 1 10 34
M  V30 37 1 11 35
M  V30 38 1 11 36
M  V30 39 1 12 37
M  V30 40 1 12 38
M  V30 41 1 13 39
M  V30 42 1 13 40
M  V30 43 1 14 41
M  V30 44 1 14 42
M  V30 45 1 17 43
M  V30 46 1 19 44
M  V30 47 1 19 45
M  V30 48 1 20 46
M  V30 49 1 21 47
M  V30 50 1 22 48
M  V30 51 1 22 49
M  V30 52 1 23 50
M  V30 53 1 26 51
M  V30 54 1 28 52
M  V30 55 1 31 53
M  V30 END BOND
M  V30 END CTAB
M  END
>  <Dataset>  (652) 
ChEMBL_Kinases

>  <Ligand_Instance>  (652) 
nan

>  <PDB_ID>  (652) 
nan

>  <Standardized_SMILES>  (652) 
N#Cc1ncc2nc1OCCCCCOc1cc(CC(O)CO)c(Cl)cc1NC(=O)N2

>  <Name>  (652) 
nan

>  <Pocket>  (652) 
nan

>  <ATP_Site>  (652) 
nan

>  <Peripheral>  (652) 
nan

>  <Num_H_Atoms_ProtBoundConf>  (652) 
nan

>  <Num_Resolved_Atoms>  (652) 
nan

>  <Num_Not_Resolved_Atoms>  (652) 
nan

$$$$
CHEMBL219682
     RDKit          3D

  0  0  0  0  0  0  0  0  0  0999 V3000
M  V30 BEGIN CTAB
M  V30 COUNTS 48 51 0 0 0
M  V30 BEGIN ATOM
M  V30 1 C 0.767584 -4.804612 -0.007936 0
M  V30 2 C 0.017244 -3.794089 0.783967 0
M  V30 3 C 0.513255 -2.824463 1.634901 0
M  V30 4 C 1.978630 -2.716387 1.842496 0
M  V30 5 N 2.700640 -2.124582 0.768308 0
M  V30 6 C 2.608252 -0.802331 0.262845 0
M  V30 7 C 3.369583 -0.360627 -0.818767 0
M  V30 8 C 3.294742 0.921493 -1.315176 0
M  V30 9 C 2.439297 1.840323 -0.743235 0
M  V30 10 N 2.381682 3.085905 -1.243674 0
M  V30 11 C 1.558243 3.996233 -0.705381 0
M  V30 12 C 0.756655 3.657074 0.376549 0
M  V30 13 C -0.109361 4.635236 0.932714 0
M  V30 14 N -0.836912 5.433221 1.395935 0
M  V30 15 C 0.803784 2.376254 0.905233 0
M  V30 16 N -0.006189 1.995467 2.015380 0
M  V30 17 C -1.275917 1.460756 1.728239 0
M  V30 18 C -1.693333 1.308618 0.419714 0
M  V30 19 C -2.927868 0.789718 0.107500 0
M  V30 20 C -3.745959 0.421111 1.177046 0
M  V30 21 F -4.983462 -0.100386 0.932371 0
M  V30 22 C -3.373398 0.554217 2.483770 0
M  V30 23 Cl -4.416454 0.085833 3.816569 0
M  V30 24 C -2.128845 1.077819 2.771675 0
M  V30 25 C 1.663956 1.461014 0.326591 0
M  V30 26 C 1.778407 0.166973 0.782595 0
M  V30 27 N -0.555439 -2.168548 2.105422 0
M  V30 28 C -1.678568 -2.665730 1.604002 0
M  V30 29 N -1.336792 -3.665561 0.790493 0
M  V30 30 C -2.221081 -4.507700 0.017409 0
M  V30 31 H 0.054273 -5.590827 -0.329993 0
M  V30 32 H 1.184507 -4.330364 -0.918231 0
M  V30 33 H 1.546312 -5.319464 0.599605 0
M  V30 34 H 2.114576 -2.132124 2.798703 0
M  V30 35 H 2.354577 -3.734153 2.057894 0
M  V30 36 H 3.405686 -2.735063 0.265591 0
M  V30 37 H 4.053648 -1.054533 -1.294516 0
M  V30 38 H 3.923088 1.179886 -2.159744 0
M  V30 39 H 1.512511 4.999807 -1.109617 0
M  V30 40 H 0.304743 2.097914 3.009759 0
M  V30 41 H -1.038603 1.602809 -0.386210 0
M  V30 42 H -3.299830 0.651287 -0.914515 0
M  V30 43 H -1.775986 1.208201 3.797007 0
M  V30 44 H 1.154403 -0.057049 1.614296 0
M  V30 45 H -2.698482 -2.356708 1.786662 0
M  V30 46 H -2.239274 -5.520061 0.507424 0
M  V30 47 H -1.887218 -4.668724 -1.012406 0
M  V30 48 H -3.267282 -4.140297 0.035458 0
M  V30 END ATOM
M  V30 BEGIN BOND
M  V30 1 1 1 2
M  V30 2 2 2 3
M  V30 3 1 3 4
M  V30 4 1 4 5
M  V30 5 1 5 6
M  V30 6 2 6 7
M  V30 7 1 7 8
M  V30 8 2 8 9
M  V30 9 1 9 10
M  V30 10 2 10 11
M  V30 11 1 11 12
M  V30 12 1 12 13
M  V30 13 3 13 14
M  V30 14 2 12 15
M  V30 15 1 15 16
M  V30 16 1 16 17
M  V30 17 2 17 18
M  V30 18 1 18 19
M  V30 19 2 19 20
M  V30 20 1 20 21
M  V30 21 1 20 22
M  V30 22 1 22 23
M  V30 23 2 22 24
M  V30 24 1 15 25
M  V30 25 2 25 26
M  V30 26 1 3 27
M  V30 27 2 27 28
M  V30 28 1 28 29
M  V30 29 1 29 30
M  V30 30 1 29 2
M  V30 31 1 26 6
M  V30 32 1 25 9
M  V30 33 1 24 17
M  V30 34 1 1 31
M  V30 35 1 1 32
M  V30 36 1 1 33
M  V30 37 1 4 34
M  V30 38 1 4 35
M  V30 39 1 5 36
M  V30 40 1 7 37
M  V30 41 1 8 38
M  V30 42 1 11 39
M  V30 43 1 16 40
M  V30 44 1 18 41
M  V30 45 1 19 42
M  V30 46 1 24 43
M  V30 47 1 26 44
M  V30 48 1 28 45
M  V30 49 1 30 46
M  V30 50 1 30 47
M  V30 51 1 30 48
M  V30 END BOND
M  V30 END CTAB
M  END
>  <Dataset>  (653) 
ChEMBL_Kinases

>  <Ligand_Instance>  (653) 
nan

>  <PDB_ID>  (653) 
nan

>  <Standardized_SMILES>  (653) 
Cc1c(CNc2ccc3ncc(C#N)c(Nc4ccc(F)c(Cl)c4)c3c2)ncn1C

>  <Name>  (653) 
nan

>  <Pocket>  (653) 
nan

>  <ATP_Site>  (653) 
nan

>  <Peripheral>  (653) 
nan

>  <Num_H_Atoms_ProtBoundConf>  (653) 
nan

>  <Num_Resolved_Atoms>  (653) 
nan

>  <Num_Not_Resolved_Atoms>  (653) 
nan

$$$$
CHEMBL219689
     RDKit          3D

  0  0  0  0  0  0  0  0  0  0999 V3000
M  V30 BEGIN CTAB
M  V30 COUNTS 61 63 0 0 0
M  V30 BEGIN ATOM
M  V30 1 C 6.374584 -0.187766 5.260312 0
M  V30 2 C 6.005273 0.978081 4.391010 0
M  V30 3 N 4.753490 0.745592 3.702094 0
M  V30 4 C 4.860502 -0.300226 2.707417 0
M  V30 5 C 5.739940 0.113713 1.546456 0
M  V30 6 C 4.244301 1.971121 3.172662 0
M  V30 7 C 2.943142 1.804062 2.486120 0
M  V30 8 C 1.866390 1.676648 1.939414 0
M  V30 9 C 0.583151 1.548410 1.299653 0
M  V30 10 C 0.394970 1.423518 -0.058691 0
M  V30 11 C -0.834328 1.297354 -0.661854 0
M  V30 12 C -1.960183 1.295998 0.157624 0
M  V30 13 C -1.744678 1.423616 1.513048 0
M  V30 14 C -0.500768 1.553581 2.152456 0
M  V30 15 Cl -0.332378 1.709293 3.887048 0
M  V30 16 N -3.349701 1.180494 -0.086990 0
M  V30 17 C -4.372392 0.230906 -0.258138 0
M  V30 18 O -3.326731 -0.444350 -0.052199 0
M  V30 19 N -5.429545 -0.674401 -0.436497 0
M  V30 20 C -5.533653 -2.089041 -0.426566 0
M  V30 21 C -6.523821 -2.783658 0.216813 0
M  V30 22 N -6.372416 -4.109003 0.064328 0
M  V30 23 C -5.355758 -4.629283 -0.642460 0
M  V30 24 C -5.392430 -6.088244 -0.668938 0
M  V30 25 N -5.403266 -7.259882 -0.697950 0
M  V30 26 C -4.347898 -3.902328 -1.296092 0
M  V30 27 N -4.559923 -2.620319 -1.105410 0
M  V30 28 O -3.468712 -4.671751 -1.914171 0
M  V30 29 C -2.493760 -4.665620 -2.868685 0
M  V30 30 C -1.339143 -3.698067 -2.619200 0
M  V30 31 C -1.714891 -2.300376 -2.892829 0
M  V30 32 C -0.764119 -1.250609 -2.302783 0
M  V30 33 C -1.419078 0.073927 -2.694400 0
M  V30 34 O -0.831949 1.182540 -2.053898 0
M  V30 35 H 7.455390 -0.478535 5.169456 0
M  V30 36 H 5.689620 -1.055527 5.108203 0
M  V30 37 H 6.267221 0.044690 6.358905 0
M  V30 38 H 5.780919 1.840382 5.088053 0
M  V30 39 H 6.817364 1.345658 3.753882 0
M  V30 40 H 3.844641 -0.474607 2.299852 0
M  V30 41 H 5.200896 -1.259135 3.145221 0
M  V30 42 H 5.379723 1.060200 1.122529 0
M  V30 43 H 5.631539 -0.669152 0.765232 0
M  V30 44 H 6.823682 0.119331 1.826116 0
M  V30 45 H 4.124608 2.659182 4.060631 0
M  V30 46 H 4.928421 2.507446 2.485843 0
M  V30 47 H 1.289188 1.427569 -0.668576 0
M  V30 48 H -2.596679 1.444139 2.213774 0
M  V30 49 H -3.600378 2.188115 -0.118414 0
M  V30 50 H -6.343493 -0.205085 -0.614520 0
M  V30 51 H -7.230736 -2.142084 0.720722 0
M  V30 52 H -2.095745 -5.683384 -3.091345 0
M  V30 53 H -2.973170 -4.328844 -3.839952 0
M  V30 54 H -0.868545 -3.879161 -1.639460 0
M  V30 55 H -0.553938 -3.997132 -3.372192 0
M  V30 56 H -2.714645 -1.977807 -2.636557 0
M  V30 57 H -1.612996 -2.084265 -4.026519 0
M  V30 58 H -0.613838 -1.360472 -1.231631 0
M  V30 59 H 0.199594 -1.400951 -2.823472 0
M  V30 60 H -1.163012 0.198322 -3.785656 0
M  V30 61 H -2.487666 -0.033443 -2.593395 0
M  V30 END ATOM
M  V30 BEGIN BOND
M  V30 1 1 1 2
M  V30 2 1 2 3
M  V30 3 1 3 4
M  V30 4 1 4 5
M  V30 5 1 3 6
M  V30 6 1 6 7
M  V30 7 3 7 8
M  V30 8 1 8 9
M  V30 9 2 9 10
M  V30 10 1 10 11
M  V30 11 2 11 12
M  V30 12 1 12 13
M  V30 13 2 13 14
M  V30 14 1 14 15
M  V30 15 1 12 16
M  V30 16 1 16 17
M  V30 17 2 17 18
M  V30 18 1 17 19
M  V30 19 1 19 20
M  V30 20 1 20 21
M  V30 21 2 21 22
M  V30 22 1 22 23
M  V30 23 1 23 24
M  V30 24 3 24 25
M  V30 25 2 23 26
M  V30 26 1 26 27
M  V30 27 1 26 28
M  V30 28 1 28 29
M  V30 29 1 29 30
M  V30 30 1 30 31
M  V30 31 1 31 32
M  V30 32 1 32 33
M  V30 33 1 33 34
M  V30 34 1 14 9
M  V30 35 2 27 20
M  V30 36 1 34 11
M  V30 37 1 1 35
M  V30 38 1 1 36
M  V30 39 1 1 37
M  V30 40 1 2 38
M  V30 41 1 2 39
M  V30 42 1 4 40
M  V30 43 1 4 41
M  V30 44 1 5 42
M  V30 45 1 5 43
M  V30 46 1 5 44
M  V30 47 1 6 45
M  V30 48 1 6 46
M  V30 49 1 10 47
M  V30 50 1 13 48
M  V30 51 1 16 49
M  V30 52 1 19 50
M  V30 53 1 21 51
M  V30 54 1 29 52
M  V30 55 1 29 53
M  V30 56 1 30 54
M  V30 57 1 30 55
M  V30 58 1 31 56
M  V30 59 1 31 57
M  V30 60 1 32 58
M  V30 61 1 32 59
M  V30 62 1 33 60
M  V30 63 1 33 61
M  V30 END BOND
M  V30 END CTAB
M  END
>  <Dataset>  (654) 
ChEMBL_Kinases

>  <Ligand_Instance>  (654) 
nan

>  <PDB_ID>  (654) 
nan

>  <Standardized_SMILES>  (654) 
CCN(CC)CC#Cc1cc2c(cc1Cl)NC(=O)Nc1cnc(C#N)c(n1)OCCCCCO2

>  <Name>  (654) 
nan

>  <Pocket>  (654) 
nan

>  <ATP_Site>  (654) 
nan

>  <Peripheral>  (654) 
nan

>  <Num_H_Atoms_ProtBoundConf>  (654) 
nan

>  <Num_Resolved_Atoms>  (654) 
nan

>  <Num_Not_Resolved_Atoms>  (654) 
nan

$$$$
CHEMBL219692
     RDKit          3D

  0  0  0  0  0  0  0  0  0  0999 V3000
M  V30 BEGIN CTAB
M  V30 COUNTS 42 45 0 0 0
M  V30 BEGIN ATOM
M  V30 1 N 2.493193 -7.925130 0.157918 0
M  V30 2 C 2.438157 -6.518246 0.056479 0
M  V30 3 C 1.517181 -5.803793 0.789899 0
M  V30 4 C 1.486900 -4.432132 0.670423 0
M  V30 5 C 2.319115 -3.692263 -0.140490 0
M  V30 6 N 2.292629 -2.283879 -0.292556 0
M  V30 7 C 1.256523 -1.347520 -0.056066 0
M  V30 8 C -0.093264 -1.619222 -0.029851 0
M  V30 9 C -1.093223 -0.706152 0.219417 0
M  V30 10 C -0.739798 0.597980 0.466350 0
M  V30 11 C 0.603575 0.925447 0.451496 0
M  V30 12 C 1.565520 -0.027998 0.196454 0
M  V30 13 C 1.165812 2.270981 0.693922 0
M  V30 14 C 0.644406 2.970382 1.889255 0
M  V30 15 C -0.724193 3.438717 1.873213 0
M  V30 16 C -0.951615 4.701364 2.437792 0
M  V30 17 C -2.227891 5.266379 2.484250 0
M  V30 18 C -3.290109 4.555282 1.957335 0
M  V30 19 C -3.123034 3.290965 1.381363 0
M  V30 20 C -1.838862 2.778387 1.361397 0
M  V30 21 C -1.903938 1.446769 0.712475 0
M  V30 22 O -2.999628 0.988378 0.339974 0
M  V30 23 C 3.224185 -4.444739 -0.855497 0
M  V30 24 C 3.291234 -5.816907 -0.768010 0
M  V30 25 H 3.339072 -8.530767 0.027123 0
M  V30 26 H 1.675168 -8.516549 0.379049 0
M  V30 27 H 0.855403 -6.346103 1.429343 0
M  V30 28 H 0.758011 -3.947180 1.274323 0
M  V30 29 H 3.197303 -1.860866 -0.640757 0
M  V30 30 H -0.436415 -2.619534 -0.226735 0
M  V30 31 H -2.132513 -0.983002 0.226042 0
M  V30 32 H 2.597794 0.338942 0.208730 0
M  V30 33 H 2.261748 2.155823 0.828860 0
M  V30 34 H 1.045023 2.922421 -0.197241 0
M  V30 35 H 1.304973 3.844886 2.074242 0
M  V30 36 H 0.810875 2.311158 2.786238 0
M  V30 37 H -0.078988 5.206172 2.832662 0
M  V30 38 H -2.356267 6.250824 2.933045 0
M  V30 39 H -4.275463 4.998647 1.996620 0
M  V30 40 H -3.956161 2.736240 0.969522 0
M  V30 41 H 3.935992 -3.973310 -1.531271 0
M  V30 42 H 4.006462 -6.393398 -1.335023 0
M  V30 END ATOM
M  V30 BEGIN BOND
M  V30 1 1 1 2
M  V30 2 2 2 3
M  V30 3 1 3 4
M  V30 4 2 4 5
M  V30 5 1 5 6
M  V30 6 1 6 7
M  V30 7 2 7 8
M  V30 8 1 8 9
M  V30 9 2 9 10
M  V30 10 1 10 11
M  V30 11 2 11 12
M  V30 12 1 11 13
M  V30 13 1 13 14
M  V30 14 1 14 15
M  V30 15 2 15 16
M  V30 16 1 16 17
M  V30 17 2 17 18
M  V30 18 1 18 19
M  V30 19 2 19 20
M  V30 20 1 20 21
M  V30 21 2 21 22
M  V30 22 1 5 23
M  V30 23 2 23 24
M  V30 24 1 24 2
M  V30 25 1 12 7
M  V30 26 1 20 15
M  V30 27 1 21 10
M  V30 28 1 1 25
M  V30 29 1 1 26
M  V30 30 1 3 27
M  V30 31 1 4 28
M  V30 32 1 6 29
M  V30 33 1 8 30
M  V30 34 1 9 31
M  V30 35 1 12 32
M  V30 36 1 13 33
M  V30 37 1 13 34
M  V30 38 1 14 35
M  V30 39 1 14 36
M  V30 40 1 16 37
M  V30 41 1 17 38
M  V30 42 1 18 39
M  V30 43 1 19 40
M  V30 44 1 23 41
M  V30 45 1 24 42
M  V30 END BOND
M  V30 END CTAB
M  END
>  <Dataset>  (655) 
ChEMBL_Kinases

>  <Ligand_Instance>  (655) 
nan

>  <PDB_ID>  (655) 
nan

>  <Standardized_SMILES>  (655) 
Nc1ccc(Nc2ccc3c(c2)CCc2ccccc2C3=O)cc1

>  <Name>  (655) 
nan

>  <Pocket>  (655) 
nan

>  <ATP_Site>  (655) 
nan

>  <Peripheral>  (655) 
nan

>  <Num_H_Atoms_ProtBoundConf>  (655) 
nan

>  <Num_Resolved_Atoms>  (655) 
nan

>  <Num_Not_Resolved_Atoms>  (655) 
nan

$$$$
CHEMBL219731
     RDKit          3D

  0  0  0  0  0  0  0  0  0  0999 V3000
M  V30 BEGIN CTAB
M  V30 COUNTS 56 61 0 0 0
M  V30 BEGIN ATOM
M  V30 1 C 5.596001 1.172051 3.761811 0
M  V30 2 C 5.593021 0.022148 2.824201 0
M  V30 3 O 5.662380 -1.166885 3.274896 0
M  V30 4 N 5.512660 0.247684 1.414791 0
M  V30 5 C 5.427808 1.557763 0.776377 0
M  V30 6 C 4.144395 1.532622 -0.053777 0
M  V30 7 N 4.132665 0.417773 -0.933750 0
M  V30 8 C 3.289877 0.495665 -2.073650 0
M  V30 9 C 1.885478 0.705912 -1.632719 0
M  V30 10 C 1.409408 1.993599 -1.505863 0
M  V30 11 C 0.109952 2.284475 -1.098349 0
M  V30 12 C -0.767654 1.258177 -0.799518 0
M  V30 13 N -2.044442 1.161860 -0.392157 0
M  V30 14 C -2.461728 -0.117474 -0.234681 0
M  V30 15 C -3.801914 -0.420268 0.190899 0
M  V30 16 N -4.733801 0.507331 0.462241 0
M  V30 17 N -5.875196 -0.041806 0.831143 0
M  V30 18 C -5.763862 -1.379791 0.825141 0
M  V30 19 C -6.646272 -2.388064 1.123571 0
M  V30 20 C -6.215797 -3.694049 1.018115 0
M  V30 21 C -7.102191 -4.808362 1.319418 0
M  V30 22 N -8.382209 -4.736371 1.713638 0
M  V30 23 N -8.868091 -5.947598 1.892702 0
M  V30 24 N -7.879697 -6.782835 1.606851 0
M  V30 25 N -6.782549 -6.113900 1.251663 0
M  V30 26 C -4.911480 -3.940237 0.615745 0
M  V30 27 C -4.064579 -2.898947 0.327565 0
M  V30 28 C -4.455616 -1.586532 0.420540 0
M  V30 29 C -1.340362 -0.822785 -0.577165 0
M  V30 30 C -0.275080 -0.022131 -0.931466 0
M  V30 31 C 1.011860 -0.313402 -1.335282 0
M  V30 32 C 4.218817 -0.826682 -0.265108 0
M  V30 33 C 5.513845 -0.895812 0.514802 0
M  V30 34 H 4.684735 1.806929 3.658399 0
M  V30 35 H 6.523398 1.772375 3.634627 0
M  V30 36 H 5.587546 0.784950 4.805192 0
M  V30 37 H 5.351906 2.386452 1.498293 0
M  V30 38 H 6.265489 1.690466 0.057765 0
M  V30 39 H 4.070158 2.505523 -0.531329 0
M  V30 40 H 3.284033 1.407980 0.646420 0
M  V30 41 H 3.375949 -0.469897 -2.617828 0
M  V30 42 H 3.567074 1.283885 -2.793832 0
M  V30 43 H 2.011356 2.882721 -1.714196 0
M  V30 44 H -0.247179 3.299180 -1.004185 0
M  V30 45 H -2.556205 2.066216 -0.247322 0
M  V30 46 H -6.695939 0.553666 1.075393 0
M  V30 47 H -7.660964 -2.140550 1.435442 0
M  V30 48 H -5.873756 -6.545603 0.980629 0
M  V30 49 H -4.598805 -4.955718 0.541038 0
M  V30 50 H -3.079406 -3.128127 0.025101 0
M  V30 51 H -1.272068 -1.894966 -0.577785 0
M  V30 52 H 1.340295 -1.339382 -1.420231 0
M  V30 53 H 3.383095 -0.905963 0.460764 0
M  V30 54 H 4.112298 -1.684326 -0.964532 0
M  V30 55 H 6.344568 -0.805311 -0.243422 0
M  V30 56 H 5.570279 -1.829497 1.085820 0
M  V30 END ATOM
M  V30 BEGIN BOND
M  V30 1 1 1 2
M  V30 2 2 2 3
M  V30 3 1 2 4
M  V30 4 1 4 5
M  V30 5 1 5 6
M  V30 6 1 6 7
M  V30 7 1 7 8
M  V30 8 1 8 9
M  V30 9 2 9 10
M  V30 10 1 10 11
M  V30 11 2 11 12
M  V30 12 1 12 13
M  V30 13 1 13 14
M  V30 14 1 14 15
M  V30 15 2 15 16
M  V30 16 1 16 17
M  V30 17 1 17 18
M  V30 18 2 18 19
M  V30 19 1 19 20
M  V30 20 1 20 21
M  V30 21 2 21 22
M  V30 22 1 22 23
M  V30 23 2 23 24
M  V30 24 1 24 25
M  V30 25 2 20 26
M  V30 26 1 26 27
M  V30 27 2 27 28
M  V30 28 2 14 29
M  V30 29 1 29 30
M  V30 30 2 30 31
M  V30 31 1 7 32
M  V30 32 1 32 33
M  V30 33 1 33 4
M  V30 34 1 31 9
M  V30 35 1 30 12
M  V30 36 1 28 15
M  V30 37 1 28 18
M  V30 38 1 25 21
M  V30 39 1 1 34
M  V30 40 1 1 35
M  V30 41 1 1 36
M  V30 42 1 5 37
M  V30 43 1 5 38
M  V30 44 1 6 39
M  V30 45 1 6 40
M  V30 46 1 8 41
M  V30 47 1 8 42
M  V30 48 1 10 43
M  V30 49 1 11 44
M  V30 50 1 13 45
M  V30 51 1 17 46
M  V30 52 1 19 47
M  V30 53 1 25 48
M  V30 54 1 26 49
M  V30 55 1 27 50
M  V30 56 1 29 51
M  V30 57 1 31 52
M  V30 58 1 32 53
M  V30 59 1 32 54
M  V30 60 1 33 55
M  V30 61 1 33 56
M  V30 END BOND
M  V30 END CTAB
M  END
>  <Dataset>  (656) 
ChEMBL_Kinases

>  <Ligand_Instance>  (656) 
nan

>  <PDB_ID>  (656) 
nan

>  <Standardized_SMILES>  (656) 
CC(=O)N1CCN(Cc2ccc3[nH]c(-c4n[nH]c5cc(-c6nnn[nH]6)ccc45)cc3c2)CC1

>  <Name>  (656) 
nan

>  <Pocket>  (656) 
nan

>  <ATP_Site>  (656) 
nan

>  <Peripheral>  (656) 
nan

>  <Num_H_Atoms_ProtBoundConf>  (656) 
nan

>  <Num_Resolved_Atoms>  (656) 
nan

>  <Num_Not_Resolved_Atoms>  (656) 
nan

$$$$
CHEMBL219804
     RDKit          3D

  0  0  0  0  0  0  0  0  0  0999 V3000
M  V30 BEGIN CTAB
M  V30 COUNTS 39 42 0 0 0
M  V30 BEGIN ATOM
M  V30 1 N 1.745731 -3.923592 0.187122 0
M  V30 2 C 1.075444 -2.726043 0.537282 0
M  V30 3 C 1.587638 -1.493124 0.189806 0
M  V30 4 C 0.799566 -0.441254 0.627742 0
M  V30 5 C -0.360282 -0.598018 1.332531 0
M  V30 6 C -1.000195 0.568572 1.667770 0
M  V30 7 C -0.581347 1.854028 1.358505 0
M  V30 8 C 0.591854 1.923084 0.648251 0
M  V30 9 O 0.978658 3.098112 0.361769 0
M  V30 10 N 1.262145 0.786716 0.295498 0
M  V30 11 C 2.442283 1.107111 -0.454139 0
M  V30 12 C 2.030955 1.378172 -1.755100 0
M  V30 13 F 0.790854 1.361079 -2.298410 0
M  V30 14 C 3.004070 1.727406 -2.704274 0
M  V30 15 C 4.339222 1.800868 -2.356351 0
M  V30 16 C 4.695179 1.521509 -1.041813 0
M  V30 17 C 3.763722 1.173598 -0.078923 0
M  V30 18 F 3.977810 0.880062 1.214934 0
M  V30 19 C -0.824129 -1.852331 1.654365 0
M  V30 20 C -2.091316 -1.871581 2.378413 0
M  V30 21 C -2.266809 -1.389814 3.640944 0
M  V30 22 C -3.550857 -1.518469 4.196542 0
M  V30 23 C -4.559672 -2.108853 3.470731 0
M  V30 24 F -5.800993 -2.201054 4.075073 0
M  V30 25 C -4.372764 -2.601151 2.176113 0
M  V30 26 C -3.090785 -2.468572 1.630437 0
M  V30 27 F -2.987091 -2.957303 0.387509 0
M  V30 28 N -0.081930 -2.903813 1.239645 0
M  V30 29 H 2.705517 -4.285202 0.333858 0
M  V30 30 H 1.649565 -4.848183 -0.279915 0
M  V30 31 H 2.499083 -1.371251 -0.360964 0
M  V30 32 H -1.944268 0.531429 2.231942 0
M  V30 33 H -1.160541 2.723866 1.665581 0
M  V30 34 H 2.817814 1.962921 -3.751446 0
M  V30 35 H 5.120088 2.068409 -3.064567 0
M  V30 36 H 5.717844 1.556450 -0.683591 0
M  V30 37 H -1.415808 -0.939987 4.149452 0
M  V30 38 H -3.672689 -1.129135 5.203665 0
M  V30 39 H -5.246603 -3.035466 1.720125 0
M  V30 END ATOM
M  V30 BEGIN BOND
M  V30 1 1 1 2
M  V30 2 2 2 3
M  V30 3 1 3 4
M  V30 4 2 4 5
M  V30 5 1 5 6
M  V30 6 2 6 7
M  V30 7 1 7 8
M  V30 8 2 8 9
M  V30 9 1 8 10
M  V30 10 1 10 11
M  V30 11 2 11 12
M  V30 12 1 12 13
M  V30 13 1 12 14
M  V30 14 2 14 15
M  V30 15 1 15 16
M  V30 16 2 16 17
M  V30 17 1 17 18
M  V30 18 1 5 19
M  V30 19 1 19 20
M  V30 20 2 20 21
M  V30 21 1 21 22
M  V30 22 2 22 23
M  V30 23 1 23 24
M  V30 24 1 23 25
M  V30 25 2 25 26
M  V30 26 1 26 27
M  V30 27 2 19 28
M  V30 28 1 28 2
M  V30 29 1 10 4
M  V30 30 1 17 11
M  V30 31 1 26 20
M  V30 32 1 1 29
M  V30 33 1 1 30
M  V30 34 1 3 31
M  V30 35 1 6 32
M  V30 36 1 7 33
M  V30 37 1 14 34
M  V30 38 1 15 35
M  V30 39 1 16 36
M  V30 40 1 21 37
M  V30 41 1 22 38
M  V30 42 1 25 39
M  V30 END BOND
M  V30 END CTAB
M  END
>  <Dataset>  (657) 
ChEMBL_Kinases

>  <Ligand_Instance>  (657) 
nan

>  <PDB_ID>  (657) 
nan

>  <Standardized_SMILES>  (657) 
Nc1cc2c(ccc(=O)n2-c2c(F)cccc2F)c(-c2ccc(F)cc2F)n1

>  <Name>  (657) 
nan

>  <Pocket>  (657) 
nan

>  <ATP_Site>  (657) 
nan

>  <Peripheral>  (657) 
nan

>  <Num_H_Atoms_ProtBoundConf>  (657) 
nan

>  <Num_Resolved_Atoms>  (657) 
nan

>  <Num_Not_Resolved_Atoms>  (657) 
nan

$$$$
CHEMBL219841
     RDKit          3D

  0  0  0  0  0  0  0  0  0  0999 V3000
M  V30 BEGIN CTAB
M  V30 COUNTS 37 39 0 0 0
M  V30 BEGIN ATOM
M  V30 1 C 0.819312 -4.797358 3.853655 0
M  V30 2 N 0.460809 -4.097100 2.622690 0
M  V30 3 C -0.485024 -4.675340 1.686459 0
M  V30 4 C 1.072313 -2.842520 2.386696 0
M  V30 5 O 1.881197 -2.367902 3.220325 0
M  V30 6 C 0.867713 -1.979924 1.234631 0
M  V30 7 C 1.824571 -1.262652 0.572530 0
M  V30 8 C 1.194409 -0.587631 -0.446894 0
M  V30 9 C 1.555107 0.361256 -1.519305 0
M  V30 10 N 2.448585 0.311317 -2.548211 0
M  V30 11 N 2.376841 1.440222 -3.225542 0
M  V30 12 C 1.452522 2.285796 -2.696294 0
M  V30 13 C 0.910273 1.617566 -1.599635 0
M  V30 14 C -0.134837 1.997206 -0.614402 0
M  V30 15 C -1.454264 2.275361 -0.840112 0
M  V30 16 C -2.228366 2.586422 0.246228 0
M  V30 17 C -1.694261 2.615319 1.510789 0
M  V30 18 C -0.357073 2.334649 1.757064 0
M  V30 19 C 0.429045 2.018753 0.649550 0
M  V30 20 C -0.158412 -0.948271 -0.341915 0
M  V30 21 N -0.350802 -1.803689 0.692204 0
M  V30 22 H 1.536598 -5.621284 3.639003 0
M  V30 23 H -0.085480 -5.200177 4.355349 0
M  V30 24 H 1.276036 -4.095997 4.587509 0
M  V30 25 H -1.541029 -4.407339 1.898925 0
M  V30 26 H -0.299306 -4.388772 0.635969 0
M  V30 27 H -0.434171 -5.788234 1.767003 0
M  V30 28 H 2.869994 -1.151651 0.701950 0
M  V30 29 H 2.902351 1.758596 -4.068358 0
M  V30 30 H 1.059880 3.268240 -2.891978 0
M  V30 31 H -1.748744 2.214436 -1.859765 0
M  V30 32 H -3.283030 2.804290 0.063673 0
M  V30 33 H -2.366704 2.866153 2.309083 0
M  V30 34 H 0.073209 2.351272 2.772014 0
M  V30 35 H 1.470976 1.806463 0.907954 0
M  V30 36 H -0.999028 -0.636483 -0.954584 0
M  V30 37 H -1.263564 -2.217420 0.978713 0
M  V30 END ATOM
M  V30 BEGIN BOND
M  V30 1 1 1 2
M  V30 2 1 2 3
M  V30 3 1 2 4
M  V30 4 2 4 5
M  V30 5 1 4 6
M  V30 6 2 6 7
M  V30 7 1 7 8
M  V30 8 1 8 9
M  V30 9 2 9 10
M  V30 10 1 10 11
M  V30 11 1 11 12
M  V30 12 2 12 13
M  V30 13 1 13 14
M  V30 14 2 14 15
M  V30 15 1 15 16
M  V30 16 2 16 17
M  V30 17 1 17 18
M  V30 18 2 18 19
M  V30 19 2 8 20
M  V30 20 1 20 21
M  V30 21 1 21 6
M  V30 22 1 13 9
M  V30 23 1 19 14
M  V30 24 1 1 22
M  V30 25 1 1 23
M  V30 26 1 1 24
M  V30 27 1 3 25
M  V30 28 1 3 26
M  V30 29 1 3 27
M  V30 30 1 7 28
M  V30 31 1 11 29
M  V30 32 1 12 30
M  V30 33 1 15 31
M  V30 34 1 16 32
M  V30 35 1 17 33
M  V30 36 1 18 34
M  V30 37 1 19 35
M  V30 38 1 20 36
M  V30 39 1 21 37
M  V30 END BOND
M  V30 END CTAB
M  END
>  <Dataset>  (658) 
ChEMBL_Kinases

>  <Ligand_Instance>  (658) 
nan

>  <PDB_ID>  (658) 
nan

>  <Standardized_SMILES>  (658) 
CN(C)C(=O)c1cc(-c2n[nH]cc2-c2ccccc2)c[nH]1

>  <Name>  (658) 
nan

>  <Pocket>  (658) 
nan

>  <ATP_Site>  (658) 
nan

>  <Peripheral>  (658) 
nan

>  <Num_H_Atoms_ProtBoundConf>  (658) 
nan

>  <Num_Resolved_Atoms>  (658) 
nan

>  <Num_Not_Resolved_Atoms>  (658) 
nan

$$$$
CHEMBL220032
     RDKit          3D

  0  0  0  0  0  0  0  0  0  0999 V3000
M  V30 BEGIN CTAB
M  V30 COUNTS 49 52 0 0 0
M  V30 BEGIN ATOM
M  V30 1 C 0.865943 -6.907207 3.516819 0
M  V30 2 O 0.076441 -5.761988 3.250562 0
M  V30 3 C 0.343025 -4.910485 2.187425 0
M  V30 4 C 1.390716 -5.079913 1.283226 0
M  V30 5 C 1.568328 -4.159271 0.245867 0
M  V30 6 N 2.497855 -4.126604 -0.726734 0
M  V30 7 C 2.269630 -3.047739 -1.500070 0
M  V30 8 N 1.210126 -2.431834 -0.999692 0
M  V30 9 C 0.535780 -1.185401 -1.477044 0
M  V30 10 C 0.857028 -0.009496 -0.983224 0
M  V30 11 C 0.298808 1.155140 -1.357686 0
M  V30 12 O 0.198599 2.506791 -1.253241 0
M  V30 13 C 0.884285 3.369915 -0.435666 0
M  V30 14 C 0.737622 3.223194 1.034276 0
M  V30 15 C -0.678605 3.528725 1.483167 0
M  V30 16 C -0.639981 2.945601 2.891709 0
M  V30 17 C 0.293865 1.791350 2.691540 0
M  V30 18 O 1.110533 2.053116 1.605613 0
M  V30 19 C -0.682575 1.006900 -2.348069 0
M  V30 20 C -1.715663 1.620103 -3.274807 0
M  V30 21 N -1.785931 3.028940 -3.132207 0
M  V30 22 O -2.487537 1.096689 -4.114841 0
M  V30 23 S -0.673214 -0.881609 -2.623432 0
M  V30 24 C 0.718447 -3.066904 0.090091 0
M  V30 25 C -0.321784 -2.898290 0.987477 0
M  V30 26 C -0.482119 -3.819038 2.007442 0
M  V30 27 O -1.536523 -3.618696 2.889684 0
M  V30 28 C -2.434564 -2.558301 2.812615 0
M  V30 29 H 1.928721 -6.790878 3.269300 0
M  V30 30 H 0.810695 -7.168216 4.613748 0
M  V30 31 H 0.452881 -7.824706 3.003742 0
M  V30 32 H 2.038780 -5.934323 1.421821 0
M  V30 33 H 2.798680 -2.681490 -2.377384 0
M  V30 34 H 1.608921 0.180102 -0.227066 0
M  V30 35 H 0.559819 4.427191 -0.679053 0
M  V30 36 H 1.977161 3.287929 -0.686252 0
M  V30 37 H 1.369476 4.029746 1.501259 0
M  V30 38 H -1.364019 2.988447 0.820769 0
M  V30 39 H -0.809791 4.611630 1.486502 0
M  V30 40 H -0.200727 3.719587 3.545648 0
M  V30 41 H -1.642568 2.617586 3.229674 0
M  V30 42 H 0.825578 1.606197 3.629952 0
M  V30 43 H -0.345168 0.902829 2.457552 0
M  V30 44 H -1.839181 4.047904 -3.029548 0
M  V30 45 H -1.093479 3.780586 -2.911448 0
M  V30 46 H -0.967485 -2.042289 0.844927 0
M  V30 47 H -2.968527 -2.443318 1.868149 0
M  V30 48 H -3.132023 -2.659833 3.690853 0
M  V30 49 H -1.833380 -1.625819 3.021655 0
M  V30 END ATOM
M  V30 BEGIN BOND
M  V30 1 1 1 2
M  V30 2 1 2 3
M  V30 3 2 3 4
M  V30 4 1 4 5
M  V30 5 1 5 6
M  V30 6 2 6 7
M  V30 7 1 7 8
M  V30 8 1 8 9
M  V30 9 2 9 10
M  V30 10 1 10 11
M  V30 11 1 11 12
M  V30 12 1 12 13
M  V30 13 1 13 14
M  V30 14 1 14 15
M  V30 15 1 15 16
M  V30 16 1 16 17
M  V30 17 1 17 18
M  V30 18 2 11 19
M  V30 19 1 19 20
M  V30 20 1 20 21
M  V30 21 2 20 22
M  V30 22 1 19 23
M  V30 23 1 8 24
M  V30 24 1 24 25
M  V30 25 2 25 26
M  V30 26 1 26 27
M  V30 27 1 27 28
M  V30 28 1 26 3
M  V30 29 2 24 5
M  V30 30 1 23 9
M  V30 31 1 18 14
M  V30 32 1 1 29
M  V30 33 1 1 30
M  V30 34 1 1 31
M  V30 35 1 4 32
M  V30 36 1 7 33
M  V30 37 1 10 34
M  V30 38 1 13 35
M  V30 39 1 13 36
M  V30 40 1 14 37
M  V30 41 1 15 38
M  V30 42 1 15 39
M  V30 43 1 16 40
M  V30 44 1 16 41
M  V30 45 1 17 42
M  V30 46 1 17 43
M  V30 47 1 21 44
M  V30 48 1 21 45
M  V30 49 1 25 46
M  V30 50 1 28 47
M  V30 51 1 28 48
M  V30 52 1 28 49
M  V30 END BOND
M  V30 END CTAB
M  END
>  <Dataset>  (659) 
ChEMBL_Kinases

>  <Ligand_Instance>  (659) 
nan

>  <PDB_ID>  (659) 
nan

>  <Standardized_SMILES>  (659) 
COc1cc2ncn(-c3cc(OCC4CCCO4)c(C(N)=O)s3)c2cc1OC

>  <Name>  (659) 
nan

>  <Pocket>  (659) 
nan

>  <ATP_Site>  (659) 
nan

>  <Peripheral>  (659) 
nan

>  <Num_H_Atoms_ProtBoundConf>  (659) 
nan

>  <Num_Resolved_Atoms>  (659) 
nan

>  <Num_Not_Resolved_Atoms>  (659) 
nan

$$$$
CHEMBL219875
     RDKit          3D

  0  0  0  0  0  0  0  0  0  0999 V3000
M  V30 BEGIN CTAB
M  V30 COUNTS 57 59 0 0 0
M  V30 BEGIN ATOM
M  V30 1 C 4.596947 -4.468025 4.253441 0
M  V30 2 N 4.251820 -4.186597 2.860923 0
M  V30 3 C 3.523627 -5.353350 2.372862 0
M  V30 4 C 3.324900 -3.048146 2.818384 0
M  V30 5 C 4.016732 -1.796384 3.238725 0
M  V30 6 O 3.189944 -0.697721 3.222904 0
M  V30 7 C 2.515826 -0.084592 2.222753 0
M  V30 8 C 2.357375 -0.229488 0.864158 0
M  V30 9 C 1.592136 0.550804 0.036610 0
M  V30 10 C 0.899445 1.596304 0.607884 0
M  V30 11 C 1.024209 1.791726 1.988077 0
M  V30 12 C 1.821117 0.972572 2.822427 0
M  V30 13 Cl 1.840073 1.392153 4.553044 0
M  V30 14 N 0.037397 2.594567 0.092475 0
M  V30 15 C -1.317336 2.739785 -0.226497 0
M  V30 16 O -1.230969 1.567842 0.190042 0
M  V30 17 N -2.639651 3.004773 -0.579627 0
M  V30 18 C -3.863357 2.312525 -0.619353 0
M  V30 19 C -5.019201 2.456350 0.100052 0
M  V30 20 N -6.044807 1.630545 -0.183591 0
M  V30 21 C -5.847235 0.725479 -1.157783 0
M  V30 22 C -6.919312 -0.168806 -1.493487 0
M  V30 23 N -7.805078 -0.886728 -1.767134 0
M  V30 24 C -4.716291 0.528664 -1.915449 0
M  V30 25 N -3.714285 1.391889 -1.583682 0
M  V30 26 O -4.394895 -0.330903 -2.909934 0
M  V30 27 C -3.958441 -1.660090 -2.850850 0
M  V30 28 C -2.686158 -1.818363 -2.054642 0
M  V30 29 C -1.570309 -0.999447 -2.637750 0
M  V30 30 C -0.390401 -1.053939 -1.684409 0
M  V30 31 C 0.634810 -0.067158 -2.165494 0
M  V30 32 O 1.693743 0.092315 -1.261207 0
M  V30 33 H 5.574165 -4.001921 4.441057 0
M  V30 34 H 3.844512 -3.941950 4.913975 0
M  V30 35 H 4.601894 -5.550827 4.424658 0
M  V30 36 H 2.704201 -5.649604 3.082924 0
M  V30 37 H 4.175830 -6.215494 2.174680 0
M  V30 38 H 2.991070 -5.062806 1.422935 0
M  V30 39 H 2.991495 -2.976256 1.778598 0
M  V30 40 H 2.441545 -3.280186 3.447648 0
M  V30 41 H 4.507194 -1.924564 4.253615 0
M  V30 42 H 4.906308 -1.674317 2.557906 0
M  V30 43 H 2.952383 -1.061525 0.526712 0
M  V30 44 H 0.487550 2.621095 2.452291 0
M  V30 45 H 0.689698 3.389172 -0.035816 0
M  V30 46 H -2.969937 3.910156 -0.947239 0
M  V30 47 H -4.809309 3.264007 0.772243 0
M  V30 48 H -4.747379 -2.250553 -2.347454 0
M  V30 49 H -3.783879 -2.054798 -3.859404 0
M  V30 50 H -2.848997 -1.656691 -0.969430 0
M  V30 51 H -2.381615 -2.887782 -2.130168 0
M  V30 52 H -1.832469 0.010606 -2.909563 0
M  V30 53 H -1.215516 -1.596817 -3.537987 0
M  V30 54 H 0.101849 -2.069200 -1.741236 0
M  V30 55 H -0.741136 -0.863886 -0.674194 0
M  V30 56 H 1.043891 -0.416429 -3.149778 0
M  V30 57 H 0.176292 0.928264 -2.409755 0
M  V30 END ATOM
M  V30 BEGIN BOND
M  V30 1 1 1 2
M  V30 2 1 2 3
M  V30 3 1 2 4
M  V30 4 1 4 5
M  V30 5 1 5 6
M  V30 6 1 6 7
M  V30 7 2 7 8
M  V30 8 1 8 9
M  V30 9 2 9 10
M  V30 10 1 10 11
M  V30 11 2 11 12
M  V30 12 1 12 13
M  V30 13 1 10 14
M  V30 14 1 14 15
M  V30 15 2 15 16
M  V30 16 1 15 17
M  V30 17 1 17 18
M  V30 18 1 18 19
M  V30 19 2 19 20
M  V30 20 1 20 21
M  V30 21 1 21 22
M  V30 22 3 22 23
M  V30 23 2 21 24
M  V30 24 1 24 25
M  V30 25 1 24 26
M  V30 26 1 26 27
M  V30 27 1 27 28
M  V30 28 1 28 29
M  V30 29 1 29 30
M  V30 30 1 30 31
M  V30 31 1 31 32
M  V30 32 1 12 7
M  V30 33 2 25 18
M  V30 34 1 32 9
M  V30 35 1 1 33
M  V30 36 1 1 34
M  V30 37 1 1 35
M  V30 38 1 3 36
M  V30 39 1 3 37
M  V30 40 1 3 38
M  V30 41 1 4 39
M  V30 42 1 4 40
M  V30 43 1 5 41
M  V30 44 1 5 42
M  V30 45 1 8 43
M  V30 46 1 11 44
M  V30 47 1 14 45
M  V30 48 1 17 46
M  V30 49 1 19 47
M  V30 50 1 27 48
M  V30 51 1 27 49
M  V30 52 1 28 50
M  V30 53 1 28 51
M  V30 54 1 29 52
M  V30 55 1 29 53
M  V30 56 1 30 54
M  V30 57 1 30 55
M  V30 58 1 31 56
M  V30 59 1 31 57
M  V30 END BOND
M  V30 END CTAB
M  END
>  <Dataset>  (660) 
ChEMBL_Kinases

>  <Ligand_Instance>  (660) 
nan

>  <PDB_ID>  (660) 
nan

>  <Standardized_SMILES>  (660) 
CN(C)CCOc1cc2c(cc1Cl)NC(=O)Nc1cnc(C#N)c(n1)OCCCCCO2

>  <Name>  (660) 
nan

>  <Pocket>  (660) 
nan

>  <ATP_Site>  (660) 
nan

>  <Peripheral>  (660) 
nan

>  <Num_H_Atoms_ProtBoundConf>  (660) 
nan

>  <Num_Resolved_Atoms>  (660) 
nan

>  <Num_Not_Resolved_Atoms>  (660) 
nan

$$$$
CHEMBL219899
     RDKit          3D

  0  0  0  0  0  0  0  0  0  0999 V3000
M  V30 BEGIN CTAB
M  V30 COUNTS 54 57 0 0 0
M  V30 BEGIN ATOM
M  V30 1 C 1.270047 -6.980702 3.869651 0
M  V30 2 O 0.635528 -6.482035 2.699818 0
M  V30 3 C 1.012006 -5.211652 2.263841 0
M  V30 4 C 1.967996 -4.511003 2.966521 0
M  V30 5 C 2.378635 -3.227652 2.565085 0
M  V30 6 N 3.247273 -2.268665 2.967856 0
M  V30 7 C 3.157880 -1.210506 2.096377 0
M  V30 8 N 2.271410 -1.550945 1.226178 0
M  V30 9 C 2.101127 -0.520139 0.253018 0
M  V30 10 C 1.606427 0.700175 0.209525 0
M  V30 11 C 1.602125 1.425614 -0.928316 0
M  V30 12 O 1.178509 2.669111 -1.279706 0
M  V30 13 C 0.578406 3.694977 -0.606890 0
M  V30 14 C -0.735422 3.297713 -0.062713 0
M  V30 15 C -1.040453 2.835150 1.182108 0
M  V30 16 C -2.276131 2.470710 1.642202 0
M  V30 17 C -3.356364 2.575295 0.764472 0
M  V30 18 S -4.905715 2.101755 1.415865 0
M  V30 19 C -5.195898 0.385627 1.143501 0
M  V30 20 O -6.026216 2.921950 0.791845 0
M  V30 21 O -4.979566 2.357404 2.898547 0
M  V30 22 C -3.114145 3.033881 -0.498390 0
M  V30 23 C -1.837818 3.392653 -0.922789 0
M  V30 24 C 2.156118 0.802940 -2.061690 0
M  V30 25 C 2.368044 1.157393 -3.464345 0
M  V30 26 N 3.029668 0.244753 -4.325636 0
M  V30 27 O 1.950739 2.268794 -3.856512 0
M  V30 28 S 2.653223 -0.810347 -1.399914 0
M  V30 29 C 1.744082 -2.766779 1.437208 0
M  V30 30 C 0.775252 -3.381450 0.655572 0
M  V30 31 C 0.436315 -4.655307 1.140616 0
M  V30 32 O -0.516349 -5.363694 0.446687 0
M  V30 33 C -1.123552 -4.827419 -0.707069 0
M  V30 34 H 1.186607 -6.202325 4.669339 0
M  V30 35 H 2.318831 -7.254239 3.739386 0
M  V30 36 H 0.718089 -7.863113 4.290553 0
M  V30 37 H 2.471622 -4.873955 3.857333 0
M  V30 38 H 3.932382 -0.608320 2.647777 0
M  V30 39 H 1.221563 1.049175 1.150273 0
M  V30 40 H 0.366080 4.533411 -1.321621 0
M  V30 41 H 1.214097 4.141174 0.205870 0
M  V30 42 H -0.210342 2.759838 1.872486 0
M  V30 43 H -2.397602 2.110501 2.671545 0
M  V30 44 H -5.776855 0.198680 0.200267 0
M  V30 45 H -5.755172 -0.062391 1.995203 0
M  V30 46 H -4.241394 -0.175890 0.965812 0
M  V30 47 H -3.982579 3.097769 -1.142250 0
M  V30 48 H -1.804692 3.735359 -1.941771 0
M  V30 49 H 3.756944 0.789233 -4.851804 0
M  V30 50 H 3.439858 -0.480049 -4.904508 0
M  V30 51 H 0.362202 -2.899328 -0.209978 0
M  V30 52 H -1.863397 -5.573779 -1.117969 0
M  V30 53 H -1.674089 -3.893744 -0.384192 0
M  V30 54 H -0.404375 -4.619059 -1.505574 0
M  V30 END ATOM
M  V30 BEGIN BOND
M  V30 1 1 1 2
M  V30 2 1 2 3
M  V30 3 2 3 4
M  V30 4 1 4 5
M  V30 5 1 5 6
M  V30 6 2 6 7
M  V30 7 1 7 8
M  V30 8 1 8 9
M  V30 9 2 9 10
M  V30 10 1 10 11
M  V30 11 1 11 12
M  V30 12 1 12 13
M  V30 13 1 13 14
M  V30 14 2 14 15
M  V30 15 1 15 16
M  V30 16 2 16 17
M  V30 17 1 17 18
M  V30 18 1 18 19
M  V30 19 2 18 20
M  V30 20 2 18 21
M  V30 21 1 17 22
M  V30 22 2 22 23
M  V30 23 2 11 24
M  V30 24 1 24 25
M  V30 25 1 25 26
M  V30 26 2 25 27
M  V30 27 1 24 28
M  V30 28 1 8 29
M  V30 29 1 29 30
M  V30 30 2 30 31
M  V30 31 1 31 32
M  V30 32 1 32 33
M  V30 33 1 31 3
M  V30 34 2 29 5
M  V30 35 1 28 9
M  V30 36 1 23 14
M  V30 37 1 1 34
M  V30 38 1 1 35
M  V30 39 1 1 36
M  V30 40 1 4 37
M  V30 41 1 7 38
M  V30 42 1 10 39
M  V30 43 1 13 40
M  V30 44 1 13 41
M  V30 45 1 15 42
M  V30 46 1 16 43
M  V30 47 1 19 44
M  V30 48 1 19 45
M  V30 49 1 19 46
M  V30 50 1 22 47
M  V30 51 1 23 48
M  V30 52 1 26 49
M  V30 53 1 26 50
M  V30 54 1 30 51
M  V30 55 1 33 52
M  V30 56 1 33 53
M  V30 57 1 33 54
M  V30 END BOND
M  V30 END CTAB
M  END
>  <Dataset>  (661) 
ChEMBL_Kinases

>  <Ligand_Instance>  (661) 
nan

>  <PDB_ID>  (661) 
nan

>  <Standardized_SMILES>  (661) 
COc1cc2ncn(-c3cc(OCc4ccc(S(C)(=O)=O)cc4)c(C(N)=O)s3)c2cc1OC

>  <Name>  (661) 
nan

>  <Pocket>  (661) 
nan

>  <ATP_Site>  (661) 
nan

>  <Peripheral>  (661) 
nan

>  <Num_H_Atoms_ProtBoundConf>  (661) 
nan

>  <Num_Resolved_Atoms>  (661) 
nan

>  <Num_Not_Resolved_Atoms>  (661) 
nan

$$$$
CHEMBL219928
     RDKit          3D

  0  0  0  0  0  0  0  0  0  0999 V3000
M  V30 BEGIN CTAB
M  V30 COUNTS 58 60 0 0 0
M  V30 BEGIN ATOM
M  V30 1 C 4.346307 -0.216025 4.760689 0
M  V30 2 C 3.465454 -0.748414 3.680439 0
M  V30 3 C 3.328500 -2.255895 3.914688 0
M  V30 4 C 4.005307 -0.552427 2.294725 0
M  V30 5 C 4.234576 0.859520 1.904877 0
M  V30 6 O 3.127352 1.699402 1.924406 0
M  V30 7 C 1.967030 1.714125 1.255985 0
M  V30 8 C 1.445964 0.892577 0.286497 0
M  V30 9 C 0.228485 1.001707 -0.339577 0
M  V30 10 C -0.565312 2.050215 0.040584 0
M  V30 11 C -0.109258 2.927690 1.016694 0
M  V30 12 C 1.141423 2.787508 1.638159 0
M  V30 13 Cl 1.646190 3.951888 2.875432 0
M  V30 14 N -1.859589 2.468461 -0.376262 0
M  V30 15 C -3.028672 1.766759 -0.694120 0
M  V30 16 O -2.254911 0.823542 -0.414860 0
M  V30 17 N -4.317680 1.242357 -1.058216 0
M  V30 18 C -4.604077 -0.171768 -1.148876 0
M  V30 19 C -5.653465 -0.484293 -1.974428 0
M  V30 20 N -5.900022 -1.797100 -2.124025 0
M  V30 21 C -5.129435 -2.683201 -1.478021 0
M  V30 22 C -5.376179 -4.113269 -1.626524 0
M  V30 23 N -5.576348 -5.266062 -1.730402 0
M  V30 24 C -4.056047 -2.364018 -0.632897 0
M  V30 25 N -3.849360 -1.051209 -0.513461 0
M  V30 26 O -3.238504 -3.214360 0.048496 0
M  V30 27 C -2.158518 -3.968536 -0.304373 0
M  V30 28 C -0.936555 -3.302680 -0.827268 0
M  V30 29 C -1.083667 -2.553078 -2.105696 0
M  V30 30 C 0.247209 -1.976306 -2.601353 0
M  V30 31 C 0.788640 -1.042637 -1.550959 0
M  V30 32 O -0.050303 0.037114 -1.277659 0
M  V30 33 H 3.774919 -0.329668 5.716050 0
M  V30 34 H 5.259479 -0.854351 4.913804 0
M  V30 35 H 4.581398 0.854179 4.666087 0
M  V30 36 H 2.445985 -0.328325 3.776070 0
M  V30 37 H 3.191775 -2.798177 2.962240 0
M  V30 38 H 2.468270 -2.444751 4.582174 0
M  V30 39 H 4.224469 -2.605267 4.469052 0
M  V30 40 H 3.353525 -1.058970 1.570434 0
M  V30 41 H 4.981000 -1.129047 2.234147 0
M  V30 42 H 5.125494 1.318720 2.389594 0
M  V30 43 H 4.546741 0.818247 0.810202 0
M  V30 44 H 2.105747 0.092175 0.010085 0
M  V30 45 H -0.688005 3.794384 1.375659 0
M  V30 46 H -2.115745 3.468309 -0.511354 0
M  V30 47 H -5.028245 1.970967 -1.294975 0
M  V30 48 H -6.215242 0.319928 -2.452530 0
M  V30 49 H -1.867398 -4.578577 0.617699 0
M  V30 50 H -2.536761 -4.758656 -1.037665 0
M  V30 51 H -0.533327 -2.640398 -0.004564 0
M  V30 52 H -0.146319 -4.111889 -0.904435 0
M  V30 53 H -1.486996 -3.220529 -2.924268 0
M  V30 54 H -1.730152 -1.688708 -1.973033 0
M  V30 55 H 0.023122 -1.430578 -3.554404 0
M  V30 56 H 0.927214 -2.815342 -2.787443 0
M  V30 57 H 1.073893 -1.653927 -0.667423 0
M  V30 58 H 1.785230 -0.689187 -1.956631 0
M  V30 END ATOM
M  V30 BEGIN BOND
M  V30 1 1 1 2
M  V30 2 1 2 3
M  V30 3 1 2 4
M  V30 4 1 4 5
M  V30 5 1 5 6
M  V30 6 1 6 7
M  V30 7 2 7 8
M  V30 8 1 8 9
M  V30 9 2 9 10
M  V30 10 1 10 11
M  V30 11 2 11 12
M  V30 12 1 12 13
M  V30 13 1 10 14
M  V30 14 1 14 15
M  V30 15 2 15 16
M  V30 16 1 15 17
M  V30 17 1 17 18
M  V30 18 1 18 19
M  V30 19 2 19 20
M  V30 20 1 20 21
M  V30 21 1 21 22
M  V30 22 3 22 23
M  V30 23 2 21 24
M  V30 24 1 24 25
M  V30 25 1 24 26
M  V30 26 1 26 27
M  V30 27 1 27 28
M  V30 28 1 28 29
M  V30 29 1 29 30
M  V30 30 1 30 31
M  V30 31 1 31 32
M  V30 32 1 12 7
M  V30 33 2 25 18
M  V30 34 1 32 9
M  V30 35 1 1 33
M  V30 36 1 1 34
M  V30 37 1 1 35
M  V30 38 1 2 36
M  V30 39 1 3 37
M  V30 40 1 3 38
M  V30 41 1 3 39
M  V30 42 1 4 40
M  V30 43 1 4 41
M  V30 44 1 5 42
M  V30 45 1 5 43
M  V30 46 1 8 44
M  V30 47 1 11 45
M  V30 48 1 14 46
M  V30 49 1 17 47
M  V30 50 1 19 48
M  V30 51 1 27 49
M  V30 52 1 27 50
M  V30 53 1 28 51
M  V30 54 1 28 52
M  V30 55 1 29 53
M  V30 56 1 29 54
M  V30 57 1 30 55
M  V30 58 1 30 56
M  V30 59 1 31 57
M  V30 60 1 31 58
M  V30 END BOND
M  V30 END CTAB
M  END
>  <Dataset>  (662) 
ChEMBL_Kinases

>  <Ligand_Instance>  (662) 
nan

>  <PDB_ID>  (662) 
nan

>  <Standardized_SMILES>  (662) 
CC(C)CCOc1cc2c(cc1Cl)NC(=O)Nc1cnc(C#N)c(n1)OCCCCCO2

>  <Name>  (662) 
nan

>  <Pocket>  (662) 
nan

>  <ATP_Site>  (662) 
nan

>  <Peripheral>  (662) 
nan

>  <Num_H_Atoms_ProtBoundConf>  (662) 
nan

>  <Num_Resolved_Atoms>  (662) 
nan

>  <Num_Not_Resolved_Atoms>  (662) 
nan

$$$$
CHEMBL219952
     RDKit          3D

  0  0  0  0  0  0  0  0  0  0999 V3000
M  V30 BEGIN CTAB
M  V30 COUNTS 48 50 0 0 0
M  V30 BEGIN ATOM
M  V30 1 N 6.035609 -2.998162 3.979364 0
M  V30 2 C 5.194852 -3.298174 3.240430 0
M  V30 3 C 4.187249 -3.679567 2.331097 0
M  V30 4 N 4.147642 -4.713959 1.489553 0
M  V30 5 C 3.113987 -4.965007 0.672776 0
M  V30 6 C 2.117166 -4.104930 0.757630 0
M  V30 7 N 2.106984 -3.043538 1.592503 0
M  V30 8 C 3.133478 -2.812278 2.387313 0
M  V30 9 O 2.700249 -1.649449 3.041011 0
M  V30 10 C 2.795135 -0.423809 2.329565 0
M  V30 11 C 2.293305 0.720888 3.063853 0
M  V30 12 C 0.912778 0.899540 3.517865 0
M  V30 13 C -0.208735 0.947912 2.525711 0
M  V30 14 C -0.514519 -0.409004 1.997285 0
M  V30 15 O -1.457447 -0.622096 1.078134 0
M  V30 16 C -1.918785 -0.393276 -0.126399 0
M  V30 17 C -2.465717 0.708541 -0.861192 0
M  V30 18 C -2.988606 0.834221 -2.310016 0
M  V30 19 C -3.300963 2.146518 -2.178909 0
M  V30 20 C -3.577257 3.286250 -2.086271 0
M  V30 21 C -3.891114 4.679971 -1.963998 0
M  V30 22 O -4.754151 4.879280 -0.882087 0
M  V30 23 C -2.689685 -0.409608 -2.426347 0
M  V30 24 Cl -3.346386 -0.105187 -4.108643 0
M  V30 25 C -2.253050 -1.627618 -2.114813 0
M  V30 26 C -1.830625 -1.578882 -0.827444 0
M  V30 27 N -1.337886 -2.862686 -0.501919 0
M  V30 28 C 0.029706 -2.595637 -0.313834 0
M  V30 29 O 1.134822 -2.276746 -0.193727 0
M  V30 30 N 0.816695 -3.728260 0.243618 0
M  V30 31 H 2.793563 -5.642846 -0.051419 0
M  V30 32 H 3.946657 -0.232954 2.225380 0
M  V30 33 H 2.535086 -0.511498 1.248777 0
M  V30 34 H 2.569408 1.646245 2.439824 0
M  V30 35 H 2.939998 0.796115 4.012479 0
M  V30 36 H 0.911502 1.872125 4.129028 0
M  V30 37 H 0.710246 0.095737 4.301962 0
M  V30 38 H -1.105394 1.387196 3.054888 0
M  V30 39 H 0.098304 1.663630 1.733221 0
M  V30 40 H 0.425493 -0.947492 1.930327 0
M  V30 41 H -0.969792 -0.932809 2.965084 0
M  V30 42 H -2.321972 1.367381 0.093474 0
M  V30 43 H -2.988749 5.304957 -1.799094 0
M  V30 44 H -4.370490 5.020557 -2.907369 0
M  V30 45 H -5.093508 4.037733 -0.504824 0
M  V30 46 H -2.268283 -2.433022 -2.786117 0
M  V30 47 H -1.694707 -3.764319 -0.426601 0
M  V30 48 H 0.441934 -4.699201 0.483595 0
M  V30 END ATOM
M  V30 BEGIN BOND
M  V30 1 3 1 2
M  V30 2 1 2 3
M  V30 3 2 3 4
M  V30 4 1 4 5
M  V30 5 2 5 6
M  V30 6 1 6 7
M  V30 7 2 7 8
M  V30 8 1 8 9
M  V30 9 1 9 10
M  V30 10 1 10 11
M  V30 11 1 11 12
M  V30 12 1 12 13
M  V30 13 1 13 14
M  V30 14 1 14 15
M  V30 15 1 15 16
M  V30 16 2 16 17
M  V30 17 1 17 18
M  V30 18 1 18 19
M  V30 19 3 19 20
M  V30 20 1 20 21
M  V30 21 1 21 22
M  V30 22 2 18 23
M  V30 23 1 23 24
M  V30 24 1 23 25
M  V30 25 2 25 26
M  V30 26 1 26 27
M  V30 27 1 27 28
M  V30 28 2 28 29
M  V30 29 1 28 30
M  V30 30 1 8 3
M  V30 31 1 26 16
M  V30 32 1 30 6
M  V30 33 1 5 31
M  V30 34 1 10 32
M  V30 35 1 10 33
M  V30 36 1 11 34
M  V30 37 1 11 35
M  V30 38 1 12 36
M  V30 39 1 12 37
M  V30 40 1 13 38
M  V30 41 1 13 39
M  V30 42 1 14 40
M  V30 43 1 14 41
M  V30 44 1 17 42
M  V30 45 1 21 43
M  V30 46 1 21 44
M  V30 47 1 22 45
M  V30 48 1 25 46
M  V30 49 1 27 47
M  V30 50 1 30 48
M  V30 END BOND
M  V30 END CTAB
M  END
>  <Dataset>  (663) 
ChEMBL_Kinases

>  <Ligand_Instance>  (663) 
nan

>  <PDB_ID>  (663) 
nan

>  <Standardized_SMILES>  (663) 
N#Cc1ncc2nc1OCCCCCOc1cc(C#CCO)c(Cl)cc1NC(=O)N2

>  <Name>  (663) 
nan

>  <Pocket>  (663) 
nan

>  <ATP_Site>  (663) 
nan

>  <Peripheral>  (663) 
nan

>  <Num_H_Atoms_ProtBoundConf>  (663) 
nan

>  <Num_Resolved_Atoms>  (663) 
nan

>  <Num_Not_Resolved_Atoms>  (663) 
nan

$$$$
CHEMBL219979
     RDKit          3D

  0  0  0  0  0  0  0  0  0  0999 V3000
M  V30 BEGIN CTAB
M  V30 COUNTS 56 59 0 0 0
M  V30 BEGIN ATOM
M  V30 1 N 6.454271 -2.285272 3.874284 0
M  V30 2 C 6.000537 -1.994010 2.837094 0
M  V30 3 C 5.458913 -1.632266 1.535593 0
M  V30 4 N 6.215093 -1.469371 0.438965 0
M  V30 5 C 5.582281 -1.128040 -0.725231 0
M  V30 6 C 4.222420 -0.982440 -0.664452 0
M  V30 7 N 3.480687 -1.145077 0.420261 0
M  V30 8 C 4.091235 -1.479152 1.565819 0
M  V30 9 O 3.159475 -1.594804 2.545282 0
M  V30 10 C 2.621575 -0.467897 3.185482 0
M  V30 11 C 1.942057 0.416242 2.141075 0
M  V30 12 C 1.282512 1.599428 2.771975 0
M  V30 13 C 0.679030 2.515732 1.770655 0
M  V30 14 C -0.383944 1.948171 0.887834 0
M  V30 15 O 0.024168 0.933354 0.042893 0
M  V30 16 C -0.732595 0.229619 -0.866132 0
M  V30 17 C -2.035606 0.025868 -0.503279 0
M  V30 18 C -2.980364 -0.647141 -1.242625 0
M  V30 19 O -4.286994 -0.942460 -1.054159 0
M  V30 20 C -5.150384 -0.676513 -0.018250 0
M  V30 21 C -4.745856 -1.320006 1.268164 0
M  V30 22 N -4.714478 -2.772378 1.030253 0
M  V30 23 C -3.628906 -3.467683 0.604521 0
M  V30 24 C -3.963392 -4.790128 0.493643 0
M  V30 25 N -5.236366 -4.899388 0.847229 0
M  V30 26 C -5.696762 -3.691372 1.171618 0
M  V30 27 C -2.558798 -1.158193 -2.463753 0
M  V30 28 Cl -3.593243 -2.061767 -3.593846 0
M  V30 29 C -1.224049 -0.967722 -2.871103 0
M  V30 30 C -0.323238 -0.280760 -2.077923 0
M  V30 31 N 0.974401 -0.199568 -2.666474 0
M  V30 32 C 2.271202 -0.433911 -2.167780 0
M  V30 33 O 1.592350 -0.687748 -1.143057 0
M  V30 34 N 3.646487 -0.603671 -1.907018 0
M  V30 35 H 6.117413 -0.980097 -1.645449 0
M  V30 36 H 3.455618 0.155523 3.620349 0
M  V30 37 H 1.923477 -0.701646 3.997488 0
M  V30 38 H 2.693824 0.783914 1.398993 0
M  V30 39 H 1.186628 -0.166002 1.587104 0
M  V30 40 H 2.064495 2.159801 3.362880 0
M  V30 41 H 0.508240 1.221884 3.477082 0
M  V30 42 H 0.247204 3.422868 2.289660 0
M  V30 43 H 1.470172 2.919000 1.074524 0
M  V30 44 H -1.269980 1.681504 1.509909 0
M  V30 45 H -0.749731 2.807201 0.250737 0
M  V30 46 H -2.419774 0.406769 0.415175 0
M  V30 47 H -5.247765 0.445472 0.134032 0
M  V30 48 H -6.204540 -0.992829 -0.263677 0
M  V30 49 H -3.783300 -0.980006 1.631947 0
M  V30 50 H -5.544388 -1.150225 2.036036 0
M  V30 51 H -2.663325 -3.036148 0.391239 0
M  V30 52 H -3.313325 -5.595291 0.177460 0
M  V30 53 H -6.679050 -3.402527 1.503241 0
M  V30 54 H -0.911049 -1.383563 -3.848989 0
M  V30 55 H 1.133463 0.075709 -3.659542 0
M  V30 56 H 4.165478 -0.386855 -2.784912 0
M  V30 END ATOM
M  V30 BEGIN BOND
M  V30 1 3 1 2
M  V30 2 1 2 3
M  V30 3 2 3 4
M  V30 4 1 4 5
M  V30 5 2 5 6
M  V30 6 1 6 7
M  V30 7 2 7 8
M  V30 8 1 8 9
M  V30 9 1 9 10
M  V30 10 1 10 11
M  V30 11 1 11 12
M  V30 12 1 12 13
M  V30 13 1 13 14
M  V30 14 1 14 15
M  V30 15 1 15 16
M  V30 16 2 16 17
M  V30 17 1 17 18
M  V30 18 1 18 19
M  V30 19 1 19 20
M  V30 20 1 20 21
M  V30 21 1 21 22
M  V30 22 1 22 23
M  V30 23 2 23 24
M  V30 24 1 24 25
M  V30 25 2 25 26
M  V30 26 2 18 27
M  V30 27 1 27 28
M  V30 28 1 27 29
M  V30 29 2 29 30
M  V30 30 1 30 31
M  V30 31 1 31 32
M  V30 32 2 32 33
M  V30 33 1 32 34
M  V30 34 1 8 3
M  V30 35 1 30 16
M  V30 36 1 34 6
M  V30 37 1 26 22
M  V30 38 1 5 35
M  V30 39 1 10 36
M  V30 40 1 10 37
M  V30 41 1 11 38
M  V30 42 1 11 39
M  V30 43 1 12 40
M  V30 44 1 12 41
M  V30 45 1 13 42
M  V30 46 1 13 43
M  V30 47 1 14 44
M  V30 48 1 14 45
M  V30 49 1 17 46
M  V30 50 1 20 47
M  V30 51 1 20 48
M  V30 52 1 21 49
M  V30 53 1 21 50
M  V30 54 1 23 51
M  V30 55 1 24 52
M  V30 56 1 26 53
M  V30 57 1 29 54
M  V30 58 1 31 55
M  V30 59 1 34 56
M  V30 END BOND
M  V30 END CTAB
M  END
>  <Dataset>  (664) 
ChEMBL_Kinases

>  <Ligand_Instance>  (664) 
nan

>  <PDB_ID>  (664) 
nan

>  <Standardized_SMILES>  (664) 
N#Cc1ncc2nc1OCCCCCOc1cc(OCCn3ccnc3)c(Cl)cc1NC(=O)N2

>  <Name>  (664) 
nan

>  <Pocket>  (664) 
nan

>  <ATP_Site>  (664) 
nan

>  <Peripheral>  (664) 
nan

>  <Num_H_Atoms_ProtBoundConf>  (664) 
nan

>  <Num_Resolved_Atoms>  (664) 
nan

>  <Num_Not_Resolved_Atoms>  (664) 
nan

$$$$
CHEMBL219992
     RDKit          3D

  0  0  0  0  0  0  0  0  0  0999 V3000
M  V30 BEGIN CTAB
M  V30 COUNTS 32 34 0 0 0
M  V30 BEGIN ATOM
M  V30 1 C -1.973932 -5.088425 2.429356 0
M  V30 2 O -2.372133 -3.839667 1.903420 0
M  V30 3 C -1.374262 -2.901041 1.579310 0
M  V30 4 C -0.064076 -3.278283 1.803489 0
M  V30 5 C 0.976886 -2.416230 1.512649 0
M  V30 6 N 2.337706 -2.419194 1.588497 0
M  V30 7 C 2.831129 -1.260834 1.148003 0
M  V30 8 N 1.778094 -0.500402 0.783277 0
M  V30 9 C 1.913669 0.813224 0.260481 0
M  V30 10 C 2.559306 1.248078 -0.812231 0
M  V30 11 C 2.579537 2.573986 -1.165354 0
M  V30 12 O 3.210016 3.161219 -2.252454 0
M  V30 13 C 1.867196 3.404847 -0.300925 0
M  V30 14 C 1.665040 4.842660 -0.348371 0
M  V30 15 N 1.485671 5.978385 -0.381086 0
M  V30 16 S 1.195343 2.292692 0.975954 0
M  V30 17 C 0.630577 -1.181964 0.995439 0
M  V30 18 C -0.678896 -0.810345 0.773586 0
M  V30 19 C -1.724178 -1.667316 1.062132 0
M  V30 20 O -3.075192 -1.429490 0.892025 0
M  V30 21 C -3.622119 -0.232146 0.378951 0
M  V30 22 H -1.393410 -4.940179 3.378241 0
M  V30 23 H -1.271741 -5.524513 1.691394 0
M  V30 24 H -2.868438 -5.706335 2.590097 0
M  V30 25 H 0.227972 -4.235475 2.205881 0
M  V30 26 H 3.884378 -0.966696 1.087074 0
M  V30 27 H 3.099666 0.521988 -1.444602 0
M  V30 28 H 4.036887 3.712501 -2.051277 0
M  V30 29 H -0.963749 0.151082 0.369769 0
M  V30 30 H -4.638908 -0.032402 0.799052 0
M  V30 31 H -2.927187 0.600558 0.687174 0
M  V30 32 H -3.632967 -0.214582 -0.731576 0
M  V30 END ATOM
M  V30 BEGIN BOND
M  V30 1 1 1 2
M  V30 2 1 2 3
M  V30 3 2 3 4
M  V30 4 1 4 5
M  V30 5 1 5 6
M  V30 6 2 6 7
M  V30 7 1 7 8
M  V30 8 1 8 9
M  V30 9 2 9 10
M  V30 10 1 10 11
M  V30 11 1 11 12
M  V30 12 2 11 13
M  V30 13 1 13 14
M  V30 14 3 14 15
M  V30 15 1 13 16
M  V30 16 1 8 17
M  V30 17 1 17 18
M  V30 18 2 18 19
M  V30 19 1 19 20
M  V30 20 1 20 21
M  V30 21 1 19 3
M  V30 22 2 17 5
M  V30 23 1 16 9
M  V30 24 1 1 22
M  V30 25 1 1 23
M  V30 26 1 1 24
M  V30 27 1 4 25
M  V30 28 1 7 26
M  V30 29 1 10 27
M  V30 30 1 12 28
M  V30 31 1 18 29
M  V30 32 1 21 30
M  V30 33 1 21 31
M  V30 34 1 21 32
M  V30 END BOND
M  V30 END CTAB
M  END
>  <Dataset>  (665) 
ChEMBL_Kinases

>  <Ligand_Instance>  (665) 
nan

>  <PDB_ID>  (665) 
nan

>  <Standardized_SMILES>  (665) 
COc1cc2ncn(-c3cc(O)c(C#N)s3)c2cc1OC

>  <Name>  (665) 
nan

>  <Pocket>  (665) 
nan

>  <ATP_Site>  (665) 
nan

>  <Peripheral>  (665) 
nan

>  <Num_H_Atoms_ProtBoundConf>  (665) 
nan

>  <Num_Resolved_Atoms>  (665) 
nan

>  <Num_Not_Resolved_Atoms>  (665) 
nan

$$$$
CHEMBL220002
     RDKit          3D

  0  0  0  0  0  0  0  0  0  0999 V3000
M  V30 BEGIN CTAB
M  V30 COUNTS 42 44 0 0 0
M  V30 BEGIN ATOM
M  V30 1 N 6.122204 -2.742679 -1.159318 0
M  V30 2 C 5.017268 -2.981484 -1.003266 0
M  V30 3 C 3.639931 -3.303752 -0.801167 0
M  V30 4 N 3.220560 -4.511134 -0.397495 0
M  V30 5 C 1.918979 -4.761820 -0.222838 0
M  V30 6 C 1.069534 -3.724982 -0.478879 0
M  V30 7 N 1.465737 -2.536699 -0.875815 0
M  V30 8 C 2.767191 -2.279300 -1.052094 0
M  V30 9 O 2.970087 -0.950116 -1.476043 0
M  V30 10 C 2.056060 -0.028417 -0.802465 0
M  V30 11 C 2.210276 1.366752 -1.238574 0
M  V30 12 C 1.223478 2.373411 -0.762739 0
M  V30 13 C 1.062671 2.681625 0.659441 0
M  V30 14 C 0.501745 1.687251 1.604878 0
M  V30 15 O -0.796031 1.282928 1.179506 0
M  V30 16 C -1.552122 0.395316 1.951793 0
M  V30 17 C -1.803621 1.136428 3.112857 0
M  V30 18 C -2.536177 0.695461 4.226136 0
M  V30 19 C -3.069524 -0.601376 4.184820 0
M  V30 20 Cl -3.988566 -1.200918 5.540951 0
M  V30 21 C -2.789011 -1.300836 3.000602 0
M  V30 22 C -2.070004 -0.869581 1.906897 0
M  V30 23 N -2.071229 -1.932151 0.982374 0
M  V30 24 C -0.991964 -2.640884 0.406725 0
M  V30 25 O -0.356165 -1.822901 1.116658 0
M  V30 26 N -0.339050 -3.603269 -0.394339 0
M  V30 27 H 1.319688 -5.593156 0.073904 0
M  V30 28 H 1.040699 -0.444811 -0.806648 0
M  V30 29 H 2.436425 -0.092309 0.260552 0
M  V30 30 H 3.262020 1.742764 -1.037496 0
M  V30 31 H 2.207301 1.343842 -2.381315 0
M  V30 32 H 0.218541 2.014184 -1.191008 0
M  V30 33 H 1.449293 3.317081 -1.372140 0
M  V30 34 H 0.461717 3.650045 0.709322 0
M  V30 35 H 2.109808 2.947032 1.069465 0
M  V30 36 H 1.152983 0.846059 1.757512 0
M  V30 37 H 0.402906 2.224881 2.606442 0
M  V30 38 H -1.483867 2.163103 3.351414 0
M  V30 39 H -2.740341 1.261175 5.137581 0
M  V30 40 H -3.259436 -2.295214 3.090812 0
M  V30 41 H -2.933236 -2.356144 0.585144 0
M  V30 42 H -0.661862 -4.347947 -1.030436 0
M  V30 END ATOM
M  V30 BEGIN BOND
M  V30 1 3 1 2
M  V30 2 1 2 3
M  V30 3 2 3 4
M  V30 4 1 4 5
M  V30 5 2 5 6
M  V30 6 1 6 7
M  V30 7 2 7 8
M  V30 8 1 8 9
M  V30 9 1 9 10
M  V30 10 1 10 11
M  V30 11 1 11 12
M  V30 12 1 12 13
M  V30 13 1 13 14
M  V30 14 1 14 15
M  V30 15 1 15 16
M  V30 16 2 16 17
M  V30 17 1 17 18
M  V30 18 2 18 19
M  V30 19 1 19 20
M  V30 20 1 19 21
M  V30 21 2 21 22
M  V30 22 1 22 23
M  V30 23 1 23 24
M  V30 24 2 24 25
M  V30 25 1 24 26
M  V30 26 1 8 3
M  V30 27 1 22 16
M  V30 28 1 26 6
M  V30 29 1 5 27
M  V30 30 1 10 28
M  V30 31 1 10 29
M  V30 32 1 11 30
M  V30 33 1 11 31
M  V30 34 1 12 32
M  V30 35 1 12 33
M  V30 36 1 13 34
M  V30 37 1 13 35
M  V30 38 1 14 36
M  V30 39 1 14 37
M  V30 40 1 17 38
M  V30 41 1 18 39
M  V30 42 1 21 40
M  V30 43 1 23 41
M  V30 44 1 26 42
M  V30 END BOND
M  V30 END CTAB
M  END
>  <Dataset>  (666) 
ChEMBL_Kinases

>  <Ligand_Instance>  (666) 
nan

>  <PDB_ID>  (666) 
nan

>  <Standardized_SMILES>  (666) 
N#Cc1ncc2nc1OCCCCCOc1ccc(Cl)cc1NC(=O)N2

>  <Name>  (666) 
nan

>  <Pocket>  (666) 
nan

>  <ATP_Site>  (666) 
nan

>  <Peripheral>  (666) 
nan

>  <Num_H_Atoms_ProtBoundConf>  (666) 
nan

>  <Num_Resolved_Atoms>  (666) 
nan

>  <Num_Not_Resolved_Atoms>  (666) 
nan

$$$$
CHEMBL220022
     RDKit          3D

  0  0  0  0  0  0  0  0  0  0999 V3000
M  V30 BEGIN CTAB
M  V30 COUNTS 40 43 0 0 0
M  V30 BEGIN ATOM
M  V30 1 N -1.838471 -3.372473 -0.218621 0
M  V30 2 C -0.723344 -4.238574 -0.308232 0
M  V30 3 C -0.890360 -5.491519 0.246078 0
M  V30 4 C 0.184532 -6.364511 0.174260 0
M  V30 5 C 1.385997 -6.033745 -0.417079 0
M  V30 6 C 1.483626 -4.777930 -0.945828 0
M  V30 7 C 0.449928 -3.839163 -0.915569 0
M  V30 8 N 0.592420 -2.539487 -1.479032 0
M  V30 9 C 0.514548 -1.214483 -0.964522 0
M  V30 10 C 0.708845 -0.162246 -1.835993 0
M  V30 11 C 0.614637 1.081287 -1.246157 0
M  V30 12 C 0.351695 1.336003 0.093338 0
M  V30 13 C 0.327075 2.691666 0.345806 0
M  V30 14 O 0.207052 3.463314 -0.631302 0
M  V30 15 C 0.424725 3.270997 1.597408 0
M  V30 16 C 0.828165 4.590887 1.503795 0
M  V30 17 C 0.965832 5.289181 2.687315 0
M  V30 18 C 0.728153 4.750963 3.916101 0
M  V30 19 C 0.321291 3.415049 3.986846 0
M  V30 20 C 0.168728 2.673412 2.833216 0
M  V30 21 C -0.237017 1.378674 3.087744 0
M  V30 22 C -0.101396 0.261208 2.257151 0
M  V30 23 C 0.169006 0.232942 0.901924 0
M  V30 24 C 0.249270 -1.044615 0.378602 0
M  V30 25 H -2.152084 -3.181218 0.756408 0
M  V30 26 H -2.335584 -2.940554 -1.010340 0
M  V30 27 H -1.805512 -5.816765 0.725176 0
M  V30 28 H 0.098913 -7.358520 0.595993 0
M  V30 29 H 2.230481 -6.713306 -0.475975 0
M  V30 30 H 2.392440 -4.442675 -1.426400 0
M  V30 31 H 0.794703 -2.729195 -2.485502 0
M  V30 32 H 0.914179 -0.282263 -2.874526 0
M  V30 33 H 0.759003 1.954851 -1.884945 0
M  V30 34 H 1.009977 4.991456 0.509325 0
M  V30 35 H 1.283911 6.329868 2.613748 0
M  V30 36 H 0.850676 5.342916 4.824627 0
M  V30 37 H 0.122564 2.947524 4.928341 0
M  V30 38 H -0.715404 1.216509 4.043957 0
M  V30 39 H -0.223227 -0.701784 2.734282 0
M  V30 40 H 0.093503 -1.822124 1.084412 0
M  V30 END ATOM
M  V30 BEGIN BOND
M  V30 1 1 1 2
M  V30 2 2 2 3
M  V30 3 1 3 4
M  V30 4 2 4 5
M  V30 5 1 5 6
M  V30 6 2 6 7
M  V30 7 1 7 8
M  V30 8 1 8 9
M  V30 9 2 9 10
M  V30 10 1 10 11
M  V30 11 2 11 12
M  V30 12 1 12 13
M  V30 13 2 13 14
M  V30 14 1 13 15
M  V30 15 2 15 16
M  V30 16 1 16 17
M  V30 17 2 17 18
M  V30 18 1 18 19
M  V30 19 2 19 20
M  V30 20 1 20 21
M  V30 21 2 21 22
M  V30 22 1 22 23
M  V30 23 2 23 24
M  V30 24 1 7 2
M  V30 25 1 24 9
M  V30 26 1 23 12
M  V30 27 1 20 15
M  V30 28 1 1 25
M  V30 29 1 1 26
M  V30 30 1 3 27
M  V30 31 1 4 28
M  V30 32 1 5 29
M  V30 33 1 6 30
M  V30 34 1 8 31
M  V30 35 1 10 32
M  V30 36 1 11 33
M  V30 37 1 16 34
M  V30 38 1 17 35
M  V30 39 1 18 36
M  V30 40 1 19 37
M  V30 41 1 21 38
M  V30 42 1 22 39
M  V30 43 1 24 40
M  V30 END BOND
M  V30 END CTAB
M  END
>  <Dataset>  (667) 
ChEMBL_Kinases

>  <Ligand_Instance>  (667) 
nan

>  <PDB_ID>  (667) 
nan

>  <Standardized_SMILES>  (667) 
Nc1ccccc1Nc1ccc2c(=O)c3ccccc3ccc2c1

>  <Name>  (667) 
nan

>  <Pocket>  (667) 
nan

>  <ATP_Site>  (667) 
nan

>  <Peripheral>  (667) 
nan

>  <Num_H_Atoms_ProtBoundConf>  (667) 
nan

>  <Num_Resolved_Atoms>  (667) 
nan

>  <Num_Not_Resolved_Atoms>  (667) 
nan

$$$$
CHEMBL219845
     RDKit          3D

  0  0  0  0  0  0  0  0  0  0999 V3000
M  V30 BEGIN CTAB
M  V30 COUNTS 51 54 0 0 0
M  V30 BEGIN ATOM
M  V30 1 C 2.482346 -7.684191 3.081018 0
M  V30 2 O 1.675155 -6.867989 2.258446 0
M  V30 3 C 1.961332 -5.574550 1.905140 0
M  V30 4 C 3.111661 -4.904421 2.329981 0
M  V30 5 C 3.389452 -3.603465 1.968956 0
M  V30 6 N 4.388490 -2.758747 2.231004 0
M  V30 7 C 4.143358 -1.593483 1.608070 0
M  V30 8 N 2.994887 -1.711906 0.959876 0
M  V30 9 C 2.325680 -0.656679 0.124923 0
M  V30 10 C 1.526921 0.279911 0.590295 0
M  V30 11 C 0.971177 1.191158 -0.249841 0
M  V30 12 O 0.107455 2.249948 0.045715 0
M  V30 13 C -0.309097 2.488363 1.396990 0
M  V30 14 C -1.225116 3.661565 1.502870 0
M  V30 15 N -2.426662 3.644883 0.805788 0
M  V30 16 C -3.475937 2.781259 1.121164 0
M  V30 17 C -3.943483 2.063254 -0.150266 0
M  V30 18 O -4.501536 3.065662 -0.948965 0
M  V30 19 C -3.424672 3.792715 -1.454849 0
M  V30 20 C -2.583898 4.411957 -0.363043 0
M  V30 21 C 1.288687 1.073833 -1.576280 0
M  V30 22 C 0.928700 1.811666 -2.780911 0
M  V30 23 N 0.644223 2.384173 -3.719371 0
M  V30 24 S 2.441689 -0.427889 -1.578380 0
M  V30 25 C 2.482697 -2.941120 1.149412 0
M  V30 26 C 1.365728 -3.623004 0.749573 0
M  V30 27 C 1.048829 -4.909290 1.081006 0
M  V30 28 O -0.084100 -5.588962 0.670573 0
M  V30 29 C -1.012161 -4.924945 -0.163729 0
M  V30 30 H 3.100198 -8.366035 2.434227 0
M  V30 31 H 1.809773 -8.397518 3.637847 0
M  V30 32 H 3.083324 -7.123246 3.819570 0
M  V30 33 H 3.821480 -5.418828 2.970144 0
M  V30 34 H 4.782992 -0.706280 1.634639 0
M  V30 35 H 1.282654 0.358199 1.665937 0
M  V30 36 H -0.697365 1.548666 1.780522 0
M  V30 37 H 0.626590 2.718471 1.948022 0
M  V30 38 H -0.637586 4.549984 1.188230 0
M  V30 39 H -1.438335 3.844306 2.581781 0
M  V30 40 H -3.341665 2.121960 1.964688 0
M  V30 41 H -4.367735 3.421001 1.387587 0
M  V30 42 H -4.642154 1.247543 0.061364 0
M  V30 43 H -3.065853 1.693480 -0.698525 0
M  V30 44 H -2.743456 3.147401 -2.066680 0
M  V30 45 H -3.776660 4.624155 -2.121335 0
M  V30 46 H -3.105200 5.374399 -0.102467 0
M  V30 47 H -1.577742 4.609383 -0.807093 0
M  V30 48 H 0.689895 -3.071680 0.115611 0
M  V30 49 H -0.488089 -4.354034 -0.939322 0
M  V30 50 H -1.784840 -4.353849 0.395721 0
M  V30 51 H -1.574331 -5.723893 -0.720974 0
M  V30 END ATOM
M  V30 BEGIN BOND
M  V30 1 1 1 2
M  V30 2 1 2 3
M  V30 3 2 3 4
M  V30 4 1 4 5
M  V30 5 1 5 6
M  V30 6 2 6 7
M  V30 7 1 7 8
M  V30 8 1 8 9
M  V30 9 2 9 10
M  V30 10 1 10 11
M  V30 11 1 11 12
M  V30 12 1 12 13
M  V30 13 1 13 14
M  V30 14 1 14 15
M  V30 15 1 15 16
M  V30 16 1 16 17
M  V30 17 1 17 18
M  V30 18 1 18 19
M  V30 19 1 19 20
M  V30 20 2 11 21
M  V30 21 1 21 22
M  V30 22 3 22 23
M  V30 23 1 21 24
M  V30 24 1 8 25
M  V30 25 1 25 26
M  V30 26 2 26 27
M  V30 27 1 27 28
M  V30 28 1 28 29
M  V30 29 1 27 3
M  V30 30 2 25 5
M  V30 31 1 24 9
M  V30 32 1 20 15
M  V30 33 1 1 30
M  V30 34 1 1 31
M  V30 35 1 1 32
M  V30 36 1 4 33
M  V30 37 1 7 34
M  V30 38 1 10 35
M  V30 39 1 13 36
M  V30 40 1 13 37
M  V30 41 1 14 38
M  V30 42 1 14 39
M  V30 43 1 16 40
M  V30 44 1 16 41
M  V30 45 1 17 42
M  V30 46 1 17 43
M  V30 47 1 19 44
M  V30 48 1 19 45
M  V30 49 1 20 46
M  V30 50 1 20 47
M  V30 51 1 26 48
M  V30 52 1 29 49
M  V30 53 1 29 50
M  V30 54 1 29 51
M  V30 END BOND
M  V30 END CTAB
M  END
>  <Dataset>  (668) 
ChEMBL_Kinases

>  <Ligand_Instance>  (668) 
nan

>  <PDB_ID>  (668) 
nan

>  <Standardized_SMILES>  (668) 
COc1cc2ncn(-c3cc(OCCN4CCOCC4)c(C#N)s3)c2cc1OC

>  <Name>  (668) 
nan

>  <Pocket>  (668) 
nan

>  <ATP_Site>  (668) 
nan

>  <Peripheral>  (668) 
nan

>  <Num_H_Atoms_ProtBoundConf>  (668) 
nan

>  <Num_Resolved_Atoms>  (668) 
nan

>  <Num_Not_Resolved_Atoms>  (668) 
nan

$$$$
CHEMBL2177668
     RDKit          3D

  0  0  0  0  0  0  0  0  0  0999 V3000
M  V30 BEGIN CTAB
M  V30 COUNTS 42 43 0 0 0
M  V30 BEGIN ATOM
M  V30 1 O 1.923496 -1.794377 0.541683 0
M  V30 2 C 0.759771 -1.727964 0.967192 0
M  V30 3 C 0.419298 -0.438440 1.546454 0
M  V30 4 C 1.516911 0.584669 1.533283 0
M  V30 5 C 2.052982 0.975957 0.250939 0
M  V30 6 C 1.422431 1.417148 -0.873188 0
M  V30 7 C 2.002423 1.767308 -2.058469 0
M  V30 8 C 3.389376 1.671927 -2.155234 0
M  V30 9 C 4.116706 1.236739 -1.075501 0
M  V30 10 C 3.447867 0.901889 0.089223 0
M  V30 11 C 0.862499 1.769228 2.211441 0
M  V30 12 C 1.725483 2.942312 2.329679 0
M  V30 13 O 2.921200 2.896507 1.886541 0
M  V30 14 O 2.456565 4.107365 2.492037 0
M  V30 15 C -0.443733 2.014607 1.593500 0
M  V30 16 O -1.525753 1.962864 2.259966 0
M  V30 17 O -1.610646 2.269380 0.877356 0
M  V30 18 C -0.302386 -2.734501 0.973476 0
M  V30 19 C -1.576365 -2.529514 1.486788 0
M  V30 20 C -2.468363 -3.582473 1.417707 0
M  V30 21 C -2.127727 -4.781760 0.870566 0
M  V30 22 C -3.120285 -5.876964 0.821055 0
M  V30 23 F -2.522828 -7.091596 0.500351 0
M  V30 24 F -4.064559 -5.606525 -0.144028 0
M  V30 25 F -3.820446 -5.999702 2.024571 0
M  V30 26 C -0.862695 -5.019718 0.348516 0
M  V30 27 C 0.023085 -3.953320 0.424570 0
M  V30 28 H -0.497170 0.020136 1.159893 0
M  V30 29 H 0.205066 -0.610948 2.642110 0
M  V30 30 H 2.313423 0.250320 2.264760 0
M  V30 31 H 0.368386 1.491579 -0.816340 0
M  V30 32 H 1.448271 2.107723 -2.907100 0
M  V30 33 H 3.932836 1.923929 -3.042319 0
M  V30 34 H 5.193010 1.151724 -1.118291 0
M  V30 35 H 4.075245 0.560069 0.922042 0
M  V30 36 H 0.631275 1.454898 3.283798 0
M  V30 37 H 2.070474 4.948419 2.912197 0
M  V30 38 H -1.610455 2.617218 -0.077328 0
M  V30 39 H -1.788906 -1.556404 1.908702 0
M  V30 40 H -3.456363 -3.408151 1.821310 0
M  V30 41 H -0.637188 -5.983225 -0.074428 0
M  V30 42 H 1.022682 -4.140879 0.012232 0
M  V30 END ATOM
M  V30 BEGIN BOND
M  V30 1 2 1 2
M  V30 2 1 2 3
M  V30 3 1 3 4
M  V30 4 1 4 5
M  V30 5 2 5 6
M  V30 6 1 6 7
M  V30 7 2 7 8
M  V30 8 1 8 9
M  V30 9 2 9 10
M  V30 10 1 4 11
M  V30 11 1 11 12
M  V30 12 2 12 13
M  V30 13 1 12 14
M  V30 14 1 11 15
M  V30 15 2 15 16
M  V30 16 1 15 17
M  V30 17 1 2 18
M  V30 18 2 18 19
M  V30 19 1 19 20
M  V30 20 2 20 21
M  V30 21 1 21 22
M  V30 22 1 22 23
M  V30 23 1 22 24
M  V30 24 1 22 25
M  V30 25 1 21 26
M  V30 26 2 26 27
M  V30 27 1 10 5
M  V30 28 1 27 18
M  V30 29 1 3 28
M  V30 30 1 3 29
M  V30 31 1 4 30
M  V30 32 1 6 31
M  V30 33 1 7 32
M  V30 34 1 8 33
M  V30 35 1 9 34
M  V30 36 1 10 35
M  V30 37 1 11 36
M  V30 38 1 14 37
M  V30 39 1 17 38
M  V30 40 1 19 39
M  V30 41 1 20 40
M  V30 42 1 26 41
M  V30 43 1 27 42
M  V30 END BOND
M  V30 END CTAB
M  END
>  <Dataset>  (669) 
ChEMBL_Kinases

>  <Ligand_Instance>  (669) 
nan

>  <PDB_ID>  (669) 
nan

>  <Standardized_SMILES>  (669) 
O=C(CC(c1ccccc1)C(C(=O)O)C(=O)O)c1ccc(C(F)(F)F)cc1

>  <Name>  (669) 
nan

>  <Pocket>  (669) 
nan

>  <ATP_Site>  (669) 
nan

>  <Peripheral>  (669) 
nan

>  <Num_H_Atoms_ProtBoundConf>  (669) 
nan

>  <Num_Resolved_Atoms>  (669) 
nan

>  <Num_Not_Resolved_Atoms>  (669) 
nan

$$$$
CHEMBL2177354
     RDKit          3D

  0  0  0  0  0  0  0  0  0  0999 V3000
M  V30 BEGIN CTAB
M  V30 COUNTS 27 29 0 0 0
M  V30 BEGIN ATOM
M  V30 1 O -1.632621 -3.272764 1.299920 0
M  V30 2 C -1.264484 -2.061313 1.336994 0
M  V30 3 C -0.180160 -1.439789 0.606442 0
M  V30 4 C 0.619394 -2.048100 -0.250345 0
M  V30 5 C 1.698980 -1.387003 -0.958468 0
M  V30 6 C 2.452805 -0.657237 -0.063111 0
M  V30 7 C 3.550603 0.070281 -0.538086 0
M  V30 8 C 3.833679 0.027173 -1.902465 0
M  V30 9 F 4.882581 0.711312 -2.399787 0
M  V30 10 C 3.084655 -0.698452 -2.798222 0
M  V30 11 C 2.013834 -1.404533 -2.309953 0
M  V30 12 O -0.171650 -0.133027 0.981582 0
M  V30 13 C -1.198737 0.110276 1.916435 0
M  V30 14 C -1.470206 1.319591 2.496886 0
M  V30 15 C -2.520518 1.409812 3.402059 0
M  V30 16 C -3.220635 0.235438 3.649282 0
M  V30 17 C -2.962989 -0.992926 3.076928 0
M  V30 18 C -1.902699 -1.047221 2.170974 0
M  V30 19 H 0.450733 -3.122108 -0.418701 0
M  V30 20 H 2.342200 -0.549583 1.007995 0
M  V30 21 H 4.204130 0.669847 0.084625 0
M  V30 22 H 3.250043 -0.771380 -3.879657 0
M  V30 23 H 1.331335 -2.023595 -2.915039 0
M  V30 24 H -1.004953 2.270655 2.376317 0
M  V30 25 H -2.821045 2.330430 3.918484 0
M  V30 26 H -4.058489 0.227221 4.362533 0
M  V30 27 H -3.460127 -1.917369 3.224612 0
M  V30 END ATOM
M  V30 BEGIN BOND
M  V30 1 2 1 2
M  V30 2 1 2 3
M  V30 3 2 3 4
M  V30 4 1 4 5
M  V30 5 2 5 6
M  V30 6 1 6 7
M  V30 7 2 7 8
M  V30 8 1 8 9
M  V30 9 1 8 10
M  V30 10 2 10 11
M  V30 11 1 3 12
M  V30 12 1 12 13
M  V30 13 2 13 14
M  V30 14 1 14 15
M  V30 15 2 15 16
M  V30 16 1 16 17
M  V30 17 2 17 18
M  V30 18 1 18 2
M  V30 19 1 11 5
M  V30 20 1 18 13
M  V30 21 1 4 19
M  V30 22 1 6 20
M  V30 23 1 7 21
M  V30 24 1 10 22
M  V30 25 1 11 23
M  V30 26 1 14 24
M  V30 27 1 15 25
M  V30 28 1 16 26
M  V30 29 1 17 27
M  V30 END BOND
M  V30 END CTAB
M  END
>  <Dataset>  (670) 
ChEMBL_Kinases

>  <Ligand_Instance>  (670) 
nan

>  <PDB_ID>  (670) 
nan

>  <Standardized_SMILES>  (670) 
O=C1/C(=C/c2ccc(F)cc2)Oc2ccccc21

>  <Name>  (670) 
nan

>  <Pocket>  (670) 
nan

>  <ATP_Site>  (670) 
nan

>  <Peripheral>  (670) 
nan

>  <Num_H_Atoms_ProtBoundConf>  (670) 
nan

>  <Num_Resolved_Atoms>  (670) 
nan

>  <Num_Not_Resolved_Atoms>  (670) 
nan

$$$$
CHEMBL2177219
     RDKit          3D

  0  0  0  0  0  0  0  0  0  0999 V3000
M  V30 BEGIN CTAB
M  V30 COUNTS 50 53 0 0 0
M  V30 BEGIN ATOM
M  V30 1 O -3.020980 -2.552665 -1.610450 0
M  V30 2 C -3.104986 -2.988054 -0.443042 0
M  V30 3 N -3.183709 -2.138777 0.677071 0
M  V30 4 C -3.185637 -0.717453 0.734892 0
M  V30 5 C -2.025161 0.013622 0.851718 0
M  V30 6 C -1.943632 1.387416 0.912905 0
M  V30 7 N -0.750729 2.144038 1.014175 0
M  V30 8 C 0.583174 1.813220 0.663922 0
M  V30 9 C 0.964309 0.856489 -0.251419 0
M  V30 10 C 2.265796 0.531857 -0.567081 0
M  V30 11 C 3.283529 1.205935 0.071546 0
M  V30 12 C 2.921627 2.183809 1.006333 0
M  V30 13 C 1.609659 2.481505 1.296628 0
M  V30 14 C 3.973723 2.946186 1.729806 0
M  V30 15 C 4.764752 1.960433 2.540208 0
M  V30 16 C 5.710072 1.098142 1.826530 0
M  V30 17 C 5.839696 1.241948 0.349352 0
M  V30 18 C 4.615770 0.741143 -0.378012 0
M  V30 19 O 4.635486 -0.059182 -1.360105 0
M  V30 20 C -3.170251 2.011739 0.846250 0
M  V30 21 C -4.358114 1.326283 0.729477 0
M  V30 22 C -4.377393 -0.049665 0.672398 0
M  V30 23 F -5.562753 -0.692485 0.557119 0
M  V30 24 C -3.118613 -4.436899 -0.285087 0
M  V30 25 C -3.041705 -5.223658 -1.425033 0
M  V30 26 C -3.045859 -6.622763 -1.396731 0
M  V30 27 C -3.131715 -7.235092 -0.158709 0
M  V30 28 C -3.209941 -6.483952 0.999646 0
M  V30 29 C -3.202089 -5.104524 0.917005 0
M  V30 30 H -3.254393 -2.483884 1.659185 0
M  V30 31 H -1.123795 -0.578016 0.907128 0
M  V30 32 H -0.896834 3.107247 1.417217 0
M  V30 33 H 0.214169 0.308310 -0.787534 0
M  V30 34 H 2.493551 -0.236224 -1.301056 0
M  V30 35 H 1.444477 3.254166 2.034710 0
M  V30 36 H 3.524578 3.746829 2.362244 0
M  V30 37 H 4.640163 3.389840 0.969221 0
M  V30 38 H 4.044956 1.340733 3.155221 0
M  V30 39 H 5.330591 2.539138 3.332106 0
M  V30 40 H 5.414148 0.018320 2.000538 0
M  V30 41 H 6.721022 1.166769 2.283779 0
M  V30 42 H 6.030712 2.271620 -0.003926 0
M  V30 43 H 6.693812 0.640188 -0.021126 0
M  V30 44 H -3.194064 3.110444 0.889121 0
M  V30 45 H -5.273662 1.896639 0.683913 0
M  V30 46 H -2.972643 -4.799255 -2.422364 0
M  V30 47 H -2.985758 -7.212673 -2.288919 0
M  V30 48 H -3.141289 -8.320160 -0.043475 0
M  V30 49 H -3.279764 -6.924155 2.006552 0
M  V30 50 H -3.262781 -4.515910 1.815417 0
M  V30 END ATOM
M  V30 BEGIN BOND
M  V30 1 2 1 2
M  V30 2 1 2 3
M  V30 3 1 3 4
M  V30 4 2 4 5
M  V30 5 1 5 6
M  V30 6 1 6 7
M  V30 7 1 7 8
M  V30 8 2 8 9
M  V30 9 1 9 10
M  V30 10 2 10 11
M  V30 11 1 11 12
M  V30 12 2 12 13
M  V30 13 1 12 14
M  V30 14 1 14 15
M  V30 15 1 15 16
M  V30 16 1 16 17
M  V30 17 1 17 18
M  V30 18 2 18 19
M  V30 19 2 6 20
M  V30 20 1 20 21
M  V30 21 2 21 22
M  V30 22 1 22 23
M  V30 23 1 2 24
M  V30 24 2 24 25
M  V30 25 1 25 26
M  V30 26 2 26 27
M  V30 27 1 27 28
M  V30 28 2 28 29
M  V30 29 1 22 4
M  V30 30 1 29 24
M  V30 31 1 13 8
M  V30 32 1 18 11
M  V30 33 1 3 30
M  V30 34 1 5 31
M  V30 35 1 7 32
M  V30 36 1 9 33
M  V30 37 1 10 34
M  V30 38 1 13 35
M  V30 39 1 14 36
M  V30 40 1 14 37
M  V30 41 1 15 38
M  V30 42 1 15 39
M  V30 43 1 16 40
M  V30 44 1 16 41
M  V30 45 1 17 42
M  V30 46 1 17 43
M  V30 47 1 20 44
M  V30 48 1 21 45
M  V30 49 1 25 46
M  V30 50 1 26 47
M  V30 51 1 27 48
M  V30 52 1 28 49
M  V30 53 1 29 50
M  V30 END BOND
M  V30 END CTAB
M  END
>  <Dataset>  (671) 
ChEMBL_Kinases

>  <Ligand_Instance>  (671) 
nan

>  <PDB_ID>  (671) 
nan

>  <Standardized_SMILES>  (671) 
O=C(Nc1cc(Nc2ccc3c(c2)CCCCC3=O)ccc1F)c1ccccc1

>  <Name>  (671) 
nan

>  <Pocket>  (671) 
nan

>  <ATP_Site>  (671) 
nan

>  <Peripheral>  (671) 
nan

>  <Num_H_Atoms_ProtBoundConf>  (671) 
nan

>  <Num_Resolved_Atoms>  (671) 
nan

>  <Num_Not_Resolved_Atoms>  (671) 
nan

$$$$
CHEMBL2177180
     RDKit          3D

  0  0  0  0  0  0  0  0  0  0999 V3000
M  V30 BEGIN CTAB
M  V30 COUNTS 59 61 0 0 0
M  V30 BEGIN ATOM
M  V30 1 C -1.289943 -0.301362 7.484168 0
M  V30 2 O -1.242471 -0.270268 6.093225 0
M  V30 3 C -0.325036 -1.146101 5.547166 0
M  V30 4 C 1.084796 -0.865891 6.001677 0
M  V30 5 C 2.059719 -1.858916 5.362266 0
M  V30 6 N 1.945546 -1.643994 3.910511 0
M  V30 7 C 2.830090 -2.573017 3.265367 0
M  V30 8 O 3.357965 -3.219624 4.181141 0
M  V30 9 C 2.911815 -2.562614 1.818434 0
M  V30 10 N 2.211128 -1.686698 1.087450 0
M  V30 11 C 2.301718 -1.674771 -0.269994 0
M  V30 12 C 1.526168 -0.704483 -1.017686 0
M  V30 13 C 0.699035 0.218504 -0.430446 0
M  V30 14 C 0.019186 1.083270 -1.250706 0
M  V30 15 C 0.091766 1.113553 -2.658391 0
M  V30 16 S -0.810173 2.255610 -3.575972 0
M  V30 17 O -0.075833 2.543562 -4.877106 0
M  V30 18 O -0.870884 3.556346 -2.831059 0
M  V30 19 N -2.400804 1.776632 -3.954155 0
M  V30 20 C -2.492131 0.594515 -4.754695 0
M  V30 21 C -2.598502 -0.671988 -3.985284 0
M  V30 22 N -2.523231 -0.563895 -2.566569 0
M  V30 23 C -3.018367 -1.815418 -1.994943 0
M  V30 24 C -3.323486 0.503267 -2.060186 0
M  V30 25 C -3.289758 1.776898 -2.825472 0
M  V30 26 C 0.959300 0.134648 -3.163165 0
M  V30 27 C 1.665211 -0.758485 -2.377899 0
M  V30 28 C 3.147926 -2.609653 -0.818889 0
M  V30 29 N 3.844115 -3.482486 -0.072077 0
M  V30 30 C 3.746463 -3.485931 1.278446 0
M  V30 31 N 4.545902 -4.474818 1.922873 0
M  V30 32 H -2.044331 0.418670 7.867484 0
M  V30 33 H -1.558385 -1.305596 7.875520 0
M  V30 34 H -0.325938 0.012043 7.938669 0
M  V30 35 H -0.399961 -1.182577 4.452875 0
M  V30 36 H -0.632166 -2.165599 5.942645 0
M  V30 37 H 1.324466 0.178019 5.770307 0
M  V30 38 H 1.182686 -1.037033 7.093534 0
M  V30 39 H 1.653315 -2.866051 5.537285 0
M  V30 40 H 3.074096 -1.681968 5.719364 0
M  V30 41 H 1.338657 -0.945438 3.408168 0
M  V30 42 H 0.588446 0.261942 0.641245 0
M  V30 43 H -0.635540 1.812717 -0.770289 0
M  V30 44 H -1.712258 0.625751 -5.537954 0
M  V30 45 H -3.458943 0.693305 -5.333423 0
M  V30 46 H -3.534921 -1.261081 -4.213903 0
M  V30 47 H -1.777406 -1.387156 -4.284652 0
M  V30 48 H -2.982809 -2.620194 -2.758822 0
M  V30 49 H -4.095634 -1.654848 -1.779462 0
M  V30 50 H -2.475249 -2.092814 -1.069307 0
M  V30 51 H -2.979779 0.711186 -1.004244 0
M  V30 52 H -4.376605 0.116538 -1.942934 0
M  V30 53 H -2.998840 2.663740 -2.186841 0
M  V30 54 H -4.311215 2.007910 -3.194197 0
M  V30 55 H 0.982706 0.198629 -4.254073 0
M  V30 56 H 2.250934 -1.391420 -3.008000 0
M  V30 57 H 3.272626 -2.662634 -1.873130 0
M  V30 58 H 5.338485 -3.849411 2.275221 0
M  V30 59 H 5.275201 -3.797958 2.230434 0
M  V30 END ATOM
M  V30 BEGIN BOND
M  V30 1 1 1 2
M  V30 2 1 2 3
M  V30 3 1 3 4
M  V30 4 1 4 5
M  V30 5 1 5 6
M  V30 6 1 6 7
M  V30 7 2 7 8
M  V30 8 1 7 9
M  V30 9 2 9 10
M  V30 10 1 10 11
M  V30 11 1 11 12
M  V30 12 2 12 13
M  V30 13 1 13 14
M  V30 14 2 14 15
M  V30 15 1 15 16
M  V30 16 2 16 17
M  V30 17 2 16 18
M  V30 18 1 16 19
M  V30 19 1 19 20
M  V30 20 1 20 21
M  V30 21 1 21 22
M  V30 22 1 22 23
M  V30 23 1 22 24
M  V30 24 1 24 25
M  V30 25 1 15 26
M  V30 26 2 26 27
M  V30 27 2 11 28
M  V30 28 1 28 29
M  V30 29 2 29 30
M  V30 30 1 30 31
M  V30 31 1 30 9
M  V30 32 1 27 12
M  V30 33 1 25 19
M  V30 34 1 1 32
M  V30 35 1 1 33
M  V30 36 1 1 34
M  V30 37 1 3 35
M  V30 38 1 3 36
M  V30 39 1 4 37
M  V30 40 1 4 38
M  V30 41 1 5 39
M  V30 42 1 5 40
M  V30 43 1 6 41
M  V30 44 1 13 42
M  V30 45 1 14 43
M  V30 46 1 20 44
M  V30 47 1 20 45
M  V30 48 1 21 46
M  V30 49 1 21 47
M  V30 50 1 23 48
M  V30 51 1 23 49
M  V30 52 1 23 50
M  V30 53 1 24 51
M  V30 54 1 24 52
M  V30 55 1 25 53
M  V30 56 1 25 54
M  V30 57 1 26 55
M  V30 58 1 27 56
M  V30 59 1 28 57
M  V30 60 1 31 58
M  V30 61 1 31 59
M  V30 END BOND
M  V30 END CTAB
M  END
>  <Dataset>  (672) 
ChEMBL_Kinases

>  <Ligand_Instance>  (672) 
nan

>  <PDB_ID>  (672) 
nan

>  <Standardized_SMILES>  (672) 
COCCCNC(=O)c1nc(-c2ccc(S(=O)(=O)N3CCN(C)CC3)cc2)cnc1N

>  <Name>  (672) 
nan

>  <Pocket>  (672) 
nan

>  <ATP_Site>  (672) 
nan

>  <Peripheral>  (672) 
nan

>  <Num_H_Atoms_ProtBoundConf>  (672) 
nan

>  <Num_Resolved_Atoms>  (672) 
nan

>  <Num_Not_Resolved_Atoms>  (672) 
nan

$$$$
CHEMBL2177179
     RDKit          3D

  0  0  0  0  0  0  0  0  0  0999 V3000
M  V30 BEGIN CTAB
M  V30 COUNTS 56 58 0 0 0
M  V30 BEGIN ATOM
M  V30 1 C 6.281856 3.745917 3.743131 0
M  V30 2 O 5.726698 2.501607 3.481554 0
M  V30 3 C 4.611869 2.270496 4.238967 0
M  V30 4 C 3.937261 0.944981 4.026529 0
M  V30 5 N 3.486436 0.764005 2.666688 0
M  V30 6 C 4.187568 0.731783 1.461628 0
M  V30 7 O 5.435708 0.876454 1.489852 0
M  V30 8 C 3.559870 0.539359 0.160054 0
M  V30 9 N 2.222369 0.375555 0.030556 0
M  V30 10 C 1.616993 0.196355 -1.156946 0
M  V30 11 C 0.163891 0.030188 -1.172170 0
M  V30 12 C -0.495120 0.068379 0.039988 0
M  V30 13 C -1.869327 -0.090878 0.003431 0
M  V30 14 C -2.638568 -0.283438 -1.126930 0
M  V30 15 S -4.342605 -0.459496 -0.942887 0
M  V30 16 O -5.009152 0.163565 -2.134515 0
M  V30 17 O -4.775279 0.321196 0.282550 0
M  V30 18 N -4.879214 -2.061345 -0.722829 0
M  V30 19 C -4.306464 -2.615289 0.491200 0
M  V30 20 C -5.222807 -3.730813 0.955758 0
M  V30 21 N -5.737503 -4.444590 -0.201110 0
M  V30 22 C -5.853016 -5.840577 0.174132 0
M  V30 23 C -4.808522 -4.377652 -1.315410 0
M  V30 24 C -4.604945 -2.957084 -1.800730 0
M  V30 25 C -1.924992 -0.314634 -2.330427 0
M  V30 26 C -0.542489 -0.158967 -2.342574 0
M  V30 27 C 2.426164 0.186359 -2.250842 0
M  V30 28 N 3.763242 0.344723 -2.179309 0
M  V30 29 C 4.356550 0.525172 -0.963659 0
M  V30 30 N 5.753246 0.689340 -0.901633 0
M  V30 31 H 5.550117 4.554969 3.522035 0
M  V30 32 H 7.221482 3.879157 3.207373 0
M  V30 33 H 6.465837 3.816686 4.846702 0
M  V30 34 H 4.938841 2.351961 5.312172 0
M  V30 35 H 3.905221 3.121935 4.096878 0
M  V30 36 H 4.740164 0.171609 4.202540 0
M  V30 37 H 3.124261 0.827047 4.753840 0
M  V30 38 H 2.439254 0.629835 2.534828 0
M  V30 39 H 0.022971 0.214493 0.977646 0
M  V30 40 H -2.363046 -0.055318 0.986414 0
M  V30 41 H -3.350328 -3.118832 0.168215 0
M  V30 42 H -4.093210 -1.881002 1.269559 0
M  V30 43 H -6.104698 -3.341724 1.503792 0
M  V30 44 H -4.704489 -4.436095 1.636024 0
M  V30 45 H -4.934168 -6.137365 0.714041 0
M  V30 46 H -5.901860 -6.501617 -0.724966 0
M  V30 47 H -6.782535 -5.979117 0.784718 0
M  V30 48 H -3.854049 -4.837938 -0.952852 0
M  V30 49 H -5.202587 -5.052517 -2.103066 0
M  V30 50 H -5.266217 -2.847827 -2.686220 0
M  V30 51 H -3.567557 -2.872753 -2.169613 0
M  V30 52 H -2.523176 -0.465257 -3.218703 0
M  V30 53 H -0.050039 -0.190989 -3.285591 0
M  V30 54 H 1.972750 0.044801 -3.219254 0
M  V30 55 H 6.248606 1.599021 -1.046838 0
M  V30 56 H 6.172245 -0.239697 -0.690878 0
M  V30 END ATOM
M  V30 BEGIN BOND
M  V30 1 1 1 2
M  V30 2 1 2 3
M  V30 3 1 3 4
M  V30 4 1 4 5
M  V30 5 1 5 6
M  V30 6 2 6 7
M  V30 7 1 6 8
M  V30 8 2 8 9
M  V30 9 1 9 10
M  V30 10 1 10 11
M  V30 11 2 11 12
M  V30 12 1 12 13
M  V30 13 2 13 14
M  V30 14 1 14 15
M  V30 15 2 15 16
M  V30 16 2 15 17
M  V30 17 1 15 18
M  V30 18 1 18 19
M  V30 19 1 19 20
M  V30 20 1 20 21
M  V30 21 1 21 22
M  V30 22 1 21 23
M  V30 23 1 23 24
M  V30 24 1 14 25
M  V30 25 2 25 26
M  V30 26 2 10 27
M  V30 27 1 27 28
M  V30 28 2 28 29
M  V30 29 1 29 30
M  V30 30 1 29 8
M  V30 31 1 26 11
M  V30 32 1 24 18
M  V30 33 1 1 31
M  V30 34 1 1 32
M  V30 35 1 1 33
M  V30 36 1 3 34
M  V30 37 1 3 35
M  V30 38 1 4 36
M  V30 39 1 4 37
M  V30 40 1 5 38
M  V30 41 1 12 39
M  V30 42 1 13 40
M  V30 43 1 19 41
M  V30 44 1 19 42
M  V30 45 1 20 43
M  V30 46 1 20 44
M  V30 47 1 22 45
M  V30 48 1 22 46
M  V30 49 1 22 47
M  V30 50 1 23 48
M  V30 51 1 23 49
M  V30 52 1 24 50
M  V30 53 1 24 51
M  V30 54 1 25 52
M  V30 55 1 26 53
M  V30 56 1 27 54
M  V30 57 1 30 55
M  V30 58 1 30 56
M  V30 END BOND
M  V30 END CTAB
M  END
>  <Dataset>  (673) 
ChEMBL_Kinases

>  <Ligand_Instance>  (673) 
nan

>  <PDB_ID>  (673) 
nan

>  <Standardized_SMILES>  (673) 
COCCNC(=O)c1nc(-c2ccc(S(=O)(=O)N3CCN(C)CC3)cc2)cnc1N

>  <Name>  (673) 
nan

>  <Pocket>  (673) 
nan

>  <ATP_Site>  (673) 
nan

>  <Peripheral>  (673) 
nan

>  <Num_H_Atoms_ProtBoundConf>  (673) 
nan

>  <Num_Resolved_Atoms>  (673) 
nan

>  <Num_Not_Resolved_Atoms>  (673) 
nan

$$$$
CHEMBL2177178
     RDKit          3D

  0  0  0  0  0  0  0  0  0  0999 V3000
M  V30 BEGIN CTAB
M  V30 COUNTS 60 63 0 0 0
M  V30 BEGIN ATOM
M  V30 1 C 7.155959 -4.707797 1.298916 0
M  V30 2 O 6.296714 -3.675280 0.905976 0
M  V30 3 C 5.893822 -2.692324 1.801140 0
M  V30 4 C 6.237930 -2.563239 3.131865 0
M  V30 5 C 5.738791 -1.514672 3.874064 0
M  V30 6 C 4.892509 -0.572223 3.326608 0
M  V30 7 C 4.543899 -0.693877 1.999154 0
M  V30 8 N 3.670717 0.282960 1.450183 0
M  V30 9 C 3.807830 1.536946 0.800052 0
M  V30 10 O 4.875686 2.107826 0.547793 0
M  V30 11 C 2.554381 2.177751 0.410171 0
M  V30 12 N 1.333182 1.654868 0.629664 0
M  V30 13 C 0.193107 2.231199 0.278805 0
M  V30 14 C -1.069130 1.559251 0.574486 0
M  V30 15 C -0.997579 0.338648 1.215010 0
M  V30 16 C -2.115693 -0.397783 1.551569 0
M  V30 17 C -3.370951 0.109954 1.232455 0
M  V30 18 S -4.887148 -0.639676 1.559664 0
M  V30 19 O -5.885103 0.415849 1.938814 0
M  V30 20 O -4.700987 -1.496786 2.798550 0
M  V30 21 N -5.466980 -1.670318 0.327451 0
M  V30 22 C -5.713115 -1.051475 -0.931072 0
M  V30 23 C -4.928045 -1.718608 -2.060613 0
M  V30 24 N -5.458803 -3.060709 -2.166868 0
M  V30 25 C -4.822340 -3.824745 -3.217838 0
M  V30 26 C -5.409670 -3.714794 -0.889377 0
M  V30 27 C -4.716029 -2.872964 0.177852 0
M  V30 28 C -3.432582 1.348652 0.582694 0
M  V30 29 C -2.302963 2.080160 0.249273 0
M  V30 30 C 0.301611 3.451918 -0.353898 0
M  V30 31 N 1.502244 4.013384 -0.594470 0
M  V30 32 C 2.663786 3.397994 -0.222200 0
M  V30 33 N 3.914747 4.020468 -0.492500 0
M  V30 34 C 5.041984 -1.750063 1.236875 0
M  V30 35 H 6.613260 -5.555035 1.791086 0
M  V30 36 H 7.680942 -5.083466 0.396047 0
M  V30 37 H 7.904656 -4.291564 2.003816 0
M  V30 38 H 6.902765 -3.331021 3.502644 0
M  V30 39 H 6.022609 -1.435875 4.914559 0
M  V30 40 H 4.495681 0.260569 3.913748 0
M  V30 41 H 2.737513 -0.149522 1.635748 0
M  V30 42 H -0.058134 -0.144035 1.507255 0
M  V30 43 H -2.107767 -1.346720 2.047706 0
M  V30 44 H -6.782490 -1.234474 -1.194161 0
M  V30 45 H -5.592348 0.040197 -0.952714 0
M  V30 46 H -3.844634 -1.692849 -1.908873 0
M  V30 47 H -5.152300 -1.112178 -2.963585 0
M  V30 48 H -3.843060 -4.226533 -2.944242 0
M  V30 49 H -5.535808 -4.632897 -3.502433 0
M  V30 50 H -4.724360 -3.173735 -4.096330 0
M  V30 51 H -4.928325 -4.714303 -0.947142 0
M  V30 52 H -6.467728 -3.898865 -0.567726 0
M  V30 53 H -4.753071 -3.521658 1.100701 0
M  V30 54 H -3.681711 -2.706987 -0.147317 0
M  V30 55 H -4.377971 1.814094 0.298688 0
M  V30 56 H -2.366810 3.033862 -0.251376 0
M  V30 57 H -0.601607 3.958148 -0.657844 0
M  V30 58 H 4.347458 3.808730 -1.438601 0
M  V30 59 H 4.035639 3.618594 -1.440154 0
M  V30 60 H 4.692489 -1.737939 0.195124 0
M  V30 END ATOM
M  V30 BEGIN BOND
M  V30 1 1 1 2
M  V30 2 1 2 3
M  V30 3 2 3 4
M  V30 4 1 4 5
M  V30 5 2 5 6
M  V30 6 1 6 7
M  V30 7 1 7 8
M  V30 8 1 8 9
M  V30 9 2 9 10
M  V30 10 1 9 11
M  V30 11 2 11 12
M  V30 12 1 12 13
M  V30 13 1 13 14
M  V30 14 2 14 15
M  V30 15 1 15 16
M  V30 16 2 16 17
M  V30 17 1 17 18
M  V30 18 2 18 19
M  V30 19 2 18 20
M  V30 20 1 18 21
M  V30 21 1 21 22
M  V30 22 1 22 23
M  V30 23 1 23 24
M  V30 24 1 24 25
M  V30 25 1 24 26
M  V30 26 1 26 27
M  V30 27 1 17 28
M  V30 28 2 28 29
M  V30 29 2 13 30
M  V30 30 1 30 31
M  V30 31 2 31 32
M  V30 32 1 32 33
M  V30 33 2 7 34
M  V30 34 1 34 3
M  V30 35 1 32 11
M  V30 36 1 29 14
M  V30 37 1 27 21
M  V30 38 1 1 35
M  V30 39 1 1 36
M  V30 40 1 1 37
M  V30 41 1 4 38
M  V30 42 1 5 39
M  V30 43 1 6 40
M  V30 44 1 8 41
M  V30 45 1 15 42
M  V30 46 1 16 43
M  V30 47 1 22 44
M  V30 48 1 22 45
M  V30 49 1 23 46
M  V30 50 1 23 47
M  V30 51 1 25 48
M  V30 52 1 25 49
M  V30 53 1 25 50
M  V30 54 1 26 51
M  V30 55 1 26 52
M  V30 56 1 27 53
M  V30 57 1 27 54
M  V30 58 1 28 55
M  V30 59 1 29 56
M  V30 60 1 30 57
M  V30 61 1 33 58
M  V30 62 1 33 59
M  V30 63 1 34 60
M  V30 END BOND
M  V30 END CTAB
M  END
>  <Dataset>  (674) 
ChEMBL_Kinases

>  <Ligand_Instance>  (674) 
nan

>  <PDB_ID>  (674) 
nan

>  <Standardized_SMILES>  (674) 
COc1cccc(NC(=O)c2nc(-c3ccc(S(=O)(=O)N4CCN(C)CC4)cc3)cnc2N)c1

>  <Name>  (674) 
nan

>  <Pocket>  (674) 
nan

>  <ATP_Site>  (674) 
nan

>  <Peripheral>  (674) 
nan

>  <Num_H_Atoms_ProtBoundConf>  (674) 
nan

>  <Num_Resolved_Atoms>  (674) 
nan

>  <Num_Not_Resolved_Atoms>  (674) 
nan

$$$$
CHEMBL2177177
     RDKit          3D

  0  0  0  0  0  0  0  0  0  0999 V3000
M  V30 BEGIN CTAB
M  V30 COUNTS 51 54 0 0 0
M  V30 BEGIN ATOM
M  V30 1 C 0.568181 -3.331728 1.968264 0
M  V30 2 N 1.591826 -4.127964 2.557841 0
M  V30 3 C 2.552900 -3.405039 3.322377 0
M  V30 4 C 3.895236 -3.320215 2.685943 0
M  V30 5 N 3.937550 -3.420869 1.270385 0
M  V30 6 S 4.035504 -1.972048 0.400924 0
M  V30 7 O 4.142922 -2.335712 -1.067469 0
M  V30 8 O 5.356738 -1.287095 0.720720 0
M  V30 9 C 2.719950 -0.882739 0.599547 0
M  V30 10 C 1.594906 -0.910822 -0.214471 0
M  V30 11 C 0.531180 -0.017021 -0.040269 0
M  V30 12 C 0.617951 0.913479 0.974510 0
M  V30 13 C -0.505765 1.830696 1.131196 0
M  V30 14 C -0.590997 2.820507 2.087024 0
M  V30 15 N -1.654766 3.640375 2.186007 0
M  V30 16 C -2.700693 3.512452 1.325198 0
M  V30 17 N -3.854335 4.354588 1.384301 0
M  V30 18 C -2.633518 2.527493 0.361739 0
M  V30 19 C -3.716386 2.331018 -0.594732 0
M  V30 20 O -4.731579 3.076316 -0.536767 0
M  V30 21 N -3.659487 1.335864 -1.577196 0
M  V30 22 C -4.741604 1.140548 -2.531885 0
M  V30 23 N -4.715863 0.205146 -3.476026 0
M  V30 24 C -5.833646 0.248025 -4.210395 0
M  V30 25 N -6.962740 1.213262 -4.003959 0
M  V30 26 S -6.145786 2.063168 -2.560879 0
M  V30 27 N -1.543349 1.710372 0.284030 0
M  V30 28 C 1.735971 0.940032 1.782001 0
M  V30 29 C 2.783602 0.058065 1.608725 0
M  V30 30 C 3.139749 -4.452722 0.698298 0
M  V30 31 C 2.120674 -5.056927 1.612746 0
M  V30 32 H -0.431118 -3.690752 2.295403 0
M  V30 33 H 0.581636 -3.477009 0.868382 0
M  V30 34 H 0.679098 -2.237022 2.195172 0
M  V30 35 H 2.151626 -2.368700 3.493073 0
M  V30 36 H 2.619548 -3.844438 4.356686 0
M  V30 37 H 4.519000 -4.167705 3.087199 0
M  V30 38 H 4.459733 -2.410820 2.988342 0
M  V30 39 H 1.586127 -1.662660 -0.991636 0
M  V30 40 H -0.306475 -0.120580 -0.731047 0
M  V30 41 H 0.233117 2.932563 2.776719 0
M  V30 42 H -3.453626 5.133246 0.826482 0
M  V30 43 H -4.697795 4.020762 1.903812 0
M  V30 44 H -2.805981 0.751078 -1.583151 0
M  V30 45 H -5.973581 -0.451095 -5.026926 0
M  V30 46 H 1.810117 1.661998 2.574010 0
M  V30 47 H 3.640875 0.133347 2.284218 0
M  V30 48 H 2.716488 -4.125823 -0.272799 0
M  V30 49 H 3.854805 -5.283189 0.425083 0
M  V30 50 H 1.258466 -5.362459 0.959204 0
M  V30 51 H 2.471318 -5.957953 2.148707 0
M  V30 END ATOM
M  V30 BEGIN BOND
M  V30 1 1 1 2
M  V30 2 1 2 3
M  V30 3 1 3 4
M  V30 4 1 4 5
M  V30 5 1 5 6
M  V30 6 2 6 7
M  V30 7 2 6 8
M  V30 8 1 6 9
M  V30 9 2 9 10
M  V30 10 1 10 11
M  V30 11 2 11 12
M  V30 12 1 12 13
M  V30 13 2 13 14
M  V30 14 1 14 15
M  V30 15 2 15 16
M  V30 16 1 16 17
M  V30 17 1 16 18
M  V30 18 1 18 19
M  V30 19 2 19 20
M  V30 20 1 19 21
M  V30 21 1 21 22
M  V30 22 2 22 23
M  V30 23 1 23 24
M  V30 24 2 24 25
M  V30 25 1 25 26
M  V30 26 2 18 27
M  V30 27 1 12 28
M  V30 28 2 28 29
M  V30 29 1 5 30
M  V30 30 1 30 31
M  V30 31 1 31 2
M  V30 32 1 29 9
M  V30 33 1 27 13
M  V30 34 1 26 22
M  V30 35 1 1 32
M  V30 36 1 1 33
M  V30 37 1 1 34
M  V30 38 1 3 35
M  V30 39 1 3 36
M  V30 40 1 4 37
M  V30 41 1 4 38
M  V30 42 1 10 39
M  V30 43 1 11 40
M  V30 44 1 14 41
M  V30 45 1 17 42
M  V30 46 1 17 43
M  V30 47 1 21 44
M  V30 48 1 24 45
M  V30 49 1 28 46
M  V30 50 1 29 47
M  V30 51 1 30 48
M  V30 52 1 30 49
M  V30 53 1 31 50
M  V30 54 1 31 51
M  V30 END BOND
M  V30 END CTAB
M  END
>  <Dataset>  (675) 
ChEMBL_Kinases

>  <Ligand_Instance>  (675) 
nan

>  <PDB_ID>  (675) 
nan

>  <Standardized_SMILES>  (675) 
CN1CCN(S(=O)(=O)c2ccc(-c3cnc(N)c(C(=O)Nc4ncns4)n3)cc2)CC1

>  <Name>  (675) 
nan

>  <Pocket>  (675) 
nan

>  <ATP_Site>  (675) 
nan

>  <Peripheral>  (675) 
nan

>  <Num_H_Atoms_ProtBoundConf>  (675) 
nan

>  <Num_Resolved_Atoms>  (675) 
nan

>  <Num_Not_Resolved_Atoms>  (675) 
nan

$$$$
CHEMBL2177176
     RDKit          3D

  0  0  0  0  0  0  0  0  0  0999 V3000
M  V30 BEGIN CTAB
M  V30 COUNTS 60 63 0 0 0
M  V30 BEGIN ATOM
M  V30 1 C 5.468782 -8.221334 -3.132572 0
M  V30 2 O 5.597695 -6.932151 -3.742278 0
M  V30 3 C 4.813348 -5.895968 -3.268558 0
M  V30 4 C 3.951523 -6.119142 -2.240780 0
M  V30 5 C 3.166718 -5.094919 -1.764269 0
M  V30 6 C 3.288632 -3.849784 -2.363777 0
M  V30 7 N 2.468485 -2.821590 -1.841275 0
M  V30 8 C 1.182757 -2.536109 -2.252465 0
M  V30 9 O 1.178580 -3.502640 -3.145154 0
M  V30 10 C -0.124901 -1.993005 -2.437395 0
M  V30 11 N -0.276235 -0.972686 -1.588591 0
M  V30 12 C -1.378350 -0.214794 -1.467024 0
M  V30 13 C -1.575017 0.901643 -0.554731 0
M  V30 14 C -2.723950 1.656705 -0.454639 0
M  V30 15 C -2.726941 2.678550 0.465407 0
M  V30 16 C -1.670528 3.006307 1.294403 0
M  V30 17 S -1.718396 4.307854 2.452534 0
M  V30 18 O -0.344643 4.925400 2.636165 0
M  V30 19 O -2.592982 5.442172 1.967500 0
M  V30 20 N -2.218963 3.729001 3.979708 0
M  V30 21 C -3.522974 3.160293 4.024081 0
M  V30 22 C -3.748343 2.433173 5.311395 0
M  V30 23 N -2.795488 1.366530 5.468619 0
M  V30 24 C -2.577895 1.109426 6.883043 0
M  V30 25 C -1.537955 1.575005 4.827278 0
M  V30 26 C -1.207318 3.057672 4.729640 0
M  V30 27 C -0.535887 2.225533 1.163645 0
M  V30 28 C -0.466215 1.174035 0.251033 0
M  V30 29 C -2.376242 -0.599499 -2.329274 0
M  V30 30 N -2.258896 -1.618167 -3.193890 0
M  V30 31 C -1.128103 -2.348570 -3.275951 0
M  V30 32 N -0.903526 -3.441782 -4.150221 0
M  V30 33 C 4.160213 -3.616153 -3.406237 0
M  V30 34 C 4.943287 -4.663878 -3.872159 0
M  V30 35 H 4.488894 -8.600436 -3.485526 0
M  V30 36 H 6.263098 -8.909201 -3.485313 0
M  V30 37 H 5.537457 -8.185152 -2.033249 0
M  V30 38 H 3.837226 -7.093127 -1.750935 0
M  V30 39 H 2.463631 -5.251035 -0.933960 0
M  V30 40 H 2.452856 -2.024442 -1.109555 0
M  V30 41 H -3.555957 1.416172 -1.095765 0
M  V30 42 H -3.606601 3.299529 0.580328 0
M  V30 43 H -3.670018 2.470076 3.142578 0
M  V30 44 H -4.274036 3.975702 3.954917 0
M  V30 45 H -4.797115 2.074805 5.423643 0
M  V30 46 H -3.583819 3.177098 6.136329 0
M  V30 47 H -2.474541 -0.000085 7.021247 0
M  V30 48 H -3.509115 1.457024 7.412509 0
M  V30 49 H -1.693777 1.656367 7.280535 0
M  V30 50 H -0.753043 1.068221 5.449026 0
M  V30 51 H -1.457153 1.160491 3.821768 0
M  V30 52 H -1.057232 3.514281 5.744330 0
M  V30 53 H -0.206441 3.132459 4.241301 0
M  V30 54 H 0.331316 2.447021 1.799914 0
M  V30 55 H 0.463983 0.588605 0.194916 0
M  V30 56 H -3.328987 -0.128095 -2.391138 0
M  V30 57 H -0.812974 -3.235681 -5.167109 0
M  V30 58 H -0.815451 -4.468511 -3.895783 0
M  V30 59 H 4.251982 -2.644905 -3.872088 0
M  V30 60 H 5.652221 -4.549276 -4.691262 0
M  V30 END ATOM
M  V30 BEGIN BOND
M  V30 1 1 1 2
M  V30 2 1 2 3
M  V30 3 2 3 4
M  V30 4 1 4 5
M  V30 5 2 5 6
M  V30 6 1 6 7
M  V30 7 1 7 8
M  V30 8 2 8 9
M  V30 9 1 8 10
M  V30 10 2 10 11
M  V30 11 1 11 12
M  V30 12 1 12 13
M  V30 13 2 13 14
M  V30 14 1 14 15
M  V30 15 2 15 16
M  V30 16 1 16 17
M  V30 17 2 17 18
M  V30 18 2 17 19
M  V30 19 1 17 20
M  V30 20 1 20 21
M  V30 21 1 21 22
M  V30 22 1 22 23
M  V30 23 1 23 24
M  V30 24 1 23 25
M  V30 25 1 25 26
M  V30 26 1 16 27
M  V30 27 2 27 28
M  V30 28 2 12 29
M  V30 29 1 29 30
M  V30 30 2 30 31
M  V30 31 1 31 32
M  V30 32 1 6 33
M  V30 33 2 33 34
M  V30 34 1 34 3
M  V30 35 1 31 10
M  V30 36 1 28 13
M  V30 37 1 26 20
M  V30 38 1 1 35
M  V30 39 1 1 36
M  V30 40 1 1 37
M  V30 41 1 4 38
M  V30 42 1 5 39
M  V30 43 1 7 40
M  V30 44 1 14 41
M  V30 45 1 15 42
M  V30 46 1 21 43
M  V30 47 1 21 44
M  V30 48 1 22 45
M  V30 49 1 22 46
M  V30 50 1 24 47
M  V30 51 1 24 48
M  V30 52 1 24 49
M  V30 53 1 25 50
M  V30 54 1 25 51
M  V30 55 1 26 52
M  V30 56 1 26 53
M  V30 57 1 27 54
M  V30 58 1 28 55
M  V30 59 1 29 56
M  V30 60 1 32 57
M  V30 61 1 32 58
M  V30 62 1 33 59
M  V30 63 1 34 60
M  V30 END BOND
M  V30 END CTAB
M  END
>  <Dataset>  (676) 
ChEMBL_Kinases

>  <Ligand_Instance>  (676) 
nan

>  <PDB_ID>  (676) 
nan

>  <Standardized_SMILES>  (676) 
COc1ccc(NC(=O)c2nc(-c3ccc(S(=O)(=O)N4CCN(C)CC4)cc3)cnc2N)cc1

>  <Name>  (676) 
nan

>  <Pocket>  (676) 
nan

>  <ATP_Site>  (676) 
nan

>  <Peripheral>  (676) 
nan

>  <Num_H_Atoms_ProtBoundConf>  (676) 
nan

>  <Num_Resolved_Atoms>  (676) 
nan

>  <Num_Not_Resolved_Atoms>  (676) 
nan

$$$$
CHEMBL2177175
     RDKit          3D

  0  0  0  0  0  0  0  0  0  0999 V3000
M  V30 BEGIN CTAB
M  V30 COUNTS 60 63 0 0 0
M  V30 BEGIN ATOM
M  V30 1 C 3.975636 -2.011095 3.645055 0
M  V30 2 O 3.940509 -1.103576 2.533590 0
M  V30 3 C 5.111993 -0.602885 1.995660 0
M  V30 4 C 6.313740 -0.988799 2.543084 0
M  V30 5 C 7.517516 -0.528036 2.056027 0
M  V30 6 C 7.494425 0.344326 0.988484 0
M  V30 7 C 6.268180 0.701215 0.474983 0
M  V30 8 C 5.049096 0.264469 0.931766 0
M  V30 9 N 3.777077 0.616637 0.422171 0
M  V30 10 C 3.438970 1.470156 -0.638968 0
M  V30 11 O 4.345350 2.045199 -1.281860 0
M  V30 12 C 2.079634 1.757070 -1.074872 0
M  V30 13 N 1.049369 1.176024 -0.434505 0
M  V30 14 C -0.228568 1.384951 -0.771232 0
M  V30 15 C -1.334454 0.747637 -0.068795 0
M  V30 16 C -2.670114 0.920798 -0.365962 0
M  V30 17 C -3.645522 0.250491 0.383178 0
M  V30 18 C -3.305205 -0.601883 1.438967 0
M  V30 19 S -4.592700 -1.389494 2.325866 0
M  V30 20 O -5.741935 -0.426686 2.560989 0
M  V30 21 O -4.066106 -1.685920 3.728987 0
M  V30 22 N -5.092574 -2.830473 1.649188 0
M  V30 23 C -4.169344 -3.899332 1.528714 0
M  V30 24 C -3.531630 -3.849783 0.186239 0
M  V30 25 N -4.394597 -3.726332 -0.937483 0
M  V30 26 C -3.604865 -3.173951 -2.045501 0
M  V30 27 C -5.536364 -2.887842 -0.748622 0
M  V30 28 C -6.063961 -2.849531 0.645995 0
M  V30 29 C -1.948585 -0.778412 1.741597 0
M  V30 30 C -1.024680 -0.097476 0.976184 0
M  V30 31 C -0.402447 2.247708 -1.832059 0
M  V30 32 N 0.580156 2.855540 -2.508090 0
M  V30 33 C 1.864736 2.612700 -2.129680 0
M  V30 34 N 2.948029 3.225475 -2.805400 0
M  V30 35 H 4.576719 -1.583400 4.480646 0
M  V30 36 H 4.467981 -2.953648 3.334223 0
M  V30 37 H 2.966774 -2.281545 3.968065 0
M  V30 38 H 6.291592 -1.672504 3.377119 0
M  V30 39 H 8.448077 -0.848537 2.506346 0
M  V30 40 H 8.414876 0.724160 0.582418 0
M  V30 41 H 6.306315 1.383435 -0.356429 0
M  V30 42 H 2.921168 0.211773 0.861192 0
M  V30 43 H -2.924813 1.580048 -1.181926 0
M  V30 44 H -4.682691 0.441350 0.083949 0
M  V30 45 H -3.359602 -3.747687 2.288507 0
M  V30 46 H -4.654388 -4.888939 1.738431 0
M  V30 47 H -2.797167 -3.021640 0.163594 0
M  V30 48 H -2.937841 -4.781671 0.048789 0
M  V30 49 H -3.930804 -3.585640 -3.021238 0
M  V30 50 H -3.617271 -2.059517 -2.052769 0
M  V30 51 H -2.537615 -3.464302 -1.882392 0
M  V30 52 H -6.346553 -3.257383 -1.412795 0
M  V30 53 H -5.308947 -1.850488 -1.089947 0
M  V30 54 H -6.818462 -3.665374 0.786252 0
M  V30 55 H -6.668211 -1.898734 0.723594 0
M  V30 56 H -1.689522 -1.433221 2.552659 0
M  V30 57 H 0.017413 -0.271513 1.255212 0
M  V30 58 H -1.398331 2.481934 -2.181375 0
M  V30 59 H 3.399571 2.938061 -3.718122 0
M  V30 60 H 3.417639 2.971124 -3.702830 0
M  V30 END ATOM
M  V30 BEGIN BOND
M  V30 1 1 1 2
M  V30 2 1 2 3
M  V30 3 2 3 4
M  V30 4 1 4 5
M  V30 5 2 5 6
M  V30 6 1 6 7
M  V30 7 2 7 8
M  V30 8 1 8 9
M  V30 9 1 9 10
M  V30 10 2 10 11
M  V30 11 1 10 12
M  V30 12 2 12 13
M  V30 13 1 13 14
M  V30 14 1 14 15
M  V30 15 2 15 16
M  V30 16 1 16 17
M  V30 17 2 17 18
M  V30 18 1 18 19
M  V30 19 2 19 20
M  V30 20 2 19 21
M  V30 21 1 19 22
M  V30 22 1 22 23
M  V30 23 1 23 24
M  V30 24 1 24 25
M  V30 25 1 25 26
M  V30 26 1 25 27
M  V30 27 1 27 28
M  V30 28 1 18 29
M  V30 29 2 29 30
M  V30 30 2 14 31
M  V30 31 1 31 32
M  V30 32 2 32 33
M  V30 33 1 33 34
M  V30 34 1 8 3
M  V30 35 1 33 12
M  V30 36 1 30 15
M  V30 37 1 28 22
M  V30 38 1 1 35
M  V30 39 1 1 36
M  V30 40 1 1 37
M  V30 41 1 4 38
M  V30 42 1 5 39
M  V30 43 1 6 40
M  V30 44 1 7 41
M  V30 45 1 9 42
M  V30 46 1 16 43
M  V30 47 1 17 44
M  V30 48 1 23 45
M  V30 49 1 23 46
M  V30 50 1 24 47
M  V30 51 1 24 48
M  V30 52 1 26 49
M  V30 53 1 26 50
M  V30 54 1 26 51
M  V30 55 1 27 52
M  V30 56 1 27 53
M  V30 57 1 28 54
M  V30 58 1 28 55
M  V30 59 1 29 56
M  V30 60 1 30 57
M  V30 61 1 31 58
M  V30 62 1 34 59
M  V30 63 1 34 60
M  V30 END BOND
M  V30 END CTAB
M  END
>  <Dataset>  (677) 
ChEMBL_Kinases

>  <Ligand_Instance>  (677) 
nan

>  <PDB_ID>  (677) 
nan

>  <Standardized_SMILES>  (677) 
COc1ccccc1NC(=O)c1nc(-c2ccc(S(=O)(=O)N3CCN(C)CC3)cc2)cnc1N

>  <Name>  (677) 
nan

>  <Pocket>  (677) 
nan

>  <ATP_Site>  (677) 
nan

>  <Peripheral>  (677) 
nan

>  <Num_H_Atoms_ProtBoundConf>  (677) 
nan

>  <Num_Resolved_Atoms>  (677) 
nan

>  <Num_Not_Resolved_Atoms>  (677) 
nan

$$$$
CHEMBL2177174
     RDKit          3D

  0  0  0  0  0  0  0  0  0  0999 V3000
M  V30 BEGIN CTAB
M  V30 COUNTS 61 64 0 0 0
M  V30 BEGIN ATOM
M  V30 1 C 3.346008 0.416847 -1.166532 0
M  V30 2 N 3.184604 1.009639 0.129377 0
M  V30 3 C 4.145034 0.481205 1.074636 0
M  V30 4 C 3.282556 2.444570 0.140291 0
M  V30 5 C 3.110749 2.939937 1.514724 0
M  V30 6 C 4.085751 3.404377 2.388371 0
M  V30 7 C 3.752286 3.838688 3.656739 0
M  V30 8 N 2.471587 3.817860 4.066113 0
M  V30 9 C 1.493096 3.366044 3.227298 0
M  V30 10 C 1.799907 2.919370 1.936019 0
M  V30 11 N 0.616933 2.510004 1.286332 0
M  V30 12 C -0.373137 3.108887 0.462932 0
M  V30 13 O -0.372332 4.334215 0.097784 0
M  V30 14 C -1.469382 2.277539 -0.002823 0
M  V30 15 N -1.567541 0.979945 0.328678 0
M  V30 16 C -2.571932 0.189933 -0.087784 0
M  V30 17 C -2.651774 -1.215572 0.291156 0
M  V30 18 C -3.658741 -2.070099 -0.107668 0
M  V30 19 C -3.686267 -3.398085 0.283586 0
M  V30 20 C -2.690579 -3.908572 1.095798 0
M  V30 21 S -2.690564 -5.565604 1.606474 0
M  V30 22 O -2.131281 -5.697015 2.998925 0
M  V30 23 O -4.100991 -6.133938 1.694961 0
M  V30 24 N -1.834334 -6.615137 0.537311 0
M  V30 25 C -2.422796 -6.625236 -0.764808 0
M  V30 26 C -1.426393 -6.148125 -1.768345 0
M  V30 27 C -0.119920 -6.222037 -1.050914 0
M  V30 28 C -0.443408 -6.286410 0.409391 0
M  V30 29 C -1.659394 -3.064233 1.513723 0
M  V30 30 C -1.656481 -1.724199 1.102530 0
M  V30 31 C -3.497501 0.825407 -0.887543 0
M  V30 32 N -3.457857 2.113860 -1.254621 0
M  V30 33 C -2.414750 2.844960 -0.794776 0
M  V30 34 N -2.379510 4.227189 -1.193034 0
M  V30 35 H 4.172656 -0.322779 -1.109314 0
M  V30 36 H 3.653040 1.176343 -1.941206 0
M  V30 37 H 2.444722 -0.142454 -1.514186 0
M  V30 38 H 5.094486 1.050673 1.077694 0
M  V30 39 H 4.314301 -0.595083 0.932810 0
M  V30 40 H 3.734594 0.584293 2.120015 0
M  V30 41 H 4.264102 2.747143 -0.292511 0
M  V30 42 H 2.520917 2.837218 -0.560658 0
M  V30 43 H 5.086769 3.387415 1.980483 0
M  V30 44 H 4.555209 4.193039 4.301310 0
M  V30 45 H 0.527555 3.416884 3.711421 0
M  V30 46 H 0.531709 1.493767 1.532478 0
M  V30 47 H -4.447445 -1.692443 -0.742816 0
M  V30 48 H -4.502730 -4.009346 -0.064623 0
M  V30 49 H -2.794540 -7.651127 -0.973945 0
M  V30 50 H -3.315012 -5.947920 -0.826248 0
M  V30 51 H -1.628244 -5.097939 -2.055763 0
M  V30 52 H -1.449358 -6.826413 -2.662148 0
M  V30 53 H 0.517414 -7.074667 -1.387863 0
M  V30 54 H 0.496302 -5.313837 -1.318249 0
M  V30 55 H -0.159056 -5.306121 0.841481 0
M  V30 56 H 0.174073 -7.117849 0.852527 0
M  V30 57 H -0.854196 -3.408562 2.149411 0
M  V30 58 H -0.838491 -1.093370 1.446103 0
M  V30 59 H -4.341014 0.266965 -1.269568 0
M  V30 60 H -1.910187 4.587030 -2.075093 0
M  V30 61 H -2.887033 4.822309 -0.480411 0
M  V30 END ATOM
M  V30 BEGIN BOND
M  V30 1 1 1 2
M  V30 2 1 2 3
M  V30 3 1 2 4
M  V30 4 1 4 5
M  V30 5 2 5 6
M  V30 6 1 6 7
M  V30 7 2 7 8
M  V30 8 1 8 9
M  V30 9 2 9 10
M  V30 10 1 10 11
M  V30 11 1 11 12
M  V30 12 2 12 13
M  V30 13 1 12 14
M  V30 14 2 14 15
M  V30 15 1 15 16
M  V30 16 1 16 17
M  V30 17 2 17 18
M  V30 18 1 18 19
M  V30 19 2 19 20
M  V30 20 1 20 21
M  V30 21 2 21 22
M  V30 22 2 21 23
M  V30 23 1 21 24
M  V30 24 1 24 25
M  V30 25 1 25 26
M  V30 26 1 26 27
M  V30 27 1 27 28
M  V30 28 1 20 29
M  V30 29 2 29 30
M  V30 30 2 16 31
M  V30 31 1 31 32
M  V30 32 2 32 33
M  V30 33 1 33 34
M  V30 34 1 10 5
M  V30 35 1 33 14
M  V30 36 1 30 17
M  V30 37 1 28 24
M  V30 38 1 1 35
M  V30 39 1 1 36
M  V30 40 1 1 37
M  V30 41 1 3 38
M  V30 42 1 3 39
M  V30 43 1 3 40
M  V30 44 1 4 41
M  V30 45 1 4 42
M  V30 46 1 6 43
M  V30 47 1 7 44
M  V30 48 1 9 45
M  V30 49 1 11 46
M  V30 50 1 18 47
M  V30 51 1 19 48
M  V30 52 1 25 49
M  V30 53 1 25 50
M  V30 54 1 26 51
M  V30 55 1 26 52
M  V30 56 1 27 53
M  V30 57 1 27 54
M  V30 58 1 28 55
M  V30 59 1 28 56
M  V30 60 1 29 57
M  V30 61 1 30 58
M  V30 62 1 31 59
M  V30 63 1 34 60
M  V30 64 1 34 61
M  V30 END BOND
M  V30 END CTAB
M  END
>  <Dataset>  (678) 
ChEMBL_Kinases

>  <Ligand_Instance>  (678) 
nan

>  <PDB_ID>  (678) 
nan

>  <Standardized_SMILES>  (678) 
CN(C)Cc1ccncc1NC(=O)c1nc(-c2ccc(S(=O)(=O)N3CCCC3)cc2)cnc1N

>  <Name>  (678) 
nan

>  <Pocket>  (678) 
nan

>  <ATP_Site>  (678) 
nan

>  <Peripheral>  (678) 
nan

>  <Num_H_Atoms_ProtBoundConf>  (678) 
nan

>  <Num_Resolved_Atoms>  (678) 
nan

>  <Num_Not_Resolved_Atoms>  (678) 
nan

$$$$
CHEMBL2177173
     RDKit          3D

  0  0  0  0  0  0  0  0  0  0999 V3000
M  V30 BEGIN CTAB
M  V30 COUNTS 70 74 0 0 0
M  V30 BEGIN ATOM
M  V30 1 C 5.515776 -3.627314 5.748511 0
M  V30 2 N 4.779815 -4.065098 4.590811 0
M  V30 3 C 5.210370 -3.347854 3.406139 0
M  V30 4 C 4.850861 -1.878227 3.484140 0
M  V30 5 N 3.864888 -1.745377 4.509916 0
M  V30 6 S 3.288057 -0.139391 4.680439 0
M  V30 7 O 2.299168 -0.062601 5.805257 0
M  V30 8 O 4.463217 0.723235 5.049429 0
M  V30 9 C 2.521379 0.423848 3.237725 0
M  V30 10 C 3.319250 1.099468 2.307382 0
M  V30 11 C 2.810460 1.598162 1.102160 0
M  V30 12 C 1.461979 1.412488 0.824276 0
M  V30 13 C 0.836195 1.901434 -0.395621 0
M  V30 14 C 1.505466 2.594833 -1.372600 0
M  V30 15 N 0.943366 3.063877 -2.505709 0
M  V30 16 C -0.388665 2.842372 -2.714261 0
M  V30 17 N -0.987896 3.334747 -3.904938 0
M  V30 18 C -1.077465 2.150035 -1.748800 0
M  V30 19 C -2.487232 1.950211 -2.031561 0
M  V30 20 O -2.992937 2.410115 -3.084273 0
M  V30 21 N -3.301498 1.240378 -1.132232 0
M  V30 22 C -4.569097 0.728842 -0.802004 0
M  V30 23 C -5.390681 1.647811 -0.200628 0
M  V30 24 N -6.623074 1.261255 0.209686 0
M  V30 25 C -7.018633 -0.031012 0.016510 0
M  V30 26 C -6.199569 -0.943496 -0.582288 0
M  V30 27 C -4.921073 -0.571664 -1.016926 0
M  V30 28 C -4.170734 -1.653716 -1.669817 0
M  V30 29 N -4.266995 -1.725381 -3.092373 0
M  V30 30 C -3.500377 -2.878172 -3.544779 0
M  V30 31 C -3.207253 -2.610064 -5.011957 0
M  V30 32 C -3.594595 -1.164395 -5.270421 0
M  V30 33 C -3.691798 -0.656957 -3.828980 0
M  V30 34 N -0.488518 1.694796 -0.628944 0
M  V30 35 C 0.694820 0.744887 1.754251 0
M  V30 36 C 1.187625 0.249832 2.944893 0
M  V30 37 C 2.831276 -2.713738 4.284685 0
M  V30 38 C 3.348557 -4.048510 4.786556 0
M  V30 39 H 5.687299 -4.502124 6.441135 0
M  V30 40 H 4.870200 -2.918761 6.318497 0
M  V30 41 H 6.508295 -3.231584 5.501767 0
M  V30 42 H 6.320506 -3.443094 3.382627 0
M  V30 43 H 4.782800 -3.857248 2.525928 0
M  V30 44 H 4.533516 -1.537651 2.477892 0
M  V30 45 H 5.740296 -1.279600 3.770537 0
M  V30 46 H 4.378306 1.249501 2.517036 0
M  V30 47 H 3.446553 2.114796 0.399551 0
M  V30 48 H 2.546848 2.805485 -1.278144 0
M  V30 49 H -0.445672 3.047176 -4.752315 0
M  V30 50 H -0.628371 3.178182 -4.879079 0
M  V30 51 H -2.779052 0.899395 -0.269110 0
M  V30 52 H -5.138886 2.664251 -0.023749 0
M  V30 53 H -8.004871 -0.290733 0.359430 0
M  V30 54 H -6.601662 -1.944460 -0.691641 0
M  V30 55 H -4.481158 -2.659597 -1.274375 0
M  V30 56 H -3.077516 -1.603800 -1.386046 0
M  V30 57 H -4.094187 -3.790082 -3.386149 0
M  V30 58 H -2.526839 -2.909651 -3.013841 0
M  V30 59 H -2.129447 -2.690686 -5.225893 0
M  V30 60 H -3.764290 -3.293019 -5.676214 0
M  V30 61 H -4.576449 -1.069318 -5.778523 0
M  V30 62 H -2.794856 -0.580331 -5.759715 0
M  V30 63 H -2.660904 -0.464617 -3.505449 0
M  V30 64 H -4.344854 0.214401 -3.867739 0
M  V30 65 H -0.364363 0.557550 1.618073 0
M  V30 66 H 0.572649 -0.276473 3.670930 0
M  V30 67 H 2.578993 -2.858242 3.208111 0
M  V30 68 H 1.868192 -2.442754 4.762980 0
M  V30 69 H 2.828154 -4.907217 4.326241 0
M  V30 70 H 3.178103 -4.023674 5.902098 0
M  V30 END ATOM
M  V30 BEGIN BOND
M  V30 1 1 1 2
M  V30 2 1 2 3
M  V30 3 1 3 4
M  V30 4 1 4 5
M  V30 5 1 5 6
M  V30 6 2 6 7
M  V30 7 2 6 8
M  V30 8 1 6 9
M  V30 9 2 9 10
M  V30 10 1 10 11
M  V30 11 2 11 12
M  V30 12 1 12 13
M  V30 13 2 13 14
M  V30 14 1 14 15
M  V30 15 2 15 16
M  V30 16 1 16 17
M  V30 17 1 16 18
M  V30 18 1 18 19
M  V30 19 2 19 20
M  V30 20 1 19 21
M  V30 21 1 21 22
M  V30 22 2 22 23
M  V30 23 1 23 24
M  V30 24 2 24 25
M  V30 25 1 25 26
M  V30 26 2 26 27
M  V30 27 1 27 28
M  V30 28 1 28 29
M  V30 29 1 29 30
M  V30 30 1 30 31
M  V30 31 1 31 32
M  V30 32 1 32 33
M  V30 33 2 18 34
M  V30 34 1 12 35
M  V30 35 2 35 36
M  V30 36 1 5 37
M  V30 37 1 37 38
M  V30 38 1 38 2
M  V30 39 1 36 9
M  V30 40 1 34 13
M  V30 41 1 27 22
M  V30 42 1 33 29
M  V30 43 1 1 39
M  V30 44 1 1 40
M  V30 45 1 1 41
M  V30 46 1 3 42
M  V30 47 1 3 43
M  V30 48 1 4 44
M  V30 49 1 4 45
M  V30 50 1 10 46
M  V30 51 1 11 47
M  V30 52 1 14 48
M  V30 53 1 17 49
M  V30 54 1 17 50
M  V30 55 1 21 51
M  V30 56 1 23 52
M  V30 57 1 25 53
M  V30 58 1 26 54
M  V30 59 1 28 55
M  V30 60 1 28 56
M  V30 61 1 30 57
M  V30 62 1 30 58
M  V30 63 1 31 59
M  V30 64 1 31 60
M  V30 65 1 32 61
M  V30 66 1 32 62
M  V30 67 1 33 63
M  V30 68 1 33 64
M  V30 69 1 35 65
M  V30 70 1 36 66
M  V30 71 1 37 67
M  V30 72 1 37 68
M  V30 73 1 38 69
M  V30 74 1 38 70
M  V30 END BOND
M  V30 END CTAB
M  END
>  <Dataset>  (679) 
ChEMBL_Kinases

>  <Ligand_Instance>  (679) 
nan

>  <PDB_ID>  (679) 
nan

>  <Standardized_SMILES>  (679) 
CN1CCN(S(=O)(=O)c2ccc(-c3cnc(N)c(C(=O)Nc4cnccc4CN4CCCC4)n3)cc2)CC1

>  <Name>  (679) 
nan

>  <Pocket>  (679) 
nan

>  <ATP_Site>  (679) 
nan

>  <Peripheral>  (679) 
nan

>  <Num_H_Atoms_ProtBoundConf>  (679) 
nan

>  <Num_Resolved_Atoms>  (679) 
nan

>  <Num_Not_Resolved_Atoms>  (679) 
nan

$$$$
CHEMBL2177172
     RDKit          3D

  0  0  0  0  0  0  0  0  0  0999 V3000
M  V30 BEGIN CTAB
M  V30 COUNTS 53 56 0 0 0
M  V30 BEGIN ATOM
M  V30 1 C 1.539699 -1.612393 7.385512 0
M  V30 2 N 1.907625 -2.122056 6.098405 0
M  V30 3 C 2.936561 -1.401496 5.445933 0
M  V30 4 C 3.169822 -1.734056 4.022187 0
M  V30 5 N 2.377130 -2.880612 3.645627 0
M  V30 6 S 2.663508 -3.396531 2.031011 0
M  V30 7 O 1.864045 -4.616773 1.763576 0
M  V30 8 O 4.105104 -3.709989 1.846355 0
M  V30 9 C 2.230625 -2.105349 0.928623 0
M  V30 10 C 3.111824 -1.129916 0.507361 0
M  V30 11 C 2.716501 -0.125106 -0.370548 0
M  V30 12 C 1.424010 -0.072697 -0.849678 0
M  V30 13 C 0.910625 0.935146 -1.770480 0
M  V30 14 C 1.690530 1.951689 -2.257710 0
M  V30 15 N 1.186944 2.879214 -3.116205 0
M  V30 16 C -0.096043 2.840593 -3.524585 0
M  V30 17 C -0.873519 1.815362 -3.030061 0
M  V30 18 C -2.266107 1.739404 -3.448054 0
M  V30 19 O -2.769495 2.581122 -4.243257 0
M  V30 20 N -3.096654 0.700791 -2.961326 0
M  V30 21 C -4.458766 0.414271 -3.212791 0
M  V30 22 C -4.751042 -0.423067 -4.280001 0
M  V30 23 C -6.067622 -0.745920 -4.583187 0
M  V30 24 C -7.067534 -0.203072 -3.784222 0
M  V30 25 N -6.758633 0.597527 -2.766514 0
M  V30 26 C -5.478595 0.929165 -2.448597 0
M  V30 27 N -0.371129 0.901223 -2.181943 0
M  V30 28 C 0.577452 -1.066717 -0.402827 0
M  V30 29 C 0.926749 -2.081730 0.466910 0
M  V30 30 C 1.003687 -2.500658 3.854522 0
M  V30 31 C 0.775185 -2.518272 5.347976 0
M  V30 32 H 0.420908 -1.590707 7.449970 0
M  V30 33 H 1.878148 -2.243341 8.236832 0
M  V30 34 H 1.846388 -0.543727 7.503693 0
M  V30 35 H 3.885588 -1.498512 6.054888 0
M  V30 36 H 2.688347 -0.319666 5.530243 0
M  V30 37 H 4.240927 -2.067461 3.903299 0
M  V30 38 H 2.992466 -0.860627 3.387728 0
M  V30 39 H 4.122922 -1.165271 0.878184 0
M  V30 40 H 3.406218 0.636159 -0.698649 0
M  V30 41 H 2.710465 2.053658 -1.985691 0
M  V30 42 H -0.547845 3.551213 -4.204802 0
M  V30 43 H -2.718512 -0.011971 -2.304678 0
M  V30 44 H -3.965958 -0.835850 -4.889342 0
M  V30 45 H -6.367910 -1.393504 -5.402235 0
M  V30 46 H -8.132735 -0.413162 -3.962606 0
M  V30 47 H -5.182845 1.577002 -1.629262 0
M  V30 48 H -0.445650 -1.070632 -0.748446 0
M  V30 49 H 0.187969 -2.829383 0.767989 0
M  V30 50 H 0.287713 -3.156387 3.321238 0
M  V30 51 H 0.915080 -1.435396 3.525213 0
M  V30 52 H 0.330156 -3.485320 5.673577 0
M  V30 53 H -0.028262 -1.750195 5.548445 0
M  V30 END ATOM
M  V30 BEGIN BOND
M  V30 1 1 1 2
M  V30 2 1 2 3
M  V30 3 1 3 4
M  V30 4 1 4 5
M  V30 5 1 5 6
M  V30 6 2 6 7
M  V30 7 2 6 8
M  V30 8 1 6 9
M  V30 9 2 9 10
M  V30 10 1 10 11
M  V30 11 2 11 12
M  V30 12 1 12 13
M  V30 13 2 13 14
M  V30 14 1 14 15
M  V30 15 2 15 16
M  V30 16 1 16 17
M  V30 17 1 17 18
M  V30 18 2 18 19
M  V30 19 1 18 20
M  V30 20 1 20 21
M  V30 21 2 21 22
M  V30 22 1 22 23
M  V30 23 2 23 24
M  V30 24 1 24 25
M  V30 25 2 25 26
M  V30 26 2 17 27
M  V30 27 1 12 28
M  V30 28 2 28 29
M  V30 29 1 5 30
M  V30 30 1 30 31
M  V30 31 1 31 2
M  V30 32 1 29 9
M  V30 33 1 27 13
M  V30 34 1 26 21
M  V30 35 1 1 32
M  V30 36 1 1 33
M  V30 37 1 1 34
M  V30 38 1 3 35
M  V30 39 1 3 36
M  V30 40 1 4 37
M  V30 41 1 4 38
M  V30 42 1 10 39
M  V30 43 1 11 40
M  V30 44 1 14 41
M  V30 45 1 16 42
M  V30 46 1 20 43
M  V30 47 1 22 44
M  V30 48 1 23 45
M  V30 49 1 24 46
M  V30 50 1 26 47
M  V30 51 1 28 48
M  V30 52 1 29 49
M  V30 53 1 30 50
M  V30 54 1 30 51
M  V30 55 1 31 52
M  V30 56 1 31 53
M  V30 END BOND
M  V30 END CTAB
M  END
>  <Dataset>  (680) 
ChEMBL_Kinases

>  <Ligand_Instance>  (680) 
nan

>  <PDB_ID>  (680) 
nan

>  <Standardized_SMILES>  (680) 
CN1CCN(S(=O)(=O)c2ccc(-c3cncc(C(=O)Nc4cccnc4)n3)cc2)CC1

>  <Name>  (680) 
nan

>  <Pocket>  (680) 
nan

>  <ATP_Site>  (680) 
nan

>  <Peripheral>  (680) 
nan

>  <Num_H_Atoms_ProtBoundConf>  (680) 
nan

>  <Num_Resolved_Atoms>  (680) 
nan

>  <Num_Not_Resolved_Atoms>  (680) 
nan

$$$$
CHEMBL2177171
     RDKit          3D

  0  0  0  0  0  0  0  0  0  0999 V3000
M  V30 BEGIN CTAB
M  V30 COUNTS 56 59 0 0 0
M  V30 BEGIN ATOM
M  V30 1 C 2.461392 -3.549167 2.899585 0
M  V30 2 N 3.226265 -4.063769 1.772339 0
M  V30 3 C 4.615641 -3.718294 1.826341 0
M  V30 4 C 4.934508 -2.457910 1.041365 0
M  V30 5 N 4.664195 -2.649881 -0.346325 0
M  V30 6 S 4.464910 -1.242166 -1.269275 0
M  V30 7 O 4.260287 -1.651976 -2.701853 0
M  V30 8 O 5.757676 -0.460097 -1.242943 0
M  V30 9 C 3.120275 -0.260874 -0.752079 0
M  V30 10 C 1.894307 -0.512103 -1.334053 0
M  V30 11 C 0.802441 0.251549 -0.944274 0
M  V30 12 C 0.896645 1.266198 0.015805 0
M  V30 13 C -0.314874 2.029383 0.371276 0
M  V30 14 C -0.238464 3.369316 0.766749 0
M  V30 15 N -1.406386 3.960157 1.066005 0
M  V30 16 C -2.586704 3.291415 0.987335 0
M  V30 17 N -3.689295 4.112568 1.349413 0
M  V30 18 C -2.697102 1.972301 0.601615 0
M  V30 19 C -4.017921 1.358024 0.553452 0
M  V30 20 O -4.988960 2.085830 0.869746 0
M  V30 21 N -4.193773 0.001601 0.166978 0
M  V30 22 C -5.377700 -0.749487 0.063828 0
M  V30 23 C -6.150198 -0.847371 -1.075118 0
M  V30 24 C -7.312423 -1.580338 -1.188351 0
M  V30 25 C -7.698515 -2.261588 -0.030047 0
M  V30 26 N -7.009399 -2.224028 1.121759 0
M  V30 27 C -5.876425 -1.477842 1.145703 0
M  V30 28 C -1.514674 1.336450 0.287307 0
M  V30 29 C 2.152191 1.500386 0.590468 0
M  V30 30 C 3.234134 0.736890 0.198035 0
M  V30 31 C 3.721090 -3.692789 -0.567788 0
M  V30 32 C 2.671292 -3.642419 0.515040 0
M  V30 33 H 1.910358 -4.383491 3.384136 0
M  V30 34 H 1.713406 -2.785915 2.572557 0
M  V30 35 H 3.083022 -3.074056 3.669165 0
M  V30 36 H 5.176049 -4.590273 1.415147 0
M  V30 37 H 4.946812 -3.551160 2.871215 0
M  V30 38 H 6.052702 -2.334895 1.124964 0
M  V30 39 H 4.429940 -1.608508 1.500469 0
M  V30 40 H 1.789250 -1.293782 -2.083280 0
M  V30 41 H -0.139131 -0.000293 -1.445486 0
M  V30 42 H 0.723326 3.856940 0.813540 0
M  V30 43 H -4.587396 4.152948 1.877490 0
M  V30 44 H -3.767409 5.114517 1.025898 0
M  V30 45 H -3.387679 -0.605212 -0.096139 0
M  V30 46 H -5.807032 -0.294784 -1.960116 0
M  V30 47 H -7.884761 -1.626070 -2.105303 0
M  V30 48 H -8.621448 -2.857976 -0.080836 0
M  V30 49 H -5.316022 -1.449993 2.089936 0
M  V30 50 H -1.564665 0.303950 -0.018424 0
M  V30 51 H 2.214324 2.285723 1.330432 0
M  V30 52 H 4.206325 0.908597 0.634244 0
M  V30 53 H 4.258658 -4.677319 -0.440926 0
M  V30 54 H 3.293453 -3.719728 -1.578897 0
M  V30 55 H 1.767085 -4.214607 0.225897 0
M  V30 56 H 2.329903 -2.590447 0.639121 0
M  V30 END ATOM
M  V30 BEGIN BOND
M  V30 1 1 1 2
M  V30 2 1 2 3
M  V30 3 1 3 4
M  V30 4 1 4 5
M  V30 5 1 5 6
M  V30 6 2 6 7
M  V30 7 2 6 8
M  V30 8 1 6 9
M  V30 9 2 9 10
M  V30 10 1 10 11
M  V30 11 2 11 12
M  V30 12 1 12 13
M  V30 13 2 13 14
M  V30 14 1 14 15
M  V30 15 2 15 16
M  V30 16 1 16 17
M  V30 17 1 16 18
M  V30 18 1 18 19
M  V30 19 2 19 20
M  V30 20 1 19 21
M  V30 21 1 21 22
M  V30 22 2 22 23
M  V30 23 1 23 24
M  V30 24 2 24 25
M  V30 25 1 25 26
M  V30 26 2 26 27
M  V30 27 2 18 28
M  V30 28 1 12 29
M  V30 29 2 29 30
M  V30 30 1 5 31
M  V30 31 1 31 32
M  V30 32 1 32 2
M  V30 33 1 30 9
M  V30 34 1 28 13
M  V30 35 1 27 22
M  V30 36 1 1 33
M  V30 37 1 1 34
M  V30 38 1 1 35
M  V30 39 1 3 36
M  V30 40 1 3 37
M  V30 41 1 4 38
M  V30 42 1 4 39
M  V30 43 1 10 40
M  V30 44 1 11 41
M  V30 45 1 14 42
M  V30 46 1 17 43
M  V30 47 1 17 44
M  V30 48 1 21 45
M  V30 49 1 23 46
M  V30 50 1 24 47
M  V30 51 1 25 48
M  V30 52 1 27 49
M  V30 53 1 28 50
M  V30 54 1 29 51
M  V30 55 1 30 52
M  V30 56 1 31 53
M  V30 57 1 31 54
M  V30 58 1 32 55
M  V30 59 1 32 56
M  V30 END BOND
M  V30 END CTAB
M  END
>  <Dataset>  (681) 
ChEMBL_Kinases

>  <Ligand_Instance>  (681) 
nan

>  <PDB_ID>  (681) 
nan

>  <Standardized_SMILES>  (681) 
CN1CCN(S(=O)(=O)c2ccc(-c3cnc(N)c(C(=O)Nc4cccnc4)c3)cc2)CC1

>  <Name>  (681) 
nan

>  <Pocket>  (681) 
nan

>  <ATP_Site>  (681) 
nan

>  <Peripheral>  (681) 
nan

>  <Num_H_Atoms_ProtBoundConf>  (681) 
nan

>  <Num_Resolved_Atoms>  (681) 
nan

>  <Num_Not_Resolved_Atoms>  (681) 
nan

$$$$
CHEMBL2177170
     RDKit          3D

  0  0  0  0  0  0  0  0  0  0999 V3000
M  V30 BEGIN CTAB
M  V30 COUNTS 57 60 0 0 0
M  V30 BEGIN ATOM
M  V30 1 C 1.446746 -3.065292 0.670672 0
M  V30 2 N 2.842075 -2.930431 0.468778 0
M  V30 3 C 3.655361 -2.733662 1.614086 0
M  V30 4 C 5.077954 -2.348751 1.267364 0
M  V30 5 N 5.138190 -2.060422 -0.102551 0
M  V30 6 S 4.920820 -0.508473 -0.664342 0
M  V30 7 O 5.002872 -0.509521 -2.185303 0
M  V30 8 O 5.970874 0.475457 -0.223260 0
M  V30 9 C 3.321001 0.063499 -0.246354 0
M  V30 10 C 3.124720 0.723791 0.964948 0
M  V30 11 C 1.910407 1.217721 1.391523 0
M  V30 12 C 0.803433 1.046607 0.557689 0
M  V30 13 C -0.512397 1.559652 0.973168 0
M  V30 14 C -0.574226 2.698492 1.749184 0
M  V30 15 C -1.792783 3.201608 2.153111 0
M  V30 16 C -2.965894 2.543718 1.766904 0
M  V30 17 N -4.192962 3.141221 2.235058 0
M  V30 18 C -2.897236 1.404474 0.990280 0
M  V30 19 C -4.172007 0.793975 0.642402 0
M  V30 20 O -5.234793 1.323059 1.056060 0
M  V30 21 N -4.190136 -0.380156 -0.152303 0
M  V30 22 C -5.238199 -1.199689 -0.652283 0
M  V30 23 C -5.616835 -2.243521 0.183465 0
M  V30 24 C -6.611925 -3.158007 -0.108382 0
M  V30 25 C -7.250716 -2.978314 -1.339020 0
M  V30 26 N -6.889803 -1.966623 -2.158538 0
M  V30 27 C -5.917652 -1.090203 -1.850111 0
M  V30 28 C -1.682782 0.902864 0.587325 0
M  V30 29 C 0.957106 0.398286 -0.648892 0
M  V30 30 C 2.193995 -0.092290 -1.058807 0
M  V30 31 C 4.838600 -3.159422 -0.932971 0
M  V30 32 C 3.412215 -3.607033 -0.639108 0
M  V30 33 H 1.006459 -2.379901 1.390306 0
M  V30 34 H 1.225915 -4.116207 0.979762 0
M  V30 35 H 0.953435 -2.910551 -0.333553 0
M  V30 36 H 3.617080 -3.601032 2.304374 0
M  V30 37 H 3.219322 -1.887022 2.211099 0
M  V30 38 H 5.675229 -3.292087 1.444375 0
M  V30 39 H 5.472038 -1.563293 1.939157 0
M  V30 40 H 3.996968 0.846027 1.598109 0
M  V30 41 H 1.778535 1.724498 2.330309 0
M  V30 42 H 0.321075 3.201822 2.044903 0
M  V30 43 H -1.793619 4.088019 2.754657 0
M  V30 44 H -4.224626 2.900683 3.244439 0
M  V30 45 H -4.592807 3.595339 1.377122 0
M  V30 46 H -3.357179 -0.874000 -0.530964 0
M  V30 47 H -5.135552 -2.404763 1.146713 0
M  V30 48 H -6.872675 -3.955506 0.574156 0
M  V30 49 H -8.032298 -3.677203 -1.594702 0
M  V30 50 H -5.591422 -0.265656 -2.468360 0
M  V30 51 H -1.619650 0.018626 -0.015892 0
M  V30 52 H 0.107350 0.268711 -1.285374 0
M  V30 53 H 2.357869 -0.607287 -1.998837 0
M  V30 54 H 5.495334 -4.027358 -0.654331 0
M  V30 55 H 5.002181 -2.983941 -2.012067 0
M  V30 56 H 2.822166 -3.361461 -1.552799 0
M  V30 57 H 3.354864 -4.712825 -0.511303 0
M  V30 END ATOM
M  V30 BEGIN BOND
M  V30 1 1 1 2
M  V30 2 1 2 3
M  V30 3 1 3 4
M  V30 4 1 4 5
M  V30 5 1 5 6
M  V30 6 2 6 7
M  V30 7 2 6 8
M  V30 8 1 6 9
M  V30 9 2 9 10
M  V30 10 1 10 11
M  V30 11 2 11 12
M  V30 12 1 12 13
M  V30 13 2 13 14
M  V30 14 1 14 15
M  V30 15 2 15 16
M  V30 16 1 16 17
M  V30 17 1 16 18
M  V30 18 1 18 19
M  V30 19 2 19 20
M  V30 20 1 19 21
M  V30 21 1 21 22
M  V30 22 2 22 23
M  V30 23 1 23 24
M  V30 24 2 24 25
M  V30 25 1 25 26
M  V30 26 2 26 27
M  V30 27 2 18 28
M  V30 28 1 12 29
M  V30 29 2 29 30
M  V30 30 1 5 31
M  V30 31 1 31 32
M  V30 32 1 32 2
M  V30 33 1 30 9
M  V30 34 1 28 13
M  V30 35 1 27 22
M  V30 36 1 1 33
M  V30 37 1 1 34
M  V30 38 1 1 35
M  V30 39 1 3 36
M  V30 40 1 3 37
M  V30 41 1 4 38
M  V30 42 1 4 39
M  V30 43 1 10 40
M  V30 44 1 11 41
M  V30 45 1 14 42
M  V30 46 1 15 43
M  V30 47 1 17 44
M  V30 48 1 17 45
M  V30 49 1 21 46
M  V30 50 1 23 47
M  V30 51 1 24 48
M  V30 52 1 25 49
M  V30 53 1 27 50
M  V30 54 1 28 51
M  V30 55 1 29 52
M  V30 56 1 30 53
M  V30 57 1 31 54
M  V30 58 1 31 55
M  V30 59 1 32 56
M  V30 60 1 32 57
M  V30 END BOND
M  V30 END CTAB
M  END
>  <Dataset>  (682) 
ChEMBL_Kinases

>  <Ligand_Instance>  (682) 
nan

>  <PDB_ID>  (682) 
nan

>  <Standardized_SMILES>  (682) 
CN1CCN(S(=O)(=O)c2ccc(-c3ccc(N)c(C(=O)Nc4cccnc4)c3)cc2)CC1

>  <Name>  (682) 
nan

>  <Pocket>  (682) 
nan

>  <ATP_Site>  (682) 
nan

>  <Peripheral>  (682) 
nan

>  <Num_H_Atoms_ProtBoundConf>  (682) 
nan

>  <Num_Resolved_Atoms>  (682) 
nan

>  <Num_Not_Resolved_Atoms>  (682) 
nan

$$$$
CHEMBL2177169
     RDKit          3D

  0  0  0  0  0  0  0  0  0  0999 V3000
M  V30 BEGIN CTAB
M  V30 COUNTS 56 58 0 0 0
M  V30 BEGIN ATOM
M  V30 1 C 5.275149 -1.044037 5.094169 0
M  V30 2 N 5.463830 -0.046798 4.026663 0
M  V30 3 C 6.648081 -0.502403 3.303681 0
M  V30 4 C 4.290119 -0.084632 3.138059 0
M  V30 5 C 4.362668 0.966724 2.058421 0
M  V30 6 N 3.185576 0.893083 1.191959 0
M  V30 7 C 3.103285 0.095362 -0.023446 0
M  V30 8 C 2.043923 1.647728 1.553116 0
M  V30 9 O 2.155764 2.341478 2.601579 0
M  V30 10 C 0.750230 1.752838 0.907958 0
M  V30 11 C 0.213959 0.510162 0.617959 0
M  V30 12 C -1.029989 0.361042 0.018244 0
M  V30 13 C -1.774488 1.486746 -0.306493 0
M  V30 14 C -3.086373 1.297782 -0.919124 0
M  V30 15 C -3.997659 2.272251 -1.257023 0
M  V30 16 N -5.220715 1.954633 -1.785417 0
M  V30 17 C -5.511000 0.631460 -1.968314 0
M  V30 18 N -6.767306 0.182406 -2.507152 0
M  V30 19 C -4.637230 -0.366206 -1.649475 0
M  V30 20 C -4.969145 -1.769120 -1.839279 0
M  V30 21 O -6.049293 -2.268164 -2.170699 0
M  V30 22 N -3.922754 -2.699555 -1.619835 0
M  V30 23 C -3.499992 -4.048951 -1.595819 0
M  V30 24 C -3.525516 -4.761120 -0.415525 0
M  V30 25 C -3.120599 -6.092950 -0.334936 0
M  V30 26 C -2.700115 -6.615748 -1.530255 0
M  V30 27 N -2.660655 -5.953337 -2.700451 0
M  V30 28 C -3.057980 -4.652428 -2.778914 0
M  V30 29 N -3.468378 0.038301 -1.139304 0
M  V30 30 C -1.236228 2.702702 -0.017678 0
M  V30 31 C 0.021105 2.856914 0.587690 0
M  V30 32 H 5.388268 -2.077370 4.694074 0
M  V30 33 H 5.935400 -0.836508 5.954816 0
M  V30 34 H 4.226369 -0.970520 5.465463 0
M  V30 35 H 7.237229 -1.235319 3.908475 0
M  V30 36 H 6.294056 -1.017480 2.377415 0
M  V30 37 H 7.345221 0.321971 3.075076 0
M  V30 38 H 3.364573 0.027244 3.715644 0
M  V30 39 H 4.341342 -1.098529 2.679750 0
M  V30 40 H 4.402509 1.978999 2.460030 0
M  V30 41 H 5.267821 0.842753 1.428874 0
M  V30 42 H 4.109445 0.166180 -0.532513 0
M  V30 43 H 2.965906 -0.982188 0.165871 0
M  V30 44 H 2.322750 0.525048 -0.693028 0
M  V30 45 H 0.709121 -0.444905 0.828836 0
M  V30 46 H -1.416238 -0.651126 -0.190539 0
M  V30 47 H -3.692912 3.291203 -1.082379 0
M  V30 48 H -7.245132 0.303747 -3.425821 0
M  V30 49 H -7.574469 -0.388098 -2.178031 0
M  V30 50 H -2.963752 -2.319123 -1.345410 0
M  V30 51 H -3.868096 -4.292452 0.497813 0
M  V30 52 H -3.115335 -6.698842 0.558358 0
M  V30 53 H -2.355218 -7.624885 -1.648204 0
M  V30 54 H -3.036414 -4.098561 -3.707431 0
M  V30 55 H -1.781751 3.592159 -0.255897 0
M  V30 56 H 0.484535 3.794576 0.831244 0
M  V30 END ATOM
M  V30 BEGIN BOND
M  V30 1 1 1 2
M  V30 2 1 2 3
M  V30 3 1 2 4
M  V30 4 1 4 5
M  V30 5 1 5 6
M  V30 6 1 6 7
M  V30 7 1 6 8
M  V30 8 2 8 9
M  V30 9 1 8 10
M  V30 10 2 10 11
M  V30 11 1 11 12
M  V30 12 2 12 13
M  V30 13 1 13 14
M  V30 14 2 14 15
M  V30 15 1 15 16
M  V30 16 2 16 17
M  V30 17 1 17 18
M  V30 18 1 17 19
M  V30 19 1 19 20
M  V30 20 2 20 21
M  V30 21 1 20 22
M  V30 22 1 22 23
M  V30 23 2 23 24
M  V30 24 1 24 25
M  V30 25 2 25 26
M  V30 26 1 26 27
M  V30 27 2 27 28
M  V30 28 2 19 29
M  V30 29 1 13 30
M  V30 30 2 30 31
M  V30 31 1 31 10
M  V30 32 1 29 14
M  V30 33 1 28 23
M  V30 34 1 1 32
M  V30 35 1 1 33
M  V30 36 1 1 34
M  V30 37 1 3 35
M  V30 38 1 3 36
M  V30 39 1 3 37
M  V30 40 1 4 38
M  V30 41 1 4 39
M  V30 42 1 5 40
M  V30 43 1 5 41
M  V30 44 1 7 42
M  V30 45 1 7 43
M  V30 46 1 7 44
M  V30 47 1 11 45
M  V30 48 1 12 46
M  V30 49 1 15 47
M  V30 50 1 18 48
M  V30 51 1 18 49
M  V30 52 1 22 50
M  V30 53 1 24 51
M  V30 54 1 25 52
M  V30 55 1 26 53
M  V30 56 1 28 54
M  V30 57 1 30 55
M  V30 58 1 31 56
M  V30 END BOND
M  V30 END CTAB
M  END
>  <Dataset>  (683) 
ChEMBL_Kinases

>  <Ligand_Instance>  (683) 
nan

>  <PDB_ID>  (683) 
nan

>  <Standardized_SMILES>  (683) 
CN(C)CCN(C)C(=O)c1ccc(-c2cnc(N)c(C(=O)Nc3cccnc3)n2)cc1

>  <Name>  (683) 
nan

>  <Pocket>  (683) 
nan

>  <ATP_Site>  (683) 
nan

>  <Peripheral>  (683) 
nan

>  <Num_H_Atoms_ProtBoundConf>  (683) 
nan

>  <Num_Resolved_Atoms>  (683) 
nan

>  <Num_Not_Resolved_Atoms>  (683) 
nan

$$$$
CHEMBL2178141
     RDKit          3D

  0  0  0  0  0  0  0  0  0  0999 V3000
M  V30 BEGIN CTAB
M  V30 COUNTS 55 57 0 0 0
M  V30 BEGIN ATOM
M  V30 1 C 3.780457 -3.428142 0.414318 0
M  V30 2 C 4.200055 -4.166482 1.659351 0
M  V30 3 N 3.053997 -4.628727 2.423603 0
M  V30 4 C 2.100276 -3.713367 2.931534 0
M  V30 5 N 2.236454 -2.396807 2.716117 0
M  V30 6 C 1.333217 -1.500780 3.193740 0
M  V30 7 N 1.394573 -0.090195 3.017275 0
M  V30 8 C 0.811829 0.574892 1.910746 0
M  V30 9 C 0.156897 -0.212328 0.962681 0
M  V30 10 C -0.426832 0.404504 -0.139526 0
M  V30 11 C -0.375367 1.773111 -0.319817 0
M  V30 12 C 0.275622 2.537875 0.626084 0
M  V30 13 C 0.872675 1.956104 1.743740 0
M  V30 14 O 1.525679 2.722740 2.692426 0
M  V30 15 C 1.620430 4.120848 2.579088 0
M  V30 16 C -1.085660 2.052719 -1.570483 0
M  V30 17 O -1.218721 3.215736 -2.021472 0
M  V30 18 N -1.548779 0.797007 -2.105404 0
M  V30 19 C -2.280529 0.737672 -3.327589 0
M  V30 20 C -3.775287 0.845961 -3.180440 0
M  V30 21 C -4.222161 2.123258 -2.550316 0
M  V30 22 C -4.363905 -0.308249 -2.417663 0
M  V30 23 O -4.323441 0.770297 -4.480726 0
M  V30 24 C -1.164937 -0.303254 -1.242365 0
M  V30 25 N 0.261144 -1.901786 3.905209 0
M  V30 26 C 0.063580 -3.215916 4.158920 0
M  V30 27 C 0.995613 -4.110806 3.663185 0
M  V30 28 C 0.809646 -5.572932 3.924195 0
M  V30 29 F 0.703557 -6.231345 2.711433 0
M  V30 30 F 1.899149 -6.081218 4.616932 0
M  V30 31 F -0.297498 -5.767111 4.728193 0
M  V30 32 H 3.961843 -4.069104 -0.493084 0
M  V30 33 H 4.350718 -2.491816 0.359409 0
M  V30 34 H 2.677633 -3.221001 0.416767 0
M  V30 35 H 4.805014 -3.517150 2.312762 0
M  V30 36 H 4.822385 -5.028125 1.358870 0
M  V30 37 H 2.919218 -5.643195 2.608040 0
M  V30 38 H 1.897135 0.462965 3.748446 0
M  V30 39 H 0.120918 -1.287654 1.111979 0
M  V30 40 H 0.302684 3.597321 0.464981 0
M  V30 41 H 1.817294 4.436496 1.542063 0
M  V30 42 H 0.650711 4.606770 2.863214 0
M  V30 43 H 2.466486 4.522204 3.188151 0
M  V30 44 H -2.077622 -0.271110 -3.782462 0
M  V30 45 H -1.884807 1.478131 -4.048286 0
M  V30 46 H -5.313675 2.051306 -2.351054 0
M  V30 47 H -4.102367 3.002838 -3.213911 0
M  V30 48 H -3.755030 2.256652 -1.555102 0
M  V30 49 H -3.862840 -1.270244 -2.640999 0
M  V30 50 H -4.389121 -0.073033 -1.333190 0
M  V30 51 H -5.444272 -0.359138 -2.727799 0
M  V30 52 H -3.757940 0.225739 -5.072707 0
M  V30 53 H -2.044879 -0.844135 -0.842308 0
M  V30 54 H -0.434835 -0.921916 -1.760781 0
M  V30 55 H -0.791304 -3.587013 4.731278 0
M  V30 END ATOM
M  V30 BEGIN BOND
M  V30 1 1 1 2
M  V30 2 1 2 3
M  V30 3 1 3 4
M  V30 4 2 4 5
M  V30 5 1 5 6
M  V30 6 1 6 7
M  V30 7 1 7 8
M  V30 8 2 8 9
M  V30 9 1 9 10
M  V30 10 2 10 11
M  V30 11 1 11 12
M  V30 12 2 12 13
M  V30 13 1 13 14
M  V30 14 1 14 15
M  V30 15 1 11 16
M  V30 16 2 16 17
M  V30 17 1 16 18
M  V30 18 1 18 19
M  V30 19 1 19 20
M  V30 20 1 20 21
M  V30 21 1 20 22
M  V30 22 1 20 23
M  V30 23 1 18 24
M  V30 24 2 6 25
M  V30 25 1 25 26
M  V30 26 2 26 27
M  V30 27 1 27 28
M  V30 28 1 28 29
M  V30 29 1 28 30
M  V30 30 1 28 31
M  V30 31 1 27 4
M  V30 32 1 13 8
M  V30 33 1 24 10
M  V30 34 1 1 32
M  V30 35 1 1 33
M  V30 36 1 1 34
M  V30 37 1 2 35
M  V30 38 1 2 36
M  V30 39 1 3 37
M  V30 40 1 7 38
M  V30 41 1 9 39
M  V30 42 1 12 40
M  V30 43 1 15 41
M  V30 44 1 15 42
M  V30 45 1 15 43
M  V30 46 1 19 44
M  V30 47 1 19 45
M  V30 48 1 21 46
M  V30 49 1 21 47
M  V30 50 1 21 48
M  V30 51 1 22 49
M  V30 52 1 22 50
M  V30 53 1 22 51
M  V30 54 1 23 52
M  V30 55 1 24 53
M  V30 56 1 24 54
M  V30 57 1 26 55
M  V30 END BOND
M  V30 END CTAB
M  END
>  <Dataset>  (684) 
ChEMBL_Kinases

>  <Ligand_Instance>  (684) 
nan

>  <PDB_ID>  (684) 
nan

>  <Standardized_SMILES>  (684) 
CCNc1nc(Nc2cc3c(cc2OC)C(=O)N(CC(C)(C)O)C3)ncc1C(F)(F)F

>  <Name>  (684) 
nan

>  <Pocket>  (684) 
nan

>  <ATP_Site>  (684) 
nan

>  <Peripheral>  (684) 
nan

>  <Num_H_Atoms_ProtBoundConf>  (684) 
nan

>  <Num_Resolved_Atoms>  (684) 
nan

>  <Num_Not_Resolved_Atoms>  (684) 
nan

$$$$
CHEMBL2171735
     RDKit          3D

  0  0  0  0  0  0  0  0  0  0999 V3000
M  V30 BEGIN CTAB
M  V30 COUNTS 46 49 0 0 0
M  V30 BEGIN ATOM
M  V30 1 C 3.544615 -6.163233 0.158422 0
M  V30 2 C 2.902868 -5.773622 -1.132782 0
M  V30 3 C 2.733520 -6.690049 -2.144345 0
M  V30 4 C 2.133849 -6.260934 -3.296010 0
M  V30 5 C 1.689040 -4.972036 -3.507955 0
M  V30 6 C 1.874790 -4.061447 -2.461390 0
M  V30 7 C 2.481450 -4.473118 -1.282327 0
M  V30 8 N 2.681961 -3.547609 -0.222646 0
M  V30 9 C 2.336706 -2.178814 -0.082296 0
M  V30 10 N 2.879333 -0.993528 -0.471609 0
M  V30 11 C 2.042691 -0.028062 0.014779 0
M  V30 12 C 2.075173 1.348617 -0.057794 0
M  V30 13 C 1.125890 2.173985 0.510242 0
M  V30 14 C 0.075371 1.550760 1.197125 0
M  V30 15 C -1.012483 2.263942 1.862939 0
M  V30 16 C -0.826885 3.529789 2.440642 0
M  V30 17 C -1.873519 4.186516 3.082000 0
M  V30 18 C -1.663774 5.524707 3.689357 0
M  V30 19 C -3.071100 3.505291 3.099130 0
M  V30 20 O -4.088072 4.215750 3.758620 0
M  V30 21 C -3.336383 2.283705 2.567181 0
M  V30 22 C -4.679218 1.711888 2.687047 0
M  V30 23 C -2.261733 1.683201 1.945409 0
M  V30 24 C 0.075431 0.169305 1.248351 0
M  V30 25 N 1.023326 -0.598580 0.678533 0
M  V30 26 N 1.219940 -1.915538 0.608093 0
M  V30 27 H 3.622213 -7.276951 0.213018 0
M  V30 28 H 4.550210 -5.740480 0.249305 0
M  V30 29 H 2.831873 -5.840716 0.959345 0
M  V30 30 H 3.093605 -7.679583 -1.936557 0
M  V30 31 H 2.018880 -7.010622 -4.069152 0
M  V30 32 H 1.225825 -4.692043 -4.431132 0
M  V30 33 H 1.526819 -3.038035 -2.618387 0
M  V30 34 H 3.170099 -3.855965 0.652772 0
M  V30 35 H 2.894151 1.799969 -0.591535 0
M  V30 36 H 1.121434 3.247622 0.473039 0
M  V30 37 H 0.158398 3.971164 2.367190 0
M  V30 38 H -2.621097 6.004835 3.950976 0
M  V30 39 H -1.111079 5.327636 4.651665 0
M  V30 40 H -0.992339 6.114280 3.053531 0
M  V30 41 H -4.410647 4.022806 4.677727 0
M  V30 42 H -5.391974 2.393898 2.176342 0
M  V30 43 H -4.990660 1.665291 3.739796 0
M  V30 44 H -4.775715 0.721821 2.226690 0
M  V30 45 H -2.414976 0.696853 1.496774 0
M  V30 46 H -0.699509 -0.369134 1.757775 0
M  V30 END ATOM
M  V30 BEGIN BOND
M  V30 1 1 1 2
M  V30 2 2 2 3
M  V30 3 1 3 4
M  V30 4 2 4 5
M  V30 5 1 5 6
M  V30 6 2 6 7
M  V30 7 1 7 8
M  V30 8 1 8 9
M  V30 9 1 9 10
M  V30 10 2 10 11
M  V30 11 1 11 12
M  V30 12 2 12 13
M  V30 13 1 13 14
M  V30 14 1 14 15
M  V30 15 2 15 16
M  V30 16 1 16 17
M  V30 17 1 17 18
M  V30 18 2 17 19
M  V30 19 1 19 20
M  V30 20 1 19 21
M  V30 21 1 21 22
M  V30 22 2 21 23
M  V30 23 2 14 24
M  V30 24 1 24 25
M  V30 25 1 25 26
M  V30 26 1 7 2
M  V30 27 2 26 9
M  V30 28 1 25 11
M  V30 29 1 23 15
M  V30 30 1 1 27
M  V30 31 1 1 28
M  V30 32 1 1 29
M  V30 33 1 3 30
M  V30 34 1 4 31
M  V30 35 1 5 32
M  V30 36 1 6 33
M  V30 37 1 8 34
M  V30 38 1 12 35
M  V30 39 1 13 36
M  V30 40 1 16 37
M  V30 41 1 18 38
M  V30 42 1 18 39
M  V30 43 1 18 40
M  V30 44 1 20 41
M  V30 45 1 22 42
M  V30 46 1 22 43
M  V30 47 1 22 44
M  V30 48 1 23 45
M  V30 49 1 24 46
M  V30 END BOND
M  V30 END CTAB
M  END
>  <Dataset>  (685) 
ChEMBL_Kinases

>  <Ligand_Instance>  (685) 
nan

>  <PDB_ID>  (685) 
nan

>  <Standardized_SMILES>  (685) 
Cc1ccccc1Nc1nc2ccc(-c3cc(C)c(O)c(C)c3)cn2n1

>  <Name>  (685) 
nan

>  <Pocket>  (685) 
nan

>  <ATP_Site>  (685) 
nan

>  <Peripheral>  (685) 
nan

>  <Num_H_Atoms_ProtBoundConf>  (685) 
nan

>  <Num_Resolved_Atoms>  (685) 
nan

>  <Num_Not_Resolved_Atoms>  (685) 
nan

$$$$
CHEMBL2171741
     RDKit          3D

  0  0  0  0  0  0  0  0  0  0999 V3000
M  V30 BEGIN CTAB
M  V30 COUNTS 45 47 0 0 0
M  V30 BEGIN ATOM
M  V30 1 C 0.202818 -6.067219 3.473400 0
M  V30 2 N -1.189121 -5.652430 3.706750 0
M  V30 3 C -1.707847 -4.612106 2.870189 0
M  V30 4 N -0.976016 -4.047614 1.926256 0
M  V30 5 C -1.348450 -3.065243 1.088979 0
M  V30 6 N -0.332269 -2.680530 0.170981 0
M  V30 7 C -0.127920 -1.370766 -0.316495 0
M  V30 8 C -0.921871 -0.365668 0.218459 0
M  V30 9 C -0.721682 0.930845 -0.160826 0
M  V30 10 C 0.264393 1.227426 -1.068809 0
M  V30 11 C 0.719135 2.499671 -1.590437 0
M  V30 12 O 0.749568 3.275205 -2.547373 0
M  V30 13 N 1.418629 2.982430 -0.427297 0
M  V30 14 C 2.027197 4.277283 -0.647861 0
M  V30 15 C 2.391569 4.877940 0.676923 0
M  V30 16 O 1.337387 4.797954 1.562776 0
M  V30 17 C 1.001733 3.478798 1.871327 0
M  V30 18 C 1.689905 2.509599 0.939593 0
M  V30 19 C 1.070899 0.224324 -1.618488 0
M  V30 20 C 0.877825 -1.093791 -1.243953 0
M  V30 21 C 1.674042 -2.251113 -1.767766 0
M  V30 22 N -2.600223 -2.614823 1.234734 0
M  V30 23 C -3.416804 -3.129590 2.168436 0
M  V30 24 C -2.993413 -4.143101 3.011018 0
M  V30 25 Cl -4.068755 -4.809159 4.219814 0
M  V30 26 H 0.417859 -6.045496 2.367615 0
M  V30 27 H 0.897125 -5.307944 3.917501 0
M  V30 28 H 0.405212 -7.083606 3.819301 0
M  V30 29 H -1.793249 -6.081679 4.447278 0
M  V30 30 H 0.333464 -3.420834 -0.200250 0
M  V30 31 H -1.717596 -0.467646 0.937957 0
M  V30 32 H -1.210923 1.862204 0.122903 0
M  V30 33 H 1.284968 4.924509 -1.133254 0
M  V30 34 H 2.922620 4.146003 -1.297412 0
M  V30 35 H 2.606141 5.980334 0.562153 0
M  V30 36 H 3.296281 4.380347 1.105481 0
M  V30 37 H -0.096374 3.298570 1.821524 0
M  V30 38 H 1.297636 3.245794 2.926335 0
M  V30 39 H 1.244417 1.510924 1.130157 0
M  V30 40 H 2.752144 2.456471 1.170249 0
M  V30 41 H 1.874344 0.304068 -2.333044 0
M  V30 42 H 2.219148 -2.672539 -0.875513 0
M  V30 43 H 2.451760 -1.863331 -2.480909 0
M  V30 44 H 1.045901 -2.985224 -2.284238 0
M  V30 45 H -4.422772 -2.732250 2.245984 0
M  V30 END ATOM
M  V30 BEGIN BOND
M  V30 1 1 1 2
M  V30 2 1 2 3
M  V30 3 2 3 4
M  V30 4 1 4 5
M  V30 5 1 5 6
M  V30 6 1 6 7
M  V30 7 2 7 8
M  V30 8 1 8 9
M  V30 9 2 9 10
M  V30 10 1 10 11
M  V30 11 2 11 12
M  V30 12 1 11 13
M  V30 13 1 13 14
M  V30 14 1 14 15
M  V30 15 1 15 16
M  V30 16 1 16 17
M  V30 17 1 17 18
M  V30 18 1 10 19
M  V30 19 2 19 20
M  V30 20 1 20 21
M  V30 21 2 5 22
M  V30 22 1 22 23
M  V30 23 2 23 24
M  V30 24 1 24 25
M  V30 25 1 24 3
M  V30 26 1 20 7
M  V30 27 1 18 13
M  V30 28 1 1 26
M  V30 29 1 1 27
M  V30 30 1 1 28
M  V30 31 1 2 29
M  V30 32 1 6 30
M  V30 33 1 8 31
M  V30 34 1 9 32
M  V30 35 1 14 33
M  V30 36 1 14 34
M  V30 37 1 15 35
M  V30 38 1 15 36
M  V30 39 1 17 37
M  V30 40 1 17 38
M  V30 41 1 18 39
M  V30 42 1 18 40
M  V30 43 1 19 41
M  V30 44 1 21 42
M  V30 45 1 21 43
M  V30 46 1 21 44
M  V30 47 1 23 45
M  V30 END BOND
M  V30 END CTAB
M  END
>  <Dataset>  (686) 
ChEMBL_Kinases

>  <Ligand_Instance>  (686) 
nan

>  <PDB_ID>  (686) 
nan

>  <Standardized_SMILES>  (686) 
CNc1nc(Nc2ccc(C(=O)N3CCOCC3)cc2C)ncc1Cl

>  <Name>  (686) 
nan

>  <Pocket>  (686) 
nan

>  <ATP_Site>  (686) 
nan

>  <Peripheral>  (686) 
nan

>  <Num_H_Atoms_ProtBoundConf>  (686) 
nan

>  <Num_Resolved_Atoms>  (686) 
nan

>  <Num_Not_Resolved_Atoms>  (686) 
nan

$$$$
CHEMBL2171743
     RDKit          3D

  0  0  0  0  0  0  0  0  0  0999 V3000
M  V30 BEGIN CTAB
M  V30 COUNTS 46 48 0 0 0
M  V30 BEGIN ATOM
M  V30 1 C 1.100716 -4.942738 2.385055 0
M  V30 2 N 0.646123 -5.677374 1.219406 0
M  V30 3 C -0.275929 -5.202399 0.272335 0
M  V30 4 N -0.775298 -3.964521 0.472358 0
M  V30 5 C -1.671661 -3.450993 -0.418261 0
M  V30 6 N -2.199078 -2.155210 -0.190711 0
M  V30 7 C -1.372103 -1.003711 -0.180850 0
M  V30 8 C -0.013070 -1.147464 -0.355546 0
M  V30 9 C 0.837164 -0.062066 -0.339397 0
M  V30 10 C 0.325626 1.203166 -0.144191 0
M  V30 11 C 1.003141 2.493906 -0.082917 0
M  V30 12 O 0.653021 3.418172 -0.854864 0
M  V30 13 N 2.050872 2.653286 0.867091 0
M  V30 14 C 2.802184 3.873915 1.035994 0
M  V30 15 C 2.542028 4.267692 2.497814 0
M  V30 16 O 3.287205 3.387536 3.237968 0
M  V30 17 C 2.982306 2.069287 3.087620 0
M  V30 18 C 2.477219 1.631283 1.757073 0
M  V30 19 C -1.050349 1.333179 0.030628 0
M  V30 20 C -1.938208 0.261985 0.020110 0
M  V30 21 O -3.284507 0.351308 0.186600 0
M  V30 22 C -4.088743 1.453668 0.397384 0
M  V30 23 N -2.083877 -4.152412 -1.513780 0
M  V30 24 C -1.598606 -5.408816 -1.746689 0
M  V30 25 C -0.678229 -5.948916 -0.841345 0
M  V30 26 Br 0.052325 -7.704165 -1.088520 0
M  V30 27 H 2.188545 -4.675477 2.270505 0
M  V30 28 H 1.017384 -5.537896 3.296871 0
M  V30 29 H 0.483164 -4.028386 2.504811 0
M  V30 30 H 1.028421 -6.620074 1.074711 0
M  V30 31 H -3.220778 -2.056473 -0.028875 0
M  V30 32 H 0.453823 -2.099866 -0.510834 0
M  V30 33 H 1.906014 -0.058405 -0.463206 0
M  V30 34 H 2.515272 4.674428 0.333362 0
M  V30 35 H 3.878289 3.615932 0.956071 0
M  V30 36 H 2.850896 5.292085 2.714453 0
M  V30 37 H 1.458308 4.098238 2.733198 0
M  V30 38 H 3.930399 1.493510 3.297689 0
M  V30 39 H 2.297855 1.759763 3.919949 0
M  V30 40 H 3.262545 1.039970 1.197351 0
M  V30 41 H 1.645539 0.903306 1.926856 0
M  V30 42 H -1.580279 2.271529 0.192381 0
M  V30 43 H -3.609952 2.441552 0.316248 0
M  V30 44 H -4.531402 1.420464 1.414574 0
M  V30 45 H -4.902652 1.421295 -0.361340 0
M  V30 46 H -1.913366 -5.979563 -2.607240 0
M  V30 END ATOM
M  V30 BEGIN BOND
M  V30 1 1 1 2
M  V30 2 1 2 3
M  V30 3 2 3 4
M  V30 4 1 4 5
M  V30 5 1 5 6
M  V30 6 1 6 7
M  V30 7 2 7 8
M  V30 8 1 8 9
M  V30 9 2 9 10
M  V30 10 1 10 11
M  V30 11 2 11 12
M  V30 12 1 11 13
M  V30 13 1 13 14
M  V30 14 1 14 15
M  V30 15 1 15 16
M  V30 16 1 16 17
M  V30 17 1 17 18
M  V30 18 1 10 19
M  V30 19 2 19 20
M  V30 20 1 20 21
M  V30 21 1 21 22
M  V30 22 2 5 23
M  V30 23 1 23 24
M  V30 24 2 24 25
M  V30 25 1 25 26
M  V30 26 1 25 3
M  V30 27 1 20 7
M  V30 28 1 18 13
M  V30 29 1 1 27
M  V30 30 1 1 28
M  V30 31 1 1 29
M  V30 32 1 2 30
M  V30 33 1 6 31
M  V30 34 1 8 32
M  V30 35 1 9 33
M  V30 36 1 14 34
M  V30 37 1 14 35
M  V30 38 1 15 36
M  V30 39 1 15 37
M  V30 40 1 17 38
M  V30 41 1 17 39
M  V30 42 1 18 40
M  V30 43 1 18 41
M  V30 44 1 19 42
M  V30 45 1 22 43
M  V30 46 1 22 44
M  V30 47 1 22 45
M  V30 48 1 24 46
M  V30 END BOND
M  V30 END CTAB
M  END
>  <Dataset>  (687) 
ChEMBL_Kinases

>  <Ligand_Instance>  (687) 
nan

>  <PDB_ID>  (687) 
nan

>  <Standardized_SMILES>  (687) 
CNc1nc(Nc2ccc(C(=O)N3CCOCC3)cc2OC)ncc1Br

>  <Name>  (687) 
nan

>  <Pocket>  (687) 
nan

>  <ATP_Site>  (687) 
nan

>  <Peripheral>  (687) 
nan

>  <Num_H_Atoms_ProtBoundConf>  (687) 
nan

>  <Num_Resolved_Atoms>  (687) 
nan

>  <Num_Not_Resolved_Atoms>  (687) 
nan

$$$$
CHEMBL2171744
     RDKit          3D

  0  0  0  0  0  0  0  0  0  0999 V3000
M  V30 BEGIN CTAB
M  V30 COUNTS 46 48 0 0 0
M  V30 BEGIN ATOM
M  V30 1 C -1.816847 -7.236028 2.355556 0
M  V30 2 N -2.123048 -7.128635 0.951732 0
M  V30 3 C -1.952977 -5.910449 0.253563 0
M  V30 4 N -1.500117 -4.831573 0.901900 0
M  V30 5 C -1.321550 -3.650930 0.287204 0
M  V30 6 N -0.836142 -2.556523 1.050810 0
M  V30 7 C -0.563787 -1.216675 0.708747 0
M  V30 8 C -0.770953 -0.755378 -0.572421 0
M  V30 9 C -0.538359 0.534530 -1.000339 0
M  V30 10 C -0.059877 1.461684 -0.098333 0
M  V30 11 C 0.262503 2.870222 -0.292806 0
M  V30 12 O -0.506891 3.813784 -0.618813 0
M  V30 13 N 1.577423 3.336086 -0.116441 0
M  V30 14 C 1.878602 4.748578 -0.310980 0
M  V30 15 C 2.186354 5.281886 1.069733 0
M  V30 16 O 3.210029 4.594624 1.630911 0
M  V30 17 C 3.761941 3.550834 0.961065 0
M  V30 18 C 2.810011 2.627171 0.256819 0
M  V30 19 C 0.159308 1.020907 1.207294 0
M  V30 20 C -0.077628 -0.268957 1.618000 0
M  V30 21 O 0.148986 -0.680380 2.922137 0
M  V30 22 C 0.635781 0.165882 3.934699 0
M  V30 23 N -1.613233 -3.576676 -1.017144 0
M  V30 24 C -2.065926 -4.582971 -1.748677 0
M  V30 25 C -2.236246 -5.774950 -1.085743 0
M  V30 26 F -2.697635 -6.843124 -1.782668 0
M  V30 27 H -0.734282 -7.092108 2.490246 0
M  V30 28 H -2.057655 -8.244250 2.721643 0
M  V30 29 H -2.354872 -6.472617 2.968915 0
M  V30 30 H -2.480520 -7.964228 0.422994 0
M  V30 31 H -0.627519 -2.745349 2.078481 0
M  V30 32 H -1.139681 -1.346996 -1.392442 0
M  V30 33 H -0.684845 0.936830 -1.983318 0
M  V30 34 H 1.010393 5.276298 -0.768212 0
M  V30 35 H 2.772300 4.806079 -0.960550 0
M  V30 36 H 2.498380 6.365960 1.045540 0
M  V30 37 H 1.264400 5.179389 1.714554 0
M  V30 38 H 4.339789 2.942173 1.693503 0
M  V30 39 H 4.561016 3.933697 0.257935 0
M  V30 40 H 3.333171 2.294982 -0.688483 0
M  V30 41 H 2.640515 1.748713 0.868827 0
M  V30 42 H 0.536315 1.675457 2.003139 0
M  V30 43 H 1.530840 0.731107 3.635436 0
M  V30 44 H 0.934594 -0.488968 4.780075 0
M  V30 45 H -0.130786 0.861425 4.314665 0
M  V30 46 H -2.272982 -4.437003 -2.780852 0
M  V30 END ATOM
M  V30 BEGIN BOND
M  V30 1 1 1 2
M  V30 2 1 2 3
M  V30 3 2 3 4
M  V30 4 1 4 5
M  V30 5 1 5 6
M  V30 6 1 6 7
M  V30 7 2 7 8
M  V30 8 1 8 9
M  V30 9 2 9 10
M  V30 10 1 10 11
M  V30 11 2 11 12
M  V30 12 1 11 13
M  V30 13 1 13 14
M  V30 14 1 14 15
M  V30 15 1 15 16
M  V30 16 1 16 17
M  V30 17 1 17 18
M  V30 18 1 10 19
M  V30 19 2 19 20
M  V30 20 1 20 21
M  V30 21 1 21 22
M  V30 22 2 5 23
M  V30 23 1 23 24
M  V30 24 2 24 25
M  V30 25 1 25 26
M  V30 26 1 25 3
M  V30 27 1 20 7
M  V30 28 1 18 13
M  V30 29 1 1 27
M  V30 30 1 1 28
M  V30 31 1 1 29
M  V30 32 1 2 30
M  V30 33 1 6 31
M  V30 34 1 8 32
M  V30 35 1 9 33
M  V30 36 1 14 34
M  V30 37 1 14 35
M  V30 38 1 15 36
M  V30 39 1 15 37
M  V30 40 1 17 38
M  V30 41 1 17 39
M  V30 42 1 18 40
M  V30 43 1 18 41
M  V30 44 1 19 42
M  V30 45 1 22 43
M  V30 46 1 22 44
M  V30 47 1 22 45
M  V30 48 1 24 46
M  V30 END BOND
M  V30 END CTAB
M  END
>  <Dataset>  (688) 
ChEMBL_Kinases

>  <Ligand_Instance>  (688) 
nan

>  <PDB_ID>  (688) 
nan

>  <Standardized_SMILES>  (688) 
CNc1nc(Nc2ccc(C(=O)N3CCOCC3)cc2OC)ncc1F

>  <Name>  (688) 
nan

>  <Pocket>  (688) 
nan

>  <ATP_Site>  (688) 
nan

>  <Peripheral>  (688) 
nan

>  <Num_H_Atoms_ProtBoundConf>  (688) 
nan

>  <Num_Resolved_Atoms>  (688) 
nan

>  <Num_Not_Resolved_Atoms>  (688) 
nan

$$$$
CHEMBL2171745
     RDKit          3D

  0  0  0  0  0  0  0  0  0  0999 V3000
M  V30 BEGIN CTAB
M  V30 COUNTS 49 51 0 0 0
M  V30 BEGIN ATOM
M  V30 1 C -3.848769 -4.950762 -1.080363 0
M  V30 2 N -2.701945 -5.838876 -1.268414 0
M  V30 3 C -1.429903 -5.462039 -0.762927 0
M  V30 4 N -1.259300 -4.311807 -0.115903 0
M  V30 5 C -0.127524 -3.845551 0.403611 0
M  V30 6 N -0.203490 -2.588682 1.040681 0
M  V30 7 C -0.000287 -1.225383 0.714811 0
M  V30 8 C 0.417094 -0.847728 -0.542144 0
M  V30 9 C 0.619199 0.478052 -0.853248 0
M  V30 10 C 0.390608 1.426630 0.133183 0
M  V30 11 C 0.515822 2.896255 0.078590 0
M  V30 12 O -0.096692 3.559929 -0.773452 0
M  V30 13 N 1.315320 3.655398 0.961668 0
M  V30 14 C 1.279309 5.107788 0.725871 0
M  V30 15 C 1.030738 5.737650 2.090753 0
M  V30 16 O 2.210758 5.693311 2.811947 0
M  V30 17 C 3.015226 4.618406 2.436835 0
M  V30 18 C 2.201956 3.415299 2.080529 0
M  V30 19 C -0.033110 1.024373 1.403979 0
M  V30 20 C -0.234923 -0.300935 1.716067 0
M  V30 21 O -0.659111 -0.731926 2.979943 0
M  V30 22 C -0.889981 0.246246 3.982144 0
M  V30 23 N 0.968923 -4.641571 0.248116 0
M  V30 24 C 0.863618 -5.811249 -0.393496 0
M  V30 25 C -0.320871 -6.264461 -0.918076 0
M  V30 26 C -0.484654 -7.551727 -1.633788 0
M  V30 27 F 0.709866 -8.227472 -1.700196 0
M  V30 28 F -0.954248 -7.293223 -2.906482 0
M  V30 29 F -1.403160 -8.339858 -0.930910 0
M  V30 30 H -3.505817 -3.884264 -1.056486 0
M  V30 31 H -4.589444 -5.050311 -1.912721 0
M  V30 32 H -4.351187 -5.180711 -0.107001 0
M  V30 33 H -2.881608 -6.731124 -1.777208 0
M  V30 34 H -0.500328 -2.894365 1.997967 0
M  V30 35 H 0.607487 -1.552864 -1.338888 0
M  V30 36 H 0.937588 0.921012 -1.767259 0
M  V30 37 H 2.193800 5.485899 0.272711 0
M  V30 38 H 0.421177 5.419021 0.105103 0
M  V30 39 H 0.758106 6.786341 1.926260 0
M  V30 40 H 0.189759 5.222332 2.595619 0
M  V30 41 H 3.789488 4.895169 1.694280 0
M  V30 42 H 3.583597 4.334087 3.371255 0
M  V30 43 H 2.858572 2.555598 1.874653 0
M  V30 44 H 1.544899 3.199878 2.970395 0
M  V30 45 H -0.236303 1.694959 2.238003 0
M  V30 46 H -1.095525 -0.255700 4.925671 0
M  V30 47 H -1.774163 0.832221 3.695395 0
M  V30 48 H 0.004552 0.895070 4.111577 0
M  V30 49 H 1.747784 -6.425785 -0.503052 0
M  V30 END ATOM
M  V30 BEGIN BOND
M  V30 1 1 1 2
M  V30 2 1 2 3
M  V30 3 2 3 4
M  V30 4 1 4 5
M  V30 5 1 5 6
M  V30 6 1 6 7
M  V30 7 2 7 8
M  V30 8 1 8 9
M  V30 9 2 9 10
M  V30 10 1 10 11
M  V30 11 2 11 12
M  V30 12 1 11 13
M  V30 13 1 13 14
M  V30 14 1 14 15
M  V30 15 1 15 16
M  V30 16 1 16 17
M  V30 17 1 17 18
M  V30 18 1 10 19
M  V30 19 2 19 20
M  V30 20 1 20 21
M  V30 21 1 21 22
M  V30 22 2 5 23
M  V30 23 1 23 24
M  V30 24 2 24 25
M  V30 25 1 25 26
M  V30 26 1 26 27
M  V30 27 1 26 28
M  V30 28 1 26 29
M  V30 29 1 25 3
M  V30 30 1 20 7
M  V30 31 1 18 13
M  V30 32 1 1 30
M  V30 33 1 1 31
M  V30 34 1 1 32
M  V30 35 1 2 33
M  V30 36 1 6 34
M  V30 37 1 8 35
M  V30 38 1 9 36
M  V30 39 1 14 37
M  V30 40 1 14 38
M  V30 41 1 15 39
M  V30 42 1 15 40
M  V30 43 1 17 41
M  V30 44 1 17 42
M  V30 45 1 18 43
M  V30 46 1 18 44
M  V30 47 1 19 45
M  V30 48 1 22 46
M  V30 49 1 22 47
M  V30 50 1 22 48
M  V30 51 1 24 49
M  V30 END BOND
M  V30 END CTAB
M  END
>  <Dataset>  (689) 
ChEMBL_Kinases

>  <Ligand_Instance>  (689) 
nan

>  <PDB_ID>  (689) 
nan

>  <Standardized_SMILES>  (689) 
CNc1nc(Nc2ccc(C(=O)N3CCOCC3)cc2OC)ncc1C(F)(F)F

>  <Name>  (689) 
nan

>  <Pocket>  (689) 
nan

>  <ATP_Site>  (689) 
nan

>  <Peripheral>  (689) 
nan

>  <Num_H_Atoms_ProtBoundConf>  (689) 
nan

>  <Num_Resolved_Atoms>  (689) 
nan

>  <Num_Not_Resolved_Atoms>  (689) 
nan

$$$$
CHEMBL2171746
     RDKit          3D

  0  0  0  0  0  0  0  0  0  0999 V3000
M  V30 BEGIN CTAB
M  V30 COUNTS 47 49 0 0 0
M  V30 BEGIN ATOM
M  V30 1 C 0.487834 -4.326030 2.942847 0
M  V30 2 N 0.133361 -5.332170 1.974043 0
M  V30 3 C -0.789235 -4.827775 1.000236 0
M  V30 4 N -1.277866 -3.590089 0.948280 0
M  V30 5 C -2.126783 -3.179091 0.006564 0
M  V30 6 N -2.411085 -1.797461 0.321689 0
M  V30 7 C -1.511742 -0.738329 0.028123 0
M  V30 8 C -0.308834 -0.981687 -0.599762 0
M  V30 9 C 0.562105 0.055992 -0.857862 0
M  V30 10 C 0.208397 1.336708 -0.475819 0
M  V30 11 C 1.039175 2.527257 -0.666225 0
M  V30 12 O 1.046609 3.586781 -1.383181 0
M  V30 13 N 2.192513 2.520837 0.202794 0
M  V30 14 C 3.208982 3.572320 0.249253 0
M  V30 15 C 3.307203 3.986337 1.716725 0
M  V30 16 O 2.254916 3.471394 2.456723 0
M  V30 17 C 2.345781 2.080433 2.559966 0
M  V30 18 C 2.537078 1.473123 1.175925 0
M  V30 19 C -0.996710 1.573780 0.151566 0
M  V30 20 C -1.892819 0.535361 0.421896 0
M  V30 21 O -3.091146 0.793881 1.055694 0
M  V30 22 C -3.563908 2.028326 1.477839 0
M  V30 23 N -2.565149 -3.977108 -0.974791 0
M  V30 24 C -2.121268 -5.245670 -0.997701 0
M  V30 25 C -1.244823 -5.655559 -0.017434 0
M  V30 26 C -0.797533 -7.017661 -0.068164 0
M  V30 27 N -0.420086 -8.134033 -0.117842 0
M  V30 28 H 1.117923 -4.753746 3.746310 0
M  V30 29 H 1.077366 -3.495398 2.464454 0
M  V30 30 H -0.408354 -3.856870 3.385967 0
M  V30 31 H 0.450954 -6.299510 1.910882 0
M  V30 32 H -3.329907 -1.639260 0.784768 0
M  V30 33 H -0.002447 -1.985236 -0.912198 0
M  V30 34 H 1.516270 -0.068394 -1.343831 0
M  V30 35 H 2.973793 4.421781 -0.421771 0
M  V30 36 H 4.184801 3.077833 0.008254 0
M  V30 37 H 4.234622 3.636702 2.201554 0
M  V30 38 H 3.252670 5.088037 1.736105 0
M  V30 39 H 3.180620 1.824532 3.254228 0
M  V30 40 H 1.436483 1.701235 3.035279 0
M  V30 41 H 3.575550 1.156130 1.014325 0
M  V30 42 H 1.884331 0.597203 1.119201 0
M  V30 43 H -1.307794 2.549910 0.463630 0
M  V30 44 H -4.395806 1.961324 2.206913 0
M  V30 45 H -2.721833 2.536070 2.037285 0
M  V30 46 H -3.852787 2.731545 0.683273 0
M  V30 47 H -2.481337 -5.868025 -1.784416 0
M  V30 END ATOM
M  V30 BEGIN BOND
M  V30 1 1 1 2
M  V30 2 1 2 3
M  V30 3 2 3 4
M  V30 4 1 4 5
M  V30 5 1 5 6
M  V30 6 1 6 7
M  V30 7 2 7 8
M  V30 8 1 8 9
M  V30 9 2 9 10
M  V30 10 1 10 11
M  V30 11 2 11 12
M  V30 12 1 11 13
M  V30 13 1 13 14
M  V30 14 1 14 15
M  V30 15 1 15 16
M  V30 16 1 16 17
M  V30 17 1 17 18
M  V30 18 1 10 19
M  V30 19 2 19 20
M  V30 20 1 20 21
M  V30 21 1 21 22
M  V30 22 2 5 23
M  V30 23 1 23 24
M  V30 24 2 24 25
M  V30 25 1 25 26
M  V30 26 3 26 27
M  V30 27 1 25 3
M  V30 28 1 20 7
M  V30 29 1 18 13
M  V30 30 1 1 28
M  V30 31 1 1 29
M  V30 32 1 1 30
M  V30 33 1 2 31
M  V30 34 1 6 32
M  V30 35 1 8 33
M  V30 36 1 9 34
M  V30 37 1 14 35
M  V30 38 1 14 36
M  V30 39 1 15 37
M  V30 40 1 15 38
M  V30 41 1 17 39
M  V30 42 1 17 40
M  V30 43 1 18 41
M  V30 44 1 18 42
M  V30 45 1 19 43
M  V30 46 1 22 44
M  V30 47 1 22 45
M  V30 48 1 22 46
M  V30 49 1 24 47
M  V30 END BOND
M  V30 END CTAB
M  END
>  <Dataset>  (690) 
ChEMBL_Kinases

>  <Ligand_Instance>  (690) 
nan

>  <PDB_ID>  (690) 
nan

>  <Standardized_SMILES>  (690) 
CNc1nc(Nc2ccc(C(=O)N3CCOCC3)cc2OC)ncc1C#N

>  <Name>  (690) 
nan

>  <Pocket>  (690) 
nan

>  <ATP_Site>  (690) 
nan

>  <Peripheral>  (690) 
nan

>  <Num_H_Atoms_ProtBoundConf>  (690) 
nan

>  <Num_Resolved_Atoms>  (690) 
nan

>  <Num_Not_Resolved_Atoms>  (690) 
nan

$$$$
CHEMBL217310
     RDKit          3D

  0  0  0  0  0  0  0  0  0  0999 V3000
M  V30 BEGIN CTAB
M  V30 COUNTS 49 51 0 0 0
M  V30 BEGIN ATOM
M  V30 1 C 3.484805 -1.252820 2.375223 0
M  V30 2 C 3.544698 -1.179775 0.873281 0
M  V30 3 C 2.989345 -2.427759 0.220685 0
M  V30 4 O 3.649152 -3.543762 0.756708 0
M  V30 5 N 2.906804 0.017596 0.371720 0
M  V30 6 C 3.387442 0.654575 -0.631467 0
M  V30 7 N 4.558599 0.198238 -1.273183 0
M  V30 8 C 2.598217 1.816390 -0.968610 0
M  V30 9 C 3.025374 2.561209 -2.027628 0
M  V30 10 O 4.126114 2.429386 -2.898058 0
M  V30 11 N 2.442517 3.714320 -2.549501 0
M  V30 12 S 1.012724 3.816806 -1.358266 0
M  V30 13 C 1.442744 2.346095 -0.410307 0
M  V30 14 N 0.826346 1.732742 0.721557 0
M  V30 15 C -0.065050 0.653877 0.945626 0
M  V30 16 C -0.481394 0.438972 2.241212 0
M  V30 17 C -1.334466 -0.623068 2.438233 0
M  V30 18 C -1.789959 -1.473758 1.423709 0
M  V30 19 C -2.696986 -2.562964 1.815370 0
M  V30 20 C -4.110224 -2.137726 1.710765 0
M  V30 21 C -4.790622 -1.540645 2.736700 0
M  V30 22 C -6.126212 -1.154310 2.604825 0
M  V30 23 C -6.748980 -1.396664 1.389283 0
M  V30 24 C -6.067470 -1.998318 0.351454 0
M  V30 25 C -4.748956 -2.375664 0.492882 0
M  V30 26 C -1.350547 -1.230002 0.120277 0
M  V30 27 C -0.496535 -0.165018 -0.071978 0
M  V30 28 H 4.465893 -1.558346 2.803645 0
M  V30 29 H 3.207459 -0.308801 2.863060 0
M  V30 30 H 2.788588 -2.085639 2.652182 0
M  V30 31 H 4.622816 -1.111336 0.572148 0
M  V30 32 H 1.912719 -2.561305 0.417814 0
M  V30 33 H 3.205191 -2.408157 -0.856922 0
M  V30 34 H 3.056791 -4.337337 0.640358 0
M  V30 35 H 4.834620 -0.360792 -2.083091 0
M  V30 36 H 5.227897 0.644120 -0.608719 0
M  V30 37 H 5.076783 2.448633 -2.539525 0
M  V30 38 H 1.204508 2.311443 1.502675 0
M  V30 39 H -0.171210 1.053227 3.072716 0
M  V30 40 H -1.666109 -0.795157 3.465648 0
M  V30 41 H -2.460954 -2.844655 2.883889 0
M  V30 42 H -2.510659 -3.497370 1.234618 0
M  V30 43 H -4.216647 -1.397508 3.637952 0
M  V30 44 H -6.560165 -0.694327 3.476370 0
M  V30 45 H -7.781269 -1.053145 1.411949 0
M  V30 46 H -6.666944 -2.135445 -0.556508 0
M  V30 47 H -4.289890 -2.844595 -0.380219 0
M  V30 48 H -1.705105 -1.889358 -0.657194 0
M  V30 49 H -0.168891 0.000446 -1.107760 0
M  V30 END ATOM
M  V30 BEGIN BOND
M  V30 1 1 1 2
M  V30 2 1 2 3
M  V30 3 1 3 4
M  V30 4 1 2 5
M  V30 5 2 5 6
M  V30 6 1 6 7
M  V30 7 1 6 8
M  V30 8 1 8 9
M  V30 9 1 9 10
M  V30 10 2 9 11
M  V30 11 1 11 12
M  V30 12 1 12 13
M  V30 13 1 13 14
M  V30 14 1 14 15
M  V30 15 2 15 16
M  V30 16 1 16 17
M  V30 17 2 17 18
M  V30 18 1 18 19
M  V30 19 1 19 20
M  V30 20 2 20 21
M  V30 21 1 21 22
M  V30 22 2 22 23
M  V30 23 1 23 24
M  V30 24 2 24 25
M  V30 25 1 18 26
M  V30 26 2 26 27
M  V30 27 2 13 8
M  V30 28 1 27 15
M  V30 29 1 25 20
M  V30 30 1 1 28
M  V30 31 1 1 29
M  V30 32 1 1 30
M  V30 33 1 2 31
M  V30 34 1 3 32
M  V30 35 1 3 33
M  V30 36 1 4 34
M  V30 37 1 7 35
M  V30 38 1 7 36
M  V30 39 1 10 37
M  V30 40 1 14 38
M  V30 41 1 16 39
M  V30 42 1 17 40
M  V30 43 1 19 41
M  V30 44 1 19 42
M  V30 45 1 21 43
M  V30 46 1 22 44
M  V30 47 1 23 45
M  V30 48 1 24 46
M  V30 49 1 25 47
M  V30 50 1 26 48
M  V30 51 1 27 49
M  V30 END BOND
M  V30 END CTAB
M  END
>  <Dataset>  (691) 
ChEMBL_Kinases

>  <Ligand_Instance>  (691) 
nan

>  <PDB_ID>  (691) 
nan

>  <Standardized_SMILES>  (691) 
CC(CO)/N=C(\N)c1c(O)nsc1Nc1ccc(Cc2ccccc2)cc1

>  <Name>  (691) 
nan

>  <Pocket>  (691) 
nan

>  <ATP_Site>  (691) 
nan

>  <Peripheral>  (691) 
nan

>  <Num_H_Atoms_ProtBoundConf>  (691) 
nan

>  <Num_Resolved_Atoms>  (691) 
nan

>  <Num_Not_Resolved_Atoms>  (691) 
nan

$$$$
CHEMBL2177168
     RDKit          3D

  0  0  0  0  0  0  0  0  0  0999 V3000
M  V30 BEGIN CTAB
M  V30 COUNTS 54 57 0 0 0
M  V30 BEGIN ATOM
M  V30 1 C 2.893468 -4.104613 4.194971 0
M  V30 2 N 3.187509 -5.196398 3.313506 0
M  V30 3 C 4.554254 -5.288885 2.896032 0
M  V30 4 C 4.933776 -4.179629 1.932929 0
M  V30 5 N 3.729906 -3.598804 1.383604 0
M  V30 6 C 3.544115 -2.204589 1.338902 0
M  V30 7 O 4.655578 -1.923880 1.869527 0
M  V30 8 C 2.653551 -1.145423 0.952235 0
M  V30 9 C 3.229871 0.104552 0.927913 0
M  V30 10 C 2.425792 1.179808 0.562296 0
M  V30 11 C 1.109832 0.957330 0.245007 0
M  V30 12 C 0.170107 2.023106 -0.117367 0
M  V30 13 C 0.625222 3.318442 -0.101131 0
M  V30 14 N -0.240489 4.327592 -0.405557 0
M  V30 15 C -1.529466 4.040367 -0.717704 0
M  V30 16 N -2.400391 5.123474 -1.021649 0
M  V30 17 C -1.998273 2.741952 -0.737701 0
M  V30 18 C -3.382669 2.457682 -1.062338 0
M  V30 19 O -4.113904 3.487235 -1.265193 0
M  V30 20 N -4.005712 1.219589 -1.180302 0
M  V30 21 C -5.359028 0.923890 -1.493226 0
M  V30 22 C -5.922770 0.757730 -2.762723 0
M  V30 23 C -7.259627 0.467979 -2.915039 0
M  V30 24 C -8.081900 0.334563 -1.793221 0
M  V30 25 N -7.558383 0.491515 -0.541269 0
M  V30 26 C -6.229132 0.778626 -0.408628 0
M  V30 27 N -1.111849 1.785282 -0.432421 0
M  V30 28 C 0.539488 -0.318627 0.274479 0
M  V30 29 C 1.316557 -1.398812 0.633914 0
M  V30 30 C 2.885856 -4.694447 0.949136 0
M  V30 31 C 2.229637 -5.227484 2.227681 0
M  V30 32 H 2.081329 -3.472797 3.784014 0
M  V30 33 H 3.772216 -3.455979 4.415338 0
M  V30 34 H 2.507456 -4.460096 5.191760 0
M  V30 35 H 4.725111 -6.310537 2.471275 0
M  V30 36 H 5.177855 -5.240724 3.814425 0
M  V30 37 H 5.560856 -4.652013 1.139781 0
M  V30 38 H 5.485094 -3.443075 2.513565 0
M  V30 39 H 4.250521 0.314653 1.168723 0
M  V30 40 H 2.849407 2.169806 0.533730 0
M  V30 41 H 1.607377 3.675139 0.124899 0
M  V30 42 H -2.397744 5.215442 -2.080583 0
M  V30 43 H -3.009377 5.815256 -0.531688 0
M  V30 44 H -3.398865 0.377351 -1.022276 0
M  V30 45 H -5.199903 0.883752 -3.550082 0
M  V30 46 H -7.615103 0.356978 -3.917838 0
M  V30 47 H -9.144478 0.105005 -1.941397 0
M  V30 48 H -5.988078 0.866363 0.640247 0
M  V30 49 H -0.500480 -0.497983 0.021501 0
M  V30 50 H 0.871801 -2.378461 0.658199 0
M  V30 51 H 2.077370 -4.358373 0.288131 0
M  V30 52 H 3.450622 -5.501548 0.427298 0
M  V30 53 H 1.829770 -6.250754 2.055184 0
M  V30 54 H 1.407271 -4.519980 2.457827 0
M  V30 END ATOM
M  V30 BEGIN BOND
M  V30 1 1 1 2
M  V30 2 1 2 3
M  V30 3 1 3 4
M  V30 4 1 4 5
M  V30 5 1 5 6
M  V30 6 2 6 7
M  V30 7 1 6 8
M  V30 8 2 8 9
M  V30 9 1 9 10
M  V30 10 2 10 11
M  V30 11 1 11 12
M  V30 12 2 12 13
M  V30 13 1 13 14
M  V30 14 2 14 15
M  V30 15 1 15 16
M  V30 16 1 15 17
M  V30 17 1 17 18
M  V30 18 2 18 19
M  V30 19 1 18 20
M  V30 20 1 20 21
M  V30 21 2 21 22
M  V30 22 1 22 23
M  V30 23 2 23 24
M  V30 24 1 24 25
M  V30 25 2 25 26
M  V30 26 2 17 27
M  V30 27 1 11 28
M  V30 28 2 28 29
M  V30 29 1 5 30
M  V30 30 1 30 31
M  V30 31 1 31 2
M  V30 32 1 29 8
M  V30 33 1 27 12
M  V30 34 1 26 21
M  V30 35 1 1 32
M  V30 36 1 1 33
M  V30 37 1 1 34
M  V30 38 1 3 35
M  V30 39 1 3 36
M  V30 40 1 4 37
M  V30 41 1 4 38
M  V30 42 1 9 39
M  V30 43 1 10 40
M  V30 44 1 13 41
M  V30 45 1 16 42
M  V30 46 1 16 43
M  V30 47 1 20 44
M  V30 48 1 22 45
M  V30 49 1 23 46
M  V30 50 1 24 47
M  V30 51 1 26 48
M  V30 52 1 28 49
M  V30 53 1 29 50
M  V30 54 1 30 51
M  V30 55 1 30 52
M  V30 56 1 31 53
M  V30 57 1 31 54
M  V30 END BOND
M  V30 END CTAB
M  END
>  <Dataset>  (692) 
ChEMBL_Kinases

>  <Ligand_Instance>  (692) 
nan

>  <PDB_ID>  (692) 
nan

>  <Standardized_SMILES>  (692) 
CN1CCN(C(=O)c2ccc(-c3cnc(N)c(C(=O)Nc4cccnc4)n3)cc2)CC1

>  <Name>  (692) 
nan

>  <Pocket>  (692) 
nan

>  <ATP_Site>  (692) 
nan

>  <Peripheral>  (692) 
nan

>  <Num_H_Atoms_ProtBoundConf>  (692) 
nan

>  <Num_Resolved_Atoms>  (692) 
nan

>  <Num_Not_Resolved_Atoms>  (692) 
nan

$$$$
CHEMBL217414
     RDKit          3D

  0  0  0  0  0  0  0  0  0  0999 V3000
M  V30 BEGIN CTAB
M  V30 COUNTS 50 52 0 0 0
M  V30 BEGIN ATOM
M  V30 1 C 2.539608 -1.747231 1.769744 0
M  V30 2 C 2.667118 -0.432358 2.500382 0
M  V30 3 C 1.673067 -0.380886 3.634360 0
M  V30 4 O 1.917800 -1.425372 4.523375 0
M  V30 5 N 2.466391 0.621872 1.546251 0
M  V30 6 C 3.264557 0.743513 0.549670 0
M  V30 7 N 4.301077 -0.226932 0.508771 0
M  V30 8 C 3.020586 1.827812 -0.392694 0
M  V30 9 C 3.889348 1.929319 -1.442538 0
M  V30 10 O 5.004403 1.203563 -1.836032 0
M  V30 11 N 3.701967 2.919900 -2.344240 0
M  V30 12 S 2.204130 3.806137 -1.716847 0
M  V30 13 C 2.033634 2.736689 -0.341153 0
M  V30 14 N 1.026389 2.785083 0.692916 0
M  V30 15 C -0.182638 2.049818 0.543123 0
M  V30 16 C -1.189480 2.056457 1.493874 0
M  V30 17 C -2.327937 1.314269 1.269648 0
M  V30 18 C -2.490034 0.563112 0.119065 0
M  V30 19 O -3.652610 -0.161014 -0.051328 0
M  V30 20 C -3.664735 -1.555906 -0.202801 0
M  V30 21 C -4.219545 -1.941780 -1.406088 0
M  V30 22 C -4.316253 -3.282263 -1.730776 0
M  V30 23 C -3.866038 -4.242517 -0.869273 0
M  V30 24 C -3.317784 -3.843931 0.321334 0
M  V30 25 C -2.801732 -4.831462 1.318574 0
M  V30 26 F -2.978815 -6.113119 0.829878 0
M  V30 27 F -1.461378 -4.608719 1.555016 0
M  V30 28 F -3.486644 -4.649020 2.495592 0
M  V30 29 C -3.208910 -2.521051 0.670036 0
M  V30 30 Cl -2.529126 -1.894985 2.158056 0
M  V30 31 C -1.509554 0.524804 -0.862060 0
M  V30 32 F -1.618135 -0.185206 -1.991219 0
M  V30 33 C -0.396058 1.287858 -0.578397 0
M  V30 34 H 1.736834 -2.402257 2.211916 0
M  V30 35 H 3.457693 -2.358771 1.800386 0
M  V30 36 H 2.199448 -1.617564 0.702855 0
M  V30 37 H 3.690003 -0.300058 2.941112 0
M  V30 38 H 0.636566 -0.440054 3.310788 0
M  V30 39 H 1.856100 0.561494 4.223582 0
M  V30 40 H 2.453235 -2.160808 4.125926 0
M  V30 41 H 4.899810 -0.504291 1.316474 0
M  V30 42 H 4.425059 -0.667162 -0.451716 0
M  V30 43 H 4.908788 0.498151 -2.551071 0
M  V30 44 H 1.133072 3.351836 1.586029 0
M  V30 45 H -1.036748 2.652325 2.384083 0
M  V30 46 H -3.094794 1.345439 2.039084 0
M  V30 47 H -4.610120 -1.281173 -2.169179 0
M  V30 48 H -4.752310 -3.626714 -2.680106 0
M  V30 49 H -3.893868 -5.300047 -1.023348 0
M  V30 50 H 0.400083 1.281760 -1.331770 0
M  V30 END ATOM
M  V30 BEGIN BOND
M  V30 1 1 1 2
M  V30 2 1 2 3
M  V30 3 1 3 4
M  V30 4 1 2 5
M  V30 5 2 5 6
M  V30 6 1 6 7
M  V30 7 1 6 8
M  V30 8 1 8 9
M  V30 9 1 9 10
M  V30 10 2 9 11
M  V30 11 1 11 12
M  V30 12 1 12 13
M  V30 13 1 13 14
M  V30 14 1 14 15
M  V30 15 2 15 16
M  V30 16 1 16 17
M  V30 17 2 17 18
M  V30 18 1 18 19
M  V30 19 1 19 20
M  V30 20 2 20 21
M  V30 21 1 21 22
M  V30 22 2 22 23
M  V30 23 1 23 24
M  V30 24 1 24 25
M  V30 25 1 25 26
M  V30 26 1 25 27
M  V30 27 1 25 28
M  V30 28 2 24 29
M  V30 29 1 29 30
M  V30 30 1 18 31
M  V30 31 1 31 32
M  V30 32 2 31 33
M  V30 33 2 13 8
M  V30 34 1 33 15
M  V30 35 1 29 20
M  V30 36 1 1 34
M  V30 37 1 1 35
M  V30 38 1 1 36
M  V30 39 1 2 37
M  V30 40 1 3 38
M  V30 41 1 3 39
M  V30 42 1 4 40
M  V30 43 1 7 41
M  V30 44 1 7 42
M  V30 45 1 10 43
M  V30 46 1 14 44
M  V30 47 1 16 45
M  V30 48 1 17 46
M  V30 49 1 21 47
M  V30 50 1 22 48
M  V30 51 1 23 49
M  V30 52 1 33 50
M  V30 END BOND
M  V30 END CTAB
M  END
>  <Dataset>  (693) 
ChEMBL_Kinases

>  <Ligand_Instance>  (693) 
nan

>  <PDB_ID>  (693) 
nan

>  <Standardized_SMILES>  (693) 
CC(CO)/N=C(\N)c1c(O)nsc1Nc1ccc(Oc2cccc(C(F)(F)F)c2Cl)c(F)c1

>  <Name>  (693) 
nan

>  <Pocket>  (693) 
nan

>  <ATP_Site>  (693) 
nan

>  <Peripheral>  (693) 
nan

>  <Num_H_Atoms_ProtBoundConf>  (693) 
nan

>  <Num_Resolved_Atoms>  (693) 
nan

>  <Num_Not_Resolved_Atoms>  (693) 
nan

$$$$
CHEMBL217415
     RDKit          3D

  0  0  0  0  0  0  0  0  0  0999 V3000
M  V30 BEGIN CTAB
M  V30 COUNTS 50 52 0 0 0
M  V30 BEGIN ATOM
M  V30 1 C 0.631864 0.422693 3.133780 0
M  V30 2 C 1.915685 -0.160899 2.522123 0
M  V30 3 C 2.908850 -0.463002 3.589696 0
M  V30 4 O 4.051545 -1.131185 3.174880 0
M  V30 5 N 2.290644 0.706168 1.471114 0
M  V30 6 C 3.258766 0.731803 0.682737 0
M  V30 7 N 4.259724 -0.257937 0.752577 0
M  V30 8 C 3.191996 1.837057 -0.252232 0
M  V30 9 C 4.243776 1.928793 -1.114761 0
M  V30 10 O 5.420275 1.171360 -1.294386 0
M  V30 11 N 4.322987 2.968812 -2.122643 0
M  V30 12 S 2.762925 3.863152 -1.782666 0
M  V30 13 C 2.253315 2.837260 -0.470123 0
M  V30 14 N 1.079295 2.889202 0.334370 0
M  V30 15 C 0.108211 1.917489 -0.077769 0
M  V30 16 C -1.112753 1.802377 0.597490 0
M  V30 17 C -2.062748 0.868370 0.245124 0
M  V30 18 C -1.869652 -0.012333 -0.794729 0
M  V30 19 O -2.763187 -0.958565 -1.192444 0
M  V30 20 C -2.943954 -2.227872 -0.719261 0
M  V30 21 C -4.143051 -2.657335 -0.189592 0
M  V30 22 C -4.343764 -3.954198 0.299222 0
M  V30 23 C -5.687982 -4.331814 0.858050 0
M  V30 24 F -5.570397 -5.563758 1.463640 0
M  V30 25 F -6.060533 -3.434107 1.841419 0
M  V30 26 F -6.645405 -4.456967 -0.140038 0
M  V30 27 C -3.323393 -4.882413 0.270667 0
M  V30 28 C -2.085406 -4.502412 -0.256148 0
M  V30 29 C -1.955550 -3.212369 -0.719317 0
M  V30 30 F -0.734500 -2.942791 -1.204332 0
M  V30 31 C -0.675375 0.079041 -1.478129 0
M  V30 32 C 0.260868 1.018557 -1.111638 0
M  V30 33 H 0.675639 0.272830 4.234420 0
M  V30 34 H 0.689512 1.518151 2.982318 0
M  V30 35 H -0.237826 -0.031009 2.653269 0
M  V30 36 H 1.608253 -1.186048 2.116681 0
M  V30 37 H 3.230867 0.450982 4.153948 0
M  V30 38 H 2.387117 -1.139886 4.320201 0
M  V30 39 H 3.761409 -2.037990 2.838196 0
M  V30 40 H 5.044763 0.344999 1.103854 0
M  V30 41 H 3.913021 -1.197647 0.453348 0
M  V30 42 H 5.219917 0.206426 -1.603208 0
M  V30 43 H 0.845578 3.500962 1.131233 0
M  V30 44 H -1.251723 2.504974 1.413366 0
M  V30 45 H -2.997198 0.809025 0.791389 0
M  V30 46 H -5.017231 -1.986808 -0.130745 0
M  V30 47 H -3.479603 -5.870362 0.644923 0
M  V30 48 H -1.302964 -5.239600 -0.271170 0
M  V30 49 H -0.381643 -0.542284 -2.322433 0
M  V30 50 H 1.210560 1.089673 -1.657007 0
M  V30 END ATOM
M  V30 BEGIN BOND
M  V30 1 1 1 2
M  V30 2 1 2 3
M  V30 3 1 3 4
M  V30 4 1 2 5
M  V30 5 2 5 6
M  V30 6 1 6 7
M  V30 7 1 6 8
M  V30 8 1 8 9
M  V30 9 1 9 10
M  V30 10 2 9 11
M  V30 11 1 11 12
M  V30 12 1 12 13
M  V30 13 1 13 14
M  V30 14 1 14 15
M  V30 15 2 15 16
M  V30 16 1 16 17
M  V30 17 2 17 18
M  V30 18 1 18 19
M  V30 19 1 19 20
M  V30 20 2 20 21
M  V30 21 1 21 22
M  V30 22 1 22 23
M  V30 23 1 23 24
M  V30 24 1 23 25
M  V30 25 1 23 26
M  V30 26 2 22 27
M  V30 27 1 27 28
M  V30 28 2 28 29
M  V30 29 1 29 30
M  V30 30 1 18 31
M  V30 31 2 31 32
M  V30 32 2 13 8
M  V30 33 1 32 15
M  V30 34 1 29 20
M  V30 35 1 1 33
M  V30 36 1 1 34
M  V30 37 1 1 35
M  V30 38 1 2 36
M  V30 39 1 3 37
M  V30 40 1 3 38
M  V30 41 1 4 39
M  V30 42 1 7 40
M  V30 43 1 7 41
M  V30 44 1 10 42
M  V30 45 1 14 43
M  V30 46 1 16 44
M  V30 47 1 17 45
M  V30 48 1 21 46
M  V30 49 1 27 47
M  V30 50 1 28 48
M  V30 51 1 31 49
M  V30 52 1 32 50
M  V30 END BOND
M  V30 END CTAB
M  END
>  <Dataset>  (694) 
ChEMBL_Kinases

>  <Ligand_Instance>  (694) 
nan

>  <PDB_ID>  (694) 
nan

>  <Standardized_SMILES>  (694) 
CC(CO)/N=C(\N)c1c(O)nsc1Nc1ccc(Oc2cc(C(F)(F)F)ccc2F)cc1

>  <Name>  (694) 
nan

>  <Pocket>  (694) 
nan

>  <ATP_Site>  (694) 
nan

>  <Peripheral>  (694) 
nan

>  <Num_H_Atoms_ProtBoundConf>  (694) 
nan

>  <Num_Resolved_Atoms>  (694) 
nan

>  <Num_Not_Resolved_Atoms>  (694) 
nan

$$$$
CHEMBL217416
     RDKit          3D

  0  0  0  0  0  0  0  0  0  0999 V3000
M  V30 BEGIN CTAB
M  V30 COUNTS 50 52 0 0 0
M  V30 BEGIN ATOM
M  V30 1 C -2.844241 -0.202655 -0.402315 0
M  V30 2 C -1.511340 -0.853968 -0.529124 0
M  V30 3 C -0.493669 0.069885 -0.798266 0
M  V30 4 C 0.814756 -0.338924 -0.950757 0
M  V30 5 N 1.855678 0.577431 -1.222683 0
M  V30 6 C 1.649466 1.950147 -1.359443 0
M  V30 7 S 1.262030 2.840664 -2.929133 0
M  V30 8 N 1.170550 4.538198 -2.145434 0
M  V30 9 C 1.437750 4.206282 -0.843915 0
M  V30 10 O 1.383398 5.430075 -0.211473 0
M  V30 11 C 1.682847 2.936906 -0.398926 0
M  V30 12 C 1.947492 2.769078 1.014633 0
M  V30 13 N 1.982066 3.783893 2.002789 0
M  V30 14 N 2.167528 1.545391 1.349299 0
M  V30 15 C 2.454109 1.174432 2.733146 0
M  V30 16 C 3.076091 -0.194793 2.783248 0
M  V30 17 C 1.128579 1.208139 3.490796 0
M  V30 18 O 0.224639 0.319717 2.941673 0
M  V30 19 C 1.068559 -1.688316 -0.826579 0
M  V30 20 C 0.089279 -2.620292 -0.562581 0
M  V30 21 C -1.219900 -2.218394 -0.408735 0
M  V30 22 O -2.390942 -2.903561 -0.143019 0
M  V30 23 C -2.438993 -4.269262 0.066486 0
M  V30 24 C -3.183636 -5.031995 -0.835905 0
M  V30 25 C -3.217483 -6.389336 -0.606418 0
M  V30 26 F -3.939662 -7.149345 -1.477386 0
M  V30 27 C -2.582041 -7.068867 0.435740 0
M  V30 28 C -1.846602 -6.272854 1.318792 0
M  V30 29 C -1.799737 -4.910892 1.107335 0
M  V30 30 Cl -0.870597 -3.976849 2.277066 0
M  V30 31 H -2.987416 0.466827 -1.276465 0
M  V30 32 H -3.663212 -0.917487 -0.248555 0
M  V30 33 H -2.806010 0.447068 0.508847 0
M  V30 34 H -0.648783 1.135513 -0.903493 0
M  V30 35 H 2.830625 0.223715 -1.328708 0
M  V30 36 H 2.177886 6.054421 -0.149610 0
M  V30 37 H 1.212365 4.372257 2.441519 0
M  V30 38 H 2.815892 4.157578 2.506127 0
M  V30 39 H 3.144450 1.905681 3.191682 0
M  V30 40 H 4.171354 -0.096440 2.863645 0
M  V30 41 H 2.654359 -0.800926 3.634282 0
M  V30 42 H 2.814139 -0.799245 1.872470 0
M  V30 43 H 1.295789 1.050600 4.577216 0
M  V30 44 H 0.707216 2.229230 3.395357 0
M  V30 45 H -0.410431 -0.073084 3.609757 0
M  V30 46 H 2.059831 -2.080563 -0.932080 0
M  V30 47 H 0.196215 -3.677202 -0.459058 0
M  V30 48 H -3.693501 -4.585153 -1.651867 0
M  V30 49 H -2.682835 -8.143219 0.511884 0
M  V30 50 H -1.342382 -6.770947 2.137406 0
M  V30 END ATOM
M  V30 BEGIN BOND
M  V30 1 1 1 2
M  V30 2 2 2 3
M  V30 3 1 3 4
M  V30 4 1 4 5
M  V30 5 1 5 6
M  V30 6 1 6 7
M  V30 7 1 7 8
M  V30 8 2 8 9
M  V30 9 1 9 10
M  V30 10 1 9 11
M  V30 11 1 11 12
M  V30 12 1 12 13
M  V30 13 2 12 14
M  V30 14 1 14 15
M  V30 15 1 15 16
M  V30 16 1 15 17
M  V30 17 1 17 18
M  V30 18 2 4 19
M  V30 19 1 19 20
M  V30 20 2 20 21
M  V30 21 1 21 22
M  V30 22 1 22 23
M  V30 23 2 23 24
M  V30 24 1 24 25
M  V30 25 1 25 26
M  V30 26 2 25 27
M  V30 27 1 27 28
M  V30 28 2 28 29
M  V30 29 1 29 30
M  V30 30 1 21 2
M  V30 31 1 29 23
M  V30 32 2 11 6
M  V30 33 1 1 31
M  V30 34 1 1 32
M  V30 35 1 1 33
M  V30 36 1 3 34
M  V30 37 1 5 35
M  V30 38 1 10 36
M  V30 39 1 13 37
M  V30 40 1 13 38
M  V30 41 1 15 39
M  V30 42 1 16 40
M  V30 43 1 16 41
M  V30 44 1 16 42
M  V30 45 1 17 43
M  V30 46 1 17 44
M  V30 47 1 18 45
M  V30 48 1 19 46
M  V30 49 1 20 47
M  V30 50 1 24 48
M  V30 51 1 27 49
M  V30 52 1 28 50
M  V30 END BOND
M  V30 END CTAB
M  END
>  <Dataset>  (695) 
ChEMBL_Kinases

>  <Ligand_Instance>  (695) 
nan

>  <PDB_ID>  (695) 
nan

>  <Standardized_SMILES>  (695) 
Cc1cc(Nc2snc(O)c2/C(N)=N/C(C)CO)ccc1Oc1cc(F)ccc1Cl

>  <Name>  (695) 
nan

>  <Pocket>  (695) 
nan

>  <ATP_Site>  (695) 
nan

>  <Peripheral>  (695) 
nan

>  <Num_H_Atoms_ProtBoundConf>  (695) 
nan

>  <Num_Resolved_Atoms>  (695) 
nan

>  <Num_Not_Resolved_Atoms>  (695) 
nan

$$$$
CHEMBL2177156
     RDKit          3D

  0  0  0  0  0  0  0  0  0  0999 V3000
M  V30 BEGIN CTAB
M  V30 COUNTS 61 64 0 0 0
M  V30 BEGIN ATOM
M  V30 1 C -0.073754 -2.233679 1.696601 0
M  V30 2 C 0.584022 -1.433942 0.651764 0
M  V30 3 C 1.528813 -0.477113 1.042223 0
M  V30 4 C 2.197917 0.318515 0.148482 0
M  V30 5 S 3.373820 1.509891 0.655000 0
M  V30 6 O 4.752114 1.219444 0.190593 0
M  V30 7 O 3.412651 1.545203 2.170269 0
M  V30 8 N 2.804074 3.041833 0.118988 0
M  V30 9 C 1.549829 3.408006 0.686130 0
M  V30 10 C 1.613812 4.739529 1.370092 0
M  V30 11 N 2.110405 5.791106 0.532149 0
M  V30 12 C 1.101104 6.602909 -0.069658 0
M  V30 13 C 3.145682 5.340400 -0.376843 0
M  V30 14 C 3.749181 4.095721 0.290567 0
M  V30 15 C 1.925370 0.167339 -1.200442 0
M  V30 16 C 2.625217 1.004918 -2.196885 0
M  V30 17 C 0.987848 -0.785380 -1.555076 0
M  V30 18 C 0.307795 -1.591873 -0.668684 0
M  V30 19 C -0.671588 -2.579563 -1.100746 0
M  V30 20 C -1.017898 -2.809140 -2.413256 0
M  V30 21 N -1.922877 -3.720452 -2.809088 0
M  V30 22 C -2.553734 -4.480446 -1.867270 0
M  V30 23 N -3.505273 -5.434560 -2.320555 0
M  V30 24 C -2.224494 -4.269799 -0.545228 0
M  V30 25 C -2.917049 -5.098598 0.433804 0
M  V30 26 O -3.759435 -5.944559 0.040673 0
M  V30 27 N -2.718391 -5.033903 1.841909 0
M  V30 28 C -3.519608 -5.952263 2.583798 0
M  V30 29 C -3.059266 -7.234183 2.869515 0
M  V30 30 C -3.924169 -8.027461 3.593019 0
M  V30 31 C -5.171237 -7.613356 4.022859 0
M  V30 32 N -5.556291 -6.360558 3.712767 0
M  V30 33 C -4.777975 -5.514843 3.009877 0
M  V30 34 N -1.318907 -3.351813 -0.209850 0
M  V30 35 H 0.290828 -1.931001 2.718661 0
M  V30 36 H 0.159034 -3.324051 1.651663 0
M  V30 37 H -1.183099 -2.036967 1.764819 0
M  V30 38 H 1.758618 -0.341687 2.097604 0
M  V30 39 H 1.209648 2.648141 1.441842 0
M  V30 40 H 0.717365 3.427765 -0.073646 0
M  V30 41 H 0.542230 5.018357 1.596575 0
M  V30 42 H 2.094072 4.698625 2.364466 0
M  V30 43 H 0.172827 6.525605 0.532742 0
M  V30 44 H 0.955735 6.318752 -1.127380 0
M  V30 45 H 1.482728 7.664421 -0.056837 0
M  V30 46 H 3.890384 6.090278 -0.635619 0
M  V30 47 H 2.617176 4.971232 -1.278782 0
M  V30 48 H 3.930965 4.391448 1.353622 0
M  V30 49 H 4.755429 3.877874 -0.114815 0
M  V30 50 H 2.043637 1.948747 -2.297956 0
M  V30 51 H 2.613554 0.518129 -3.192208 0
M  V30 52 H 3.691517 1.169171 -1.940265 0
M  V30 53 H 0.819899 -0.855736 -2.620838 0
M  V30 54 H -0.548840 -2.235233 -3.193203 0
M  V30 55 H -4.434832 -4.981739 -2.419599 0
M  V30 56 H -3.001326 -6.338292 -2.430414 0
M  V30 57 H -2.013236 -4.329304 2.203016 0
M  V30 58 H -2.083709 -7.557858 2.533249 0
M  V30 59 H -3.591572 -9.027574 3.828557 0
M  V30 60 H -5.829839 -8.279532 4.597980 0
M  V30 61 H -5.164718 -4.527519 2.804695 0
M  V30 END ATOM
M  V30 BEGIN BOND
M  V30 1 1 1 2
M  V30 2 2 2 3
M  V30 3 1 3 4
M  V30 4 1 4 5
M  V30 5 2 5 6
M  V30 6 2 5 7
M  V30 7 1 5 8
M  V30 8 1 8 9
M  V30 9 1 9 10
M  V30 10 1 10 11
M  V30 11 1 11 12
M  V30 12 1 11 13
M  V30 13 1 13 14
M  V30 14 2 4 15
M  V30 15 1 15 16
M  V30 16 1 15 17
M  V30 17 2 17 18
M  V30 18 1 18 19
M  V30 19 2 19 20
M  V30 20 1 20 21
M  V30 21 2 21 22
M  V30 22 1 22 23
M  V30 23 1 22 24
M  V30 24 1 24 25
M  V30 25 2 25 26
M  V30 26 1 25 27
M  V30 27 1 27 28
M  V30 28 2 28 29
M  V30 29 1 29 30
M  V30 30 2 30 31
M  V30 31 1 31 32
M  V30 32 2 32 33
M  V30 33 2 24 34
M  V30 34 1 18 2
M  V30 35 1 34 19
M  V30 36 1 14 8
M  V30 37 1 33 28
M  V30 38 1 1 35
M  V30 39 1 1 36
M  V30 40 1 1 37
M  V30 41 1 3 38
M  V30 42 1 9 39
M  V30 43 1 9 40
M  V30 44 1 10 41
M  V30 45 1 10 42
M  V30 46 1 12 43
M  V30 47 1 12 44
M  V30 48 1 12 45
M  V30 49 1 13 46
M  V30 50 1 13 47
M  V30 51 1 14 48
M  V30 52 1 14 49
M  V30 53 1 16 50
M  V30 54 1 16 51
M  V30 55 1 16 52
M  V30 56 1 17 53
M  V30 57 1 20 54
M  V30 58 1 23 55
M  V30 59 1 23 56
M  V30 60 1 27 57
M  V30 61 1 29 58
M  V30 62 1 30 59
M  V30 63 1 31 60
M  V30 64 1 33 61
M  V30 END BOND
M  V30 END CTAB
M  END
>  <Dataset>  (696) 
ChEMBL_Kinases

>  <Ligand_Instance>  (696) 
nan

>  <PDB_ID>  (696) 
nan

>  <Standardized_SMILES>  (696) 
Cc1cc(S(=O)(=O)N2CCN(C)CC2)c(C)cc1-c1cnc(N)c(C(=O)Nc2cccnc2)n1

>  <Name>  (696) 
nan

>  <Pocket>  (696) 
nan

>  <ATP_Site>  (696) 
nan

>  <Peripheral>  (696) 
nan

>  <Num_H_Atoms_ProtBoundConf>  (696) 
nan

>  <Num_Resolved_Atoms>  (696) 
nan

>  <Num_Not_Resolved_Atoms>  (696) 
nan

$$$$
CHEMBL2177158
     RDKit          3D

  0  0  0  0  0  0  0  0  0  0999 V3000
M  V30 BEGIN CTAB
M  V30 COUNTS 58 61 0 0 0
M  V30 BEGIN ATOM
M  V30 1 C 0.840775 -4.308476 1.661933 0
M  V30 2 C 0.388200 -2.938369 1.475099 0
M  V30 3 C 1.241358 -1.887225 1.805881 0
M  V30 4 C 0.862785 -0.571778 1.661039 0
M  V30 5 C 1.729713 0.549868 2.000719 0
M  V30 6 C 3.004743 0.389943 2.501689 0
M  V30 7 N 3.775459 1.478744 2.806130 0
M  V30 8 C 3.292957 2.719810 2.618168 0
M  V30 9 N 4.131173 3.812521 2.950615 0
M  V30 10 C 2.025520 2.908054 2.120260 0
M  V30 11 C 1.456297 4.228387 1.897253 0
M  V30 12 O 1.981183 5.321373 2.105369 0
M  V30 13 N 0.141076 4.359018 1.378536 0
M  V30 14 C -0.437846 5.623704 1.151078 0
M  V30 15 C -0.198756 6.130144 -0.127901 0
M  V30 16 C -0.728398 7.370716 -0.448196 0
M  V30 17 C -1.461376 8.063462 0.475819 0
M  V30 18 N -1.677189 7.546691 1.709800 0
M  V30 19 C -1.186799 6.347463 2.073951 0
M  V30 20 N 1.301642 1.815588 1.834272 0
M  V30 21 C -0.398743 -0.302448 1.173972 0
M  V30 22 C -1.205685 -1.373469 0.860961 0
M  V30 23 C -0.882953 -2.733389 0.983857 0
M  V30 24 S -2.025019 -3.936703 0.524741 0
M  V30 25 O -3.305153 -3.227401 0.090158 0
M  V30 26 O -2.474607 -4.786365 1.687245 0
M  V30 27 N -1.592846 -4.942112 -0.758383 0
M  V30 28 C -1.397389 -6.289540 -0.377580 0
M  V30 29 C -1.321948 -7.246654 -1.551176 0
M  V30 30 N -1.159855 -6.571475 -2.821064 0
M  V30 31 C -2.428564 -6.115105 -3.355722 0
M  V30 32 C -0.262995 -5.436080 -2.754661 0
M  V30 33 C -0.738414 -4.403831 -1.752530 0
M  V30 34 H 1.255184 -4.709678 0.733877 0
M  V30 35 H 1.697930 -4.308887 2.398906 0
M  V30 36 H 0.097398 -4.990710 2.101734 0
M  V30 37 H 2.221014 -2.141346 2.184527 0
M  V30 38 H 3.420495 -0.585437 2.663950 0
M  V30 39 H 5.151970 3.736463 3.084303 0
M  V30 40 H 4.001569 4.809915 3.125299 0
M  V30 41 H -0.474438 3.526891 1.134222 0
M  V30 42 H 0.357039 5.670693 -0.915034 0
M  V30 43 H -0.631496 7.886698 -1.382572 0
M  V30 44 H -1.941258 9.032732 0.390139 0
M  V30 45 H -1.317289 5.875587 3.035070 0
M  V30 46 H -0.746998 0.705766 1.040414 0
M  V30 47 H -2.204134 -1.109952 0.475592 0
M  V30 48 H -0.526258 -6.392728 0.268399 0
M  V30 49 H -2.289484 -6.595559 0.232892 0
M  V30 50 H -0.501085 -7.976075 -1.362262 0
M  V30 51 H -2.246448 -7.854260 -1.617752 0
M  V30 52 H -3.264282 -6.596233 -2.780639 0
M  V30 53 H -2.525383 -5.033087 -3.191079 0
M  V30 54 H -2.565170 -6.319085 -4.426901 0
M  V30 55 H -0.277770 -4.986701 -3.771861 0
M  V30 56 H 0.784632 -5.739157 -2.569781 0
M  V30 57 H 0.170163 -3.990957 -1.268071 0
M  V30 58 H -1.189640 -3.547812 -2.297443 0
M  V30 END ATOM
M  V30 BEGIN BOND
M  V30 1 1 1 2
M  V30 2 2 2 3
M  V30 3 1 3 4
M  V30 4 1 4 5
M  V30 5 2 5 6
M  V30 6 1 6 7
M  V30 7 2 7 8
M  V30 8 1 8 9
M  V30 9 1 8 10
M  V30 10 1 10 11
M  V30 11 2 11 12
M  V30 12 1 11 13
M  V30 13 1 13 14
M  V30 14 2 14 15
M  V30 15 1 15 16
M  V30 16 2 16 17
M  V30 17 1 17 18
M  V30 18 2 18 19
M  V30 19 2 10 20
M  V30 20 2 4 21
M  V30 21 1 21 22
M  V30 22 2 22 23
M  V30 23 1 23 24
M  V30 24 2 24 25
M  V30 25 2 24 26
M  V30 26 1 24 27
M  V30 27 1 27 28
M  V30 28 1 28 29
M  V30 29 1 29 30
M  V30 30 1 30 31
M  V30 31 1 30 32
M  V30 32 1 32 33
M  V30 33 1 23 2
M  V30 34 1 33 27
M  V30 35 1 20 5
M  V30 36 1 19 14
M  V30 37 1 1 34
M  V30 38 1 1 35
M  V30 39 1 1 36
M  V30 40 1 3 37
M  V30 41 1 6 38
M  V30 42 1 9 39
M  V30 43 1 9 40
M  V30 44 1 13 41
M  V30 45 1 15 42
M  V30 46 1 16 43
M  V30 47 1 17 44
M  V30 48 1 19 45
M  V30 49 1 21 46
M  V30 50 1 22 47
M  V30 51 1 28 48
M  V30 52 1 28 49
M  V30 53 1 29 50
M  V30 54 1 29 51
M  V30 55 1 31 52
M  V30 56 1 31 53
M  V30 57 1 31 54
M  V30 58 1 32 55
M  V30 59 1 32 56
M  V30 60 1 33 57
M  V30 61 1 33 58
M  V30 END BOND
M  V30 END CTAB
M  END
>  <Dataset>  (697) 
ChEMBL_Kinases

>  <Ligand_Instance>  (697) 
nan

>  <PDB_ID>  (697) 
nan

>  <Standardized_SMILES>  (697) 
Cc1cc(-c2cnc(N)c(C(=O)Nc3cccnc3)n2)ccc1S(=O)(=O)N1CCN(C)CC1

>  <Name>  (697) 
nan

>  <Pocket>  (697) 
nan

>  <ATP_Site>  (697) 
nan

>  <Peripheral>  (697) 
nan

>  <Num_H_Atoms_ProtBoundConf>  (697) 
nan

>  <Num_Resolved_Atoms>  (697) 
nan

>  <Num_Not_Resolved_Atoms>  (697) 
nan

$$$$
CHEMBL2177160
     RDKit          3D

  0  0  0  0  0  0  0  0  0  0999 V3000
M  V30 BEGIN CTAB
M  V30 COUNTS 57 60 0 0 0
M  V30 BEGIN ATOM
M  V30 1 N -1.412315 -6.687585 3.716450 0
M  V30 2 C -0.728723 -5.543525 3.244058 0
M  V30 3 N 0.552565 -5.467263 3.651398 0
M  V30 4 C 1.303195 -4.418846 3.266406 0
M  V30 5 C 0.692770 -3.480547 2.466805 0
M  V30 6 C 1.435280 -2.315556 1.999417 0
M  V30 7 C 2.753070 -2.057084 2.305401 0
M  V30 8 C 3.434216 -0.940636 1.838874 0
M  V30 9 C 2.757844 -0.048326 1.030390 0
M  V30 10 O 3.501746 1.041930 0.601998 0
M  V30 11 C 2.828161 1.989119 -0.241326 0
M  V30 12 C 3.717127 3.110878 -0.641076 0
M  V30 13 N 3.066872 4.083409 -1.494179 0
M  V30 14 C 2.074867 4.809923 -0.810388 0
M  V30 15 C 0.834363 5.160907 -1.555188 0
M  V30 16 C 0.336312 3.853552 -2.188376 0
M  V30 17 C 1.383416 3.544599 -3.246013 0
M  V30 18 C 2.763418 3.462642 -2.726266 0
M  V30 19 C 1.436506 -0.235301 0.678434 0
M  V30 20 C 0.839618 -1.370296 1.186654 0
M  V30 21 N -0.598863 -3.590609 2.076869 0
M  V30 22 C -1.371651 -4.626053 2.445863 0
M  V30 23 C -2.764935 -4.782139 2.044112 0
M  V30 24 O -3.303178 -5.840655 2.496344 0
M  V30 25 N -3.368034 -3.785984 1.222550 0
M  V30 26 C -4.719406 -3.939800 0.832109 0
M  V30 27 C -4.794480 -4.644464 -0.375559 0
M  V30 28 C -6.039776 -4.916814 -0.957125 0
M  V30 29 C -7.152446 -4.458846 -0.282482 0
M  V30 30 N -7.068470 -3.778256 0.884814 0
M  V30 31 C -5.876284 -3.512042 1.451374 0
M  V30 32 H -1.783995 -7.633348 3.449597 0
M  V30 33 H -1.902105 -7.304048 4.385182 0
M  V30 34 H 2.327469 -4.364943 3.596355 0
M  V30 35 H 3.293552 -2.734277 2.928616 0
M  V30 36 H 4.476666 -0.812945 2.131035 0
M  V30 37 H 2.001781 2.377473 0.384394 0
M  V30 38 H 2.455457 1.384366 -1.087322 0
M  V30 39 H 4.564699 2.695387 -1.262941 0
M  V30 40 H 4.181590 3.564535 0.253363 0
M  V30 41 H 2.533846 5.799619 -0.496261 0
M  V30 42 H 1.749328 4.372825 0.166062 0
M  V30 43 H 0.075141 5.532971 -0.865991 0
M  V30 44 H 1.000000 5.832949 -2.421241 0
M  V30 45 H 0.257164 3.076546 -1.429013 0
M  V30 46 H -0.633116 4.000680 -2.663264 0
M  V30 47 H 1.089801 2.571652 -3.686719 0
M  V30 48 H 1.267887 4.321580 -4.030340 0
M  V30 49 H 3.114853 2.389536 -2.761009 0
M  V30 50 H 3.431482 3.951385 -3.501855 0
M  V30 51 H 0.928090 0.471951 0.048086 0
M  V30 52 H -0.212293 -1.508126 0.899257 0
M  V30 53 H -2.773207 -2.972155 0.940732 0
M  V30 54 H -3.963044 -5.033358 -0.959994 0
M  V30 55 H -6.126072 -5.465895 -1.900616 0
M  V30 56 H -8.129512 -4.659924 -0.716591 0
M  V30 57 H -5.676234 -2.984521 2.369226 0
M  V30 END ATOM
M  V30 BEGIN BOND
M  V30 1 1 1 2
M  V30 2 2 2 3
M  V30 3 1 3 4
M  V30 4 2 4 5
M  V30 5 1 5 6
M  V30 6 2 6 7
M  V30 7 1 7 8
M  V30 8 2 8 9
M  V30 9 1 9 10
M  V30 10 1 10 11
M  V30 11 1 11 12
M  V30 12 1 12 13
M  V30 13 1 13 14
M  V30 14 1 14 15
M  V30 15 1 15 16
M  V30 16 1 16 17
M  V30 17 1 17 18
M  V30 18 1 9 19
M  V30 19 2 19 20
M  V30 20 1 5 21
M  V30 21 2 21 22
M  V30 22 1 22 23
M  V30 23 2 23 24
M  V30 24 1 23 25
M  V30 25 1 25 26
M  V30 26 2 26 27
M  V30 27 1 27 28
M  V30 28 2 28 29
M  V30 29 1 29 30
M  V30 30 2 30 31
M  V30 31 1 22 2
M  V30 32 1 31 26
M  V30 33 1 20 6
M  V30 34 1 18 13
M  V30 35 1 1 32
M  V30 36 1 1 33
M  V30 37 1 4 34
M  V30 38 1 7 35
M  V30 39 1 8 36
M  V30 40 1 11 37
M  V30 41 1 11 38
M  V30 42 1 12 39
M  V30 43 1 12 40
M  V30 44 1 14 41
M  V30 45 1 14 42
M  V30 46 1 15 43
M  V30 47 1 15 44
M  V30 48 1 16 45
M  V30 49 1 16 46
M  V30 50 1 17 47
M  V30 51 1 17 48
M  V30 52 1 18 49
M  V30 53 1 18 50
M  V30 54 1 19 51
M  V30 55 1 20 52
M  V30 56 1 25 53
M  V30 57 1 27 54
M  V30 58 1 28 55
M  V30 59 1 29 56
M  V30 60 1 31 57
M  V30 END BOND
M  V30 END CTAB
M  END
>  <Dataset>  (698) 
ChEMBL_Kinases

>  <Ligand_Instance>  (698) 
nan

>  <PDB_ID>  (698) 
nan

>  <Standardized_SMILES>  (698) 
Nc1ncc(-c2ccc(OCCN3CCCCC3)cc2)nc1C(=O)Nc1cccnc1

>  <Name>  (698) 
nan

>  <Pocket>  (698) 
nan

>  <ATP_Site>  (698) 
nan

>  <Peripheral>  (698) 
nan

>  <Num_H_Atoms_ProtBoundConf>  (698) 
nan

>  <Num_Resolved_Atoms>  (698) 
nan

>  <Num_Not_Resolved_Atoms>  (698) 
nan

$$$$
CHEMBL2177162
     RDKit          3D

  0  0  0  0  0  0  0  0  0  0999 V3000
M  V30 BEGIN CTAB
M  V30 COUNTS 50 53 0 0 0
M  V30 BEGIN ATOM
M  V30 1 N -5.265772 -2.251901 0.284367 0
M  V30 2 C -4.070654 -1.515760 0.143573 0
M  V30 3 N -4.289469 -0.184166 0.008920 0
M  V30 4 C -3.199337 0.626453 -0.135071 0
M  V30 5 C -1.938458 0.068723 -0.137992 0
M  V30 6 C -0.725265 0.861385 -0.286451 0
M  V30 7 C 0.494546 0.216703 -0.277880 0
M  V30 8 C 1.713469 0.883732 -0.413031 0
M  V30 9 C 1.705766 2.271384 -0.564768 0
M  V30 10 S 3.288026 3.012134 -0.727128 0
M  V30 11 O 4.221696 2.124640 -1.454942 0
M  V30 12 O 3.070496 4.296488 -1.488006 0
M  V30 13 N 3.862789 3.426679 0.847447 0
M  V30 14 C 4.022591 2.301115 1.710867 0
M  V30 15 C 3.997897 2.854350 3.120433 0
M  V30 16 C 3.222977 4.141944 2.987495 0
M  V30 17 C 3.013417 4.374992 1.499651 0
M  V30 18 C 0.495090 2.933418 -0.575655 0
M  V30 19 C -0.685841 2.230578 -0.438505 0
M  V30 20 N -1.779968 -1.259131 -0.000718 0
M  V30 21 C -2.842652 -2.093574 0.144499 0
M  V30 22 C -2.693562 -3.534743 0.294381 0
M  V30 23 O -3.767747 -4.173919 0.417982 0
M  V30 24 N -1.468695 -4.219975 0.307729 0
M  V30 25 C -1.221907 -5.607050 0.446509 0
M  V30 26 C -2.147410 -6.605594 0.601541 0
M  V30 27 C -1.811856 -7.936617 0.729431 0
M  V30 28 C -0.486734 -8.317125 0.704265 0
M  V30 29 N 0.416522 -7.332325 0.551798 0
M  V30 30 C 0.084803 -6.036689 0.427571 0
M  V30 31 H -5.760725 -3.078601 -0.118246 0
M  V30 32 H -5.763814 -3.078628 -0.116226 0
M  V30 33 H -3.333095 1.688213 -0.244522 0
M  V30 34 H 0.578946 -0.875181 -0.162543 0
M  V30 35 H 2.652227 0.311926 -0.398150 0
M  V30 36 H 3.122901 1.658641 1.617789 0
M  V30 37 H 4.971174 1.797876 1.505641 0
M  V30 38 H 5.017785 3.026452 3.510110 0
M  V30 39 H 3.490138 2.137821 3.795127 0
M  V30 40 H 3.808628 4.953379 3.456883 0
M  V30 41 H 2.256838 4.023449 3.495456 0
M  V30 42 H 1.957271 4.344367 1.229013 0
M  V30 43 H 3.380977 5.406347 1.237474 0
M  V30 44 H 0.542694 3.990821 -0.693895 0
M  V30 45 H -1.623329 2.767966 -0.449677 0
M  V30 46 H -0.672362 -3.563270 0.196319 0
M  V30 47 H -3.179955 -6.359838 0.626654 0
M  V30 48 H -2.554502 -8.699147 0.849613 0
M  V30 49 H -0.114390 -9.330472 0.795927 0
M  V30 50 H 0.909358 -5.319709 0.308208 0
M  V30 END ATOM
M  V30 BEGIN BOND
M  V30 1 1 1 2
M  V30 2 2 2 3
M  V30 3 1 3 4
M  V30 4 2 4 5
M  V30 5 1 5 6
M  V30 6 2 6 7
M  V30 7 1 7 8
M  V30 8 2 8 9
M  V30 9 1 9 10
M  V30 10 2 10 11
M  V30 11 2 10 12
M  V30 12 1 10 13
M  V30 13 1 13 14
M  V30 14 1 14 15
M  V30 15 1 15 16
M  V30 16 1 16 17
M  V30 17 1 9 18
M  V30 18 2 18 19
M  V30 19 1 5 20
M  V30 20 2 20 21
M  V30 21 1 21 22
M  V30 22 2 22 23
M  V30 23 1 22 24
M  V30 24 1 24 25
M  V30 25 2 25 26
M  V30 26 1 26 27
M  V30 27 2 27 28
M  V30 28 1 28 29
M  V30 29 2 29 30
M  V30 30 1 21 2
M  V30 31 1 30 25
M  V30 32 1 19 6
M  V30 33 1 17 13
M  V30 34 1 1 31
M  V30 35 1 1 32
M  V30 36 1 4 33
M  V30 37 1 7 34
M  V30 38 1 8 35
M  V30 39 1 14 36
M  V30 40 1 14 37
M  V30 41 1 15 38
M  V30 42 1 15 39
M  V30 43 1 16 40
M  V30 44 1 16 41
M  V30 45 1 17 42
M  V30 46 1 17 43
M  V30 47 1 18 44
M  V30 48 1 19 45
M  V30 49 1 24 46
M  V30 50 1 26 47
M  V30 51 1 27 48
M  V30 52 1 28 49
M  V30 53 1 30 50
M  V30 END BOND
M  V30 END CTAB
M  END
>  <Dataset>  (699) 
ChEMBL_Kinases

>  <Ligand_Instance>  (699) 
nan

>  <PDB_ID>  (699) 
nan

>  <Standardized_SMILES>  (699) 
Nc1ncc(-c2ccc(S(=O)(=O)N3CCCC3)cc2)nc1C(=O)Nc1cccnc1

>  <Name>  (699) 
nan

>  <Pocket>  (699) 
nan

>  <ATP_Site>  (699) 
nan

>  <Peripheral>  (699) 
nan

>  <Num_H_Atoms_ProtBoundConf>  (699) 
nan

>  <Num_Resolved_Atoms>  (699) 
nan

>  <Num_Not_Resolved_Atoms>  (699) 
nan

$$$$
CHEMBL2177164
     RDKit          3D

  0  0  0  0  0  0  0  0  0  0999 V3000
M  V30 BEGIN CTAB
M  V30 COUNTS 40 42 0 0 0
M  V30 BEGIN ATOM
M  V30 1 N 1.609345 -4.453362 2.560273 0
M  V30 2 C 1.732988 -3.281160 1.765564 0
M  V30 3 N 2.859463 -3.089712 1.018700 0
M  V30 4 C 2.954654 -1.973093 0.274267 0
M  V30 5 C 1.986161 -0.993462 0.207957 0
M  V30 6 C 2.116170 0.209457 -0.609336 0
M  V30 7 C 3.209102 0.498737 -1.398085 0
M  V30 8 C 3.242707 1.676396 -2.146001 0
M  V30 9 C 2.190090 2.566177 -2.109779 0
M  V30 10 S 2.410809 3.984978 -3.111434 0
M  V30 11 N 1.793326 3.709036 -4.705861 0
M  V30 12 O 3.858705 4.390579 -3.154372 0
M  V30 13 O 1.662184 5.160366 -2.535115 0
M  V30 14 C 1.092620 2.287961 -1.325347 0
M  V30 15 C 1.079100 1.118993 -0.594015 0
M  V30 16 N 0.901322 -1.224869 0.956334 0
M  V30 17 C 0.746471 -2.320264 1.720905 0
M  V30 18 C -0.461229 -2.514317 2.514678 0
M  V30 19 O -0.514376 -3.562253 3.193078 0
M  V30 20 N -1.540875 -1.602352 2.552311 0
M  V30 21 C -2.751845 -1.688991 3.281399 0
M  V30 22 C -3.158680 -2.680955 4.122441 0
M  V30 23 C -4.354181 -2.676847 4.786724 0
M  V30 24 C -5.217882 -1.617174 4.612444 0
M  V30 25 N -4.823458 -0.637000 3.785625 0
M  V30 26 C -3.654779 -0.660095 3.148055 0
M  V30 27 H 1.195433 -5.256676 2.003552 0
M  V30 28 H 1.936353 -4.358194 3.556240 0
M  V30 29 H 3.865501 -1.870658 -0.297220 0
M  V30 30 H 4.025829 -0.188726 -1.428001 0
M  V30 31 H 4.144335 1.824079 -2.740370 0
M  V30 32 H 1.218091 2.825147 -4.741350 0
M  V30 33 H 2.518153 3.760654 -5.444720 0
M  V30 34 H 0.307445 3.021287 -1.341427 0
M  V30 35 H 0.167590 0.989164 -0.005190 0
M  V30 36 H -1.359807 -0.778059 1.941011 0
M  V30 37 H -2.513645 -3.517319 4.280436 0
M  V30 38 H -4.619368 -3.502858 5.446015 0
M  V30 39 H -6.159822 -1.637001 5.150105 0
M  V30 40 H -3.490521 0.213942 2.515336 0
M  V30 END ATOM
M  V30 BEGIN BOND
M  V30 1 1 1 2
M  V30 2 2 2 3
M  V30 3 1 3 4
M  V30 4 2 4 5
M  V30 5 1 5 6
M  V30 6 2 6 7
M  V30 7 1 7 8
M  V30 8 2 8 9
M  V30 9 1 9 10
M  V30 10 1 10 11
M  V30 11 2 10 12
M  V30 12 2 10 13
M  V30 13 1 9 14
M  V30 14 2 14 15
M  V30 15 1 5 16
M  V30 16 2 16 17
M  V30 17 1 17 18
M  V30 18 2 18 19
M  V30 19 1 18 20
M  V30 20 1 20 21
M  V30 21 2 21 22
M  V30 22 1 22 23
M  V30 23 2 23 24
M  V30 24 1 24 25
M  V30 25 2 25 26
M  V30 26 1 17 2
M  V30 27 1 26 21
M  V30 28 1 15 6
M  V30 29 1 1 27
M  V30 30 1 1 28
M  V30 31 1 4 29
M  V30 32 1 7 30
M  V30 33 1 8 31
M  V30 34 1 11 32
M  V30 35 1 11 33
M  V30 36 1 14 34
M  V30 37 1 15 35
M  V30 38 1 20 36
M  V30 39 1 22 37
M  V30 40 1 23 38
M  V30 41 1 24 39
M  V30 42 1 26 40
M  V30 END BOND
M  V30 END CTAB
M  END
>  <Dataset>  (700) 
ChEMBL_Kinases

>  <Ligand_Instance>  (700) 
nan

>  <PDB_ID>  (700) 
nan

>  <Standardized_SMILES>  (700) 
Nc1ncc(-c2ccc(S(N)(=O)=O)cc2)nc1C(=O)Nc1cccnc1

>  <Name>  (700) 
nan

>  <Pocket>  (700) 
nan

>  <ATP_Site>  (700) 
nan

>  <Peripheral>  (700) 
nan

>  <Num_H_Atoms_ProtBoundConf>  (700) 
nan

>  <Num_Resolved_Atoms>  (700) 
nan

>  <Num_Not_Resolved_Atoms>  (700) 
nan

$$$$
CHEMBL217355
     RDKit          3D

  0  0  0  0  0  0  0  0  0  0999 V3000
M  V30 BEGIN CTAB
M  V30 COUNTS 50 52 0 0 0
M  V30 BEGIN ATOM
M  V30 1 C 0.558735 -0.460684 2.834228 0
M  V30 2 C 1.970138 -0.487218 2.272856 0
M  V30 3 C 2.997249 -0.544367 3.375877 0
M  V30 4 O 2.787712 -1.709577 4.152451 0
M  V30 5 N 2.098513 0.676853 1.420727 0
M  V30 6 C 3.127911 0.881098 0.672513 0
M  V30 7 N 4.138348 -0.103086 0.724467 0
M  V30 8 C 3.046519 2.104506 -0.098370 0
M  V30 9 C 4.133858 2.327894 -0.886880 0
M  V30 10 O 5.339989 1.685789 -1.156520 0
M  V30 11 N 4.240854 3.467383 -1.723911 0
M  V30 12 S 2.630063 4.268485 -1.323268 0
M  V30 13 C 2.091752 3.093701 -0.211336 0
M  V30 14 N 0.911463 2.934769 0.589392 0
M  V30 15 C -0.005476 1.976946 0.049879 0
M  V30 16 C -1.126886 1.622797 0.794768 0
M  V30 17 C -2.004352 0.683537 0.292533 0
M  V30 18 C -1.851407 0.048460 -0.930390 0
M  V30 19 O -2.822859 -0.850611 -1.247955 0
M  V30 20 C -2.804861 -2.178267 -0.888177 0
M  V30 21 C -3.895119 -2.491754 -0.065634 0
M  V30 22 C -4.095778 -3.780918 0.429585 0
M  V30 23 C -5.220897 -4.197474 1.306439 0
M  V30 24 F -4.840029 -5.243231 2.133937 0
M  V30 25 F -5.634607 -3.162798 2.125498 0
M  V30 26 F -6.268715 -4.695946 0.537605 0
M  V30 27 C -3.218259 -4.794861 0.121444 0
M  V30 28 C -2.118434 -4.516290 -0.697822 0
M  V30 29 C -1.978394 -3.228251 -1.152352 0
M  V30 30 Cl -0.620049 -2.863861 -2.180445 0
M  V30 31 C -0.731985 0.438281 -1.619942 0
M  V30 32 C 0.177432 1.363468 -1.176372 0
M  V30 33 H 0.433866 -1.146194 3.681143 0
M  V30 34 H -0.118705 -0.784678 2.014761 0
M  V30 35 H 0.322061 0.604829 3.095629 0
M  V30 36 H 2.062395 -1.448182 1.689017 0
M  V30 37 H 4.030870 -0.561057 3.043727 0
M  V30 38 H 2.761964 0.304784 4.069477 0
M  V30 39 H 2.261549 -2.348114 3.573026 0
M  V30 40 H 5.164423 0.114802 0.891821 0
M  V30 41 H 3.974052 -1.126758 0.605922 0
M  V30 42 H 5.256495 0.741700 -1.552949 0
M  V30 43 H 0.682977 3.428119 1.468721 0
M  V30 44 H -1.249730 2.114066 1.746796 0
M  V30 45 H -2.834592 0.487027 0.963827 0
M  V30 46 H -4.691366 -1.842179 0.288974 0
M  V30 47 H -3.271216 -5.829791 0.444190 0
M  V30 48 H -1.384826 -5.253695 -0.988134 0
M  V30 49 H -0.552490 0.011876 -2.573915 0
M  V30 50 H 1.041368 1.627238 -1.767593 0
M  V30 END ATOM
M  V30 BEGIN BOND
M  V30 1 1 1 2
M  V30 2 1 2 3
M  V30 3 1 3 4
M  V30 4 1 2 5
M  V30 5 2 5 6
M  V30 6 1 6 7
M  V30 7 1 6 8
M  V30 8 1 8 9
M  V30 9 1 9 10
M  V30 10 2 9 11
M  V30 11 1 11 12
M  V30 12 1 12 13
M  V30 13 1 13 14
M  V30 14 1 14 15
M  V30 15 2 15 16
M  V30 16 1 16 17
M  V30 17 2 17 18
M  V30 18 1 18 19
M  V30 19 1 19 20
M  V30 20 2 20 21
M  V30 21 1 21 22
M  V30 22 1 22 23
M  V30 23 1 23 24
M  V30 24 1 23 25
M  V30 25 1 23 26
M  V30 26 2 22 27
M  V30 27 1 27 28
M  V30 28 2 28 29
M  V30 29 1 29 30
M  V30 30 1 18 31
M  V30 31 2 31 32
M  V30 32 2 13 8
M  V30 33 1 32 15
M  V30 34 1 29 20
M  V30 35 1 1 33
M  V30 36 1 1 34
M  V30 37 1 1 35
M  V30 38 1 2 36
M  V30 39 1 3 37
M  V30 40 1 3 38
M  V30 41 1 4 39
M  V30 42 1 7 40
M  V30 43 1 7 41
M  V30 44 1 10 42
M  V30 45 1 14 43
M  V30 46 1 16 44
M  V30 47 1 17 45
M  V30 48 1 21 46
M  V30 49 1 27 47
M  V30 50 1 28 48
M  V30 51 1 31 49
M  V30 52 1 32 50
M  V30 END BOND
M  V30 END CTAB
M  END
>  <Dataset>  (701) 
ChEMBL_Kinases

>  <Ligand_Instance>  (701) 
nan

>  <PDB_ID>  (701) 
nan

>  <Standardized_SMILES>  (701) 
CC(CO)/N=C(\N)c1c(O)nsc1Nc1ccc(Oc2cc(C(F)(F)F)ccc2Cl)cc1

>  <Name>  (701) 
nan

>  <Pocket>  (701) 
nan

>  <ATP_Site>  (701) 
nan

>  <Peripheral>  (701) 
nan

>  <Num_H_Atoms_ProtBoundConf>  (701) 
nan

>  <Num_Resolved_Atoms>  (701) 
nan

>  <Num_Not_Resolved_Atoms>  (701) 
nan

$$$$
CHEMBL2178140
     RDKit          3D

  0  0  0  0  0  0  0  0  0  0999 V3000
M  V30 BEGIN CTAB
M  V30 COUNTS 54 55 0 0 0
M  V30 BEGIN ATOM
M  V30 1 C 5.286445 -1.078521 3.461566 0
M  V30 2 C 5.212317 -2.183411 4.490959 0
M  V30 3 N 4.560595 -3.374345 3.926681 0
M  V30 4 C 3.223317 -3.275312 3.458417 0
M  V30 5 N 2.541252 -2.123318 3.506926 0
M  V30 6 C 1.287855 -1.935390 3.080764 0
M  V30 7 N 0.686438 -0.626988 3.191172 0
M  V30 8 C -0.033098 -0.020966 2.093762 0
M  V30 9 C -0.095651 -0.731144 0.905898 0
M  V30 10 C -0.739978 -0.283174 -0.242737 0
M  V30 11 F -0.775594 -0.995163 -1.375581 0
M  V30 12 C -1.365655 0.969075 -0.193609 0
M  V30 13 C -2.118032 1.564145 -1.292585 0
M  V30 14 O -2.381250 2.814994 -1.267449 0
M  V30 15 N -2.607034 0.879590 -2.423670 0
M  V30 16 C -3.350931 1.431612 -3.536697 0
M  V30 17 C -3.716762 0.343961 -4.537208 0
M  V30 18 C -4.582623 -0.731400 -3.865949 0
M  V30 19 C -4.533009 0.914494 -5.669124 0
M  V30 20 O -2.614488 -0.300093 -5.072953 0
M  V30 21 C -1.298357 1.668330 0.989360 0
M  V30 22 C -0.659885 1.229424 2.137376 0
M  V30 23 O -0.536305 1.843624 3.358720 0
M  V30 24 C -1.112797 3.110081 3.573348 0
M  V30 25 N 0.689921 -3.021681 2.565030 0
M  V30 26 C 1.285487 -4.216056 2.472451 0
M  V30 27 C 2.576872 -4.382142 2.917786 0
M  V30 28 C 3.249161 -5.702351 2.822711 0
M  V30 29 F 4.412077 -5.632186 2.072664 0
M  V30 30 F 3.419037 -6.322688 4.034698 0
M  V30 31 F 2.402341 -6.531611 2.063634 0
M  V30 32 H 4.540326 -1.227470 2.648638 0
M  V30 33 H 6.271492 -1.070792 2.985205 0
M  V30 34 H 5.141498 -0.100398 3.972136 0
M  V30 35 H 6.209698 -2.415530 4.899921 0
M  V30 36 H 4.505178 -1.830344 5.291984 0
M  V30 37 H 5.062906 -4.272497 3.864138 0
M  V30 38 H 0.794148 -0.141238 4.106753 0
M  V30 39 H 0.344243 -1.699999 0.721375 0
M  V30 40 H -2.434233 -0.143168 -2.490562 0
M  V30 41 H -4.305623 1.866838 -3.168087 0
M  V30 42 H -2.840118 2.226867 -4.083506 0
M  V30 43 H -5.532314 -0.273065 -3.587959 0
M  V30 44 H -4.020987 -1.228824 -3.074926 0
M  V30 45 H -4.831854 -1.494036 -4.635240 0
M  V30 46 H -5.206526 0.080559 -6.035371 0
M  V30 47 H -5.208078 1.687625 -5.266589 0
M  V30 48 H -3.898204 1.265259 -6.519407 0
M  V30 49 H -2.357177 -0.024918 -5.974826 0
M  V30 50 H -1.775295 2.650539 1.062732 0
M  V30 51 H -1.367932 3.242246 4.665798 0
M  V30 52 H -0.299123 3.857187 3.382157 0
M  V30 53 H -2.000991 3.295643 2.943581 0
M  V30 54 H 0.788260 -5.075324 2.054396 0
M  V30 END ATOM
M  V30 BEGIN BOND
M  V30 1 1 1 2
M  V30 2 1 2 3
M  V30 3 1 3 4
M  V30 4 2 4 5
M  V30 5 1 5 6
M  V30 6 1 6 7
M  V30 7 1 7 8
M  V30 8 2 8 9
M  V30 9 1 9 10
M  V30 10 1 10 11
M  V30 11 2 10 12
M  V30 12 1 12 13
M  V30 13 2 13 14
M  V30 14 1 13 15
M  V30 15 1 15 16
M  V30 16 1 16 17
M  V30 17 1 17 18
M  V30 18 1 17 19
M  V30 19 1 17 20
M  V30 20 1 12 21
M  V30 21 2 21 22
M  V30 22 1 22 23
M  V30 23 1 23 24
M  V30 24 2 6 25
M  V30 25 1 25 26
M  V30 26 2 26 27
M  V30 27 1 27 28
M  V30 28 1 28 29
M  V30 29 1 28 30
M  V30 30 1 28 31
M  V30 31 1 27 4
M  V30 32 1 22 8
M  V30 33 1 1 32
M  V30 34 1 1 33
M  V30 35 1 1 34
M  V30 36 1 2 35
M  V30 37 1 2 36
M  V30 38 1 3 37
M  V30 39 1 7 38
M  V30 40 1 9 39
M  V30 41 1 15 40
M  V30 42 1 16 41
M  V30 43 1 16 42
M  V30 44 1 18 43
M  V30 45 1 18 44
M  V30 46 1 18 45
M  V30 47 1 19 46
M  V30 48 1 19 47
M  V30 49 1 19 48
M  V30 50 1 20 49
M  V30 51 1 21 50
M  V30 52 1 24 51
M  V30 53 1 24 52
M  V30 54 1 24 53
M  V30 55 1 26 54
M  V30 END BOND
M  V30 END CTAB
M  END
>  <Dataset>  (702) 
ChEMBL_Kinases

>  <Ligand_Instance>  (702) 
nan

>  <PDB_ID>  (702) 
nan

>  <Standardized_SMILES>  (702) 
CCNc1nc(Nc2cc(F)c(C(=O)NCC(C)(C)O)cc2OC)ncc1C(F)(F)F

>  <Name>  (702) 
nan

>  <Pocket>  (702) 
nan

>  <ATP_Site>  (702) 
nan

>  <Peripheral>  (702) 
nan

>  <Num_H_Atoms_ProtBoundConf>  (702) 
nan

>  <Num_Resolved_Atoms>  (702) 
nan

>  <Num_Not_Resolved_Atoms>  (702) 
nan

$$$$
CHEMBL2178139
     RDKit          3D

  0  0  0  0  0  0  0  0  0  0999 V3000
M  V30 BEGIN CTAB
M  V30 COUNTS 47 49 0 0 0
M  V30 BEGIN ATOM
M  V30 1 C 0.618580 -4.116303 2.117734 0
M  V30 2 N -0.352345 -4.956353 1.408799 0
M  V30 3 C -1.214059 -4.399068 0.427458 0
M  V30 4 N -1.120196 -3.091978 0.173965 0
M  V30 5 C -1.837970 -2.394608 -0.701376 0
M  V30 6 N -1.720749 -1.001306 -0.946800 0
M  V30 7 C -0.858280 -0.065133 -0.326152 0
M  V30 8 C 0.047199 -0.373002 0.664982 0
M  V30 9 N 0.873474 0.495468 1.272242 0
M  V30 10 C 0.876677 1.797992 0.938932 0
M  V30 11 C 1.794442 2.753480 1.614689 0
M  V30 12 C 3.240413 2.338829 1.466897 0
M  V30 13 C 3.647317 1.682923 2.770852 0
M  V30 14 O 3.710768 2.604896 3.806422 0
M  V30 15 C 2.562113 3.366631 3.904636 0
M  V30 16 C 1.439653 2.746599 3.083918 0
M  V30 17 C -0.008512 2.171647 -0.048860 0
M  V30 18 C -0.848802 1.270321 -0.661950 0
M  V30 19 O -1.701113 1.771556 -1.650470 0
M  V30 20 C -1.718729 3.127456 -2.017326 0
M  V30 21 N -2.740361 -3.107899 -1.383741 0
M  V30 22 C -2.911060 -4.415286 -1.204153 0
M  V30 23 C -2.152410 -5.105465 -0.291107 0
M  V30 24 C -2.258137 -6.565473 -0.009184 0
M  V30 25 F -2.583993 -6.844777 1.292508 0
M  V30 26 F -3.273735 -7.046837 -0.811708 0
M  V30 27 F -1.098999 -7.200849 -0.408502 0
M  V30 28 H 1.259767 -4.724004 2.782843 0
M  V30 29 H 1.269221 -3.543997 1.434746 0
M  V30 30 H 0.047152 -3.413897 2.785980 0
M  V30 31 H -0.369197 -5.968048 1.673808 0
M  V30 32 H -2.343370 -0.587974 -1.678956 0
M  V30 33 H 0.160112 -1.371284 1.037207 0
M  V30 34 H 1.594712 3.752999 1.215080 0
M  V30 35 H 3.866744 3.244247 1.332358 0
M  V30 36 H 3.369017 1.622261 0.643489 0
M  V30 37 H 3.009845 0.815464 3.018528 0
M  V30 38 H 4.688376 1.282082 2.613718 0
M  V30 39 H 2.208131 3.448360 4.965639 0
M  V30 40 H 2.670830 4.409379 3.554392 0
M  V30 41 H 0.491508 3.298238 3.251402 0
M  V30 42 H 1.216946 1.701372 3.410936 0
M  V30 43 H -0.029907 3.210816 -0.339281 0
M  V30 44 H -0.694164 3.460372 -2.280760 0
M  V30 45 H -2.434716 3.257679 -2.854064 0
M  V30 46 H -2.156782 3.698459 -1.165602 0
M  V30 47 H -3.645323 -4.980255 -1.762573 0
M  V30 END ATOM
M  V30 BEGIN BOND
M  V30 1 1 1 2
M  V30 2 1 2 3
M  V30 3 2 3 4
M  V30 4 1 4 5
M  V30 5 1 5 6
M  V30 6 1 6 7
M  V30 7 2 7 8
M  V30 8 1 8 9
M  V30 9 2 9 10
M  V30 10 1 10 11
M  V30 11 1 11 12
M  V30 12 1 12 13
M  V30 13 1 13 14
M  V30 14 1 14 15
M  V30 15 1 15 16
M  V30 16 1 10 17
M  V30 17 2 17 18
M  V30 18 1 18 19
M  V30 19 1 19 20
M  V30 20 2 5 21
M  V30 21 1 21 22
M  V30 22 2 22 23
M  V30 23 1 23 24
M  V30 24 1 24 25
M  V30 25 1 24 26
M  V30 26 1 24 27
M  V30 27 1 23 3
M  V30 28 1 18 7
M  V30 29 1 16 11
M  V30 30 1 1 28
M  V30 31 1 1 29
M  V30 32 1 1 30
M  V30 33 1 2 31
M  V30 34 1 6 32
M  V30 35 1 8 33
M  V30 36 1 11 34
M  V30 37 1 12 35
M  V30 38 1 12 36
M  V30 39 1 13 37
M  V30 40 1 13 38
M  V30 41 1 15 39
M  V30 42 1 15 40
M  V30 43 1 16 41
M  V30 44 1 16 42
M  V30 45 1 17 43
M  V30 46 1 20 44
M  V30 47 1 20 45
M  V30 48 1 20 46
M  V30 49 1 22 47
M  V30 END BOND
M  V30 END CTAB
M  END
>  <Dataset>  (703) 
ChEMBL_Kinases

>  <Ligand_Instance>  (703) 
nan

>  <PDB_ID>  (703) 
nan

>  <Standardized_SMILES>  (703) 
CNc1nc(Nc2cnc(C3CCOCC3)cc2OC)ncc1C(F)(F)F

>  <Name>  (703) 
nan

>  <Pocket>  (703) 
nan

>  <ATP_Site>  (703) 
nan

>  <Peripheral>  (703) 
nan

>  <Num_H_Atoms_ProtBoundConf>  (703) 
nan

>  <Num_Resolved_Atoms>  (703) 
nan

>  <Num_Not_Resolved_Atoms>  (703) 
nan

$$$$
CHEMBL2178138
     RDKit          3D

  0  0  0  0  0  0  0  0  0  0999 V3000
M  V30 BEGIN CTAB
M  V30 COUNTS 51 53 0 0 0
M  V30 BEGIN ATOM
M  V30 1 C -0.957391 -5.887298 -2.601992 0
M  V30 2 C 0.483308 -6.326373 -2.525963 0
M  V30 3 N 0.896593 -6.261713 -1.136535 0
M  V30 4 C 0.919849 -5.061165 -0.385945 0
M  V30 5 N 0.561105 -3.905432 -0.934553 0
M  V30 6 C 0.570932 -2.738384 -0.267234 0
M  V30 7 N 0.179736 -1.534400 -0.861143 0
M  V30 8 C 0.151567 -0.213527 -0.363527 0
M  V30 9 C 0.599168 0.121323 0.905022 0
M  V30 10 N 0.607814 1.367436 1.439467 0
M  V30 11 C 0.143060 2.420459 0.698892 0
M  V30 12 C 0.174164 3.737236 1.316786 0
M  V30 13 O 0.716550 4.773718 0.847251 0
M  V30 14 N -0.452594 3.934956 2.577428 0
M  V30 15 C -0.460676 5.213961 3.261576 0
M  V30 16 C 0.141475 5.077431 4.649941 0
M  V30 17 O 0.467836 3.775354 4.961603 0
M  V30 18 C -0.550938 2.862790 4.761158 0
M  V30 19 C -1.162313 2.948330 3.368955 0
M  V30 20 C -0.308614 2.122922 -0.563434 0
M  V30 21 C -0.323429 0.864805 -1.118490 0
M  V30 22 O -0.775082 0.574731 -2.374233 0
M  V30 23 C -1.270183 1.609348 -3.197644 0
M  V30 24 N 0.975294 -2.844358 1.003828 0
M  V30 25 C 1.350951 -3.930896 1.647614 0
M  V30 26 C 1.325111 -5.098404 0.926378 0
M  V30 27 C 1.741613 -6.363076 1.617068 0
M  V30 28 F 2.096333 -6.099075 2.938651 0
M  V30 29 F 0.674036 -7.240530 1.662205 0
M  V30 30 F 2.781587 -6.971531 0.939522 0
M  V30 31 H -1.439779 -6.254494 -3.528475 0
M  V30 32 H -0.988197 -4.792500 -2.500430 0
M  V30 33 H -1.449659 -6.321914 -1.685181 0
M  V30 34 H 1.063888 -5.523214 -3.068226 0
M  V30 35 H 0.675404 -7.315600 -2.971013 0
M  V30 36 H 1.185219 -7.168377 -0.695982 0
M  V30 37 H -0.157655 -1.627629 -1.867513 0
M  V30 38 H 0.991639 -0.610502 1.588823 0
M  V30 39 H 0.004497 6.034728 2.683910 0
M  V30 40 H -1.534439 5.464693 3.419604 0
M  V30 41 H -0.503766 5.548954 5.420341 0
M  V30 42 H 1.100676 5.658109 4.642948 0
M  V30 43 H -1.313746 2.882898 5.567234 0
M  V30 44 H -0.065445 1.842027 4.791908 0
M  V30 45 H -2.180041 3.343984 3.505712 0
M  V30 46 H -1.251293 1.972992 2.876123 0
M  V30 47 H -0.663193 2.959402 -1.117451 0
M  V30 48 H -1.886451 2.316367 -2.594755 0
M  V30 49 H -1.887387 1.202022 -4.037959 0
M  V30 50 H -0.412640 2.218347 -3.597365 0
M  V30 51 H 1.663210 -3.885641 2.699759 0
M  V30 END ATOM
M  V30 BEGIN BOND
M  V30 1 1 1 2
M  V30 2 1 2 3
M  V30 3 1 3 4
M  V30 4 2 4 5
M  V30 5 1 5 6
M  V30 6 1 6 7
M  V30 7 1 7 8
M  V30 8 2 8 9
M  V30 9 1 9 10
M  V30 10 2 10 11
M  V30 11 1 11 12
M  V30 12 2 12 13
M  V30 13 1 12 14
M  V30 14 1 14 15
M  V30 15 1 15 16
M  V30 16 1 16 17
M  V30 17 1 17 18
M  V30 18 1 18 19
M  V30 19 1 11 20
M  V30 20 2 20 21
M  V30 21 1 21 22
M  V30 22 1 22 23
M  V30 23 2 6 24
M  V30 24 1 24 25
M  V30 25 2 25 26
M  V30 26 1 26 27
M  V30 27 1 27 28
M  V30 28 1 27 29
M  V30 29 1 27 30
M  V30 30 1 26 4
M  V30 31 1 21 8
M  V30 32 1 19 14
M  V30 33 1 1 31
M  V30 34 1 1 32
M  V30 35 1 1 33
M  V30 36 1 2 34
M  V30 37 1 2 35
M  V30 38 1 3 36
M  V30 39 1 7 37
M  V30 40 1 9 38
M  V30 41 1 15 39
M  V30 42 1 15 40
M  V30 43 1 16 41
M  V30 44 1 16 42
M  V30 45 1 18 43
M  V30 46 1 18 44
M  V30 47 1 19 45
M  V30 48 1 19 46
M  V30 49 1 20 47
M  V30 50 1 23 48
M  V30 51 1 23 49
M  V30 52 1 23 50
M  V30 53 1 25 51
M  V30 END BOND
M  V30 END CTAB
M  END
>  <Dataset>  (704) 
ChEMBL_Kinases

>  <Ligand_Instance>  (704) 
nan

>  <PDB_ID>  (704) 
nan

>  <Standardized_SMILES>  (704) 
CCNc1nc(Nc2cnc(C(=O)N3CCOCC3)cc2OC)ncc1C(F)(F)F

>  <Name>  (704) 
nan

>  <Pocket>  (704) 
nan

>  <ATP_Site>  (704) 
nan

>  <Peripheral>  (704) 
nan

>  <Num_H_Atoms_ProtBoundConf>  (704) 
nan

>  <Num_Resolved_Atoms>  (704) 
nan

>  <Num_Not_Resolved_Atoms>  (704) 
nan

$$$$
CHEMBL2178137
     RDKit          3D

  0  0  0  0  0  0  0  0  0  0999 V3000
M  V30 BEGIN CTAB
M  V30 COUNTS 40 41 0 0 0
M  V30 BEGIN ATOM
M  V30 1 C 1.281037 -5.579884 0.856732 0
M  V30 2 N -0.018779 -5.361410 0.254403 0
M  V30 3 C -0.722336 -4.126559 0.289526 0
M  V30 4 N -0.145531 -3.068816 0.931392 0
M  V30 5 C -0.765173 -1.877089 0.997923 0
M  V30 6 N -0.306868 -0.684735 1.619510 0
M  V30 7 C 0.406071 0.480958 1.224928 0
M  V30 8 C 0.791051 0.629493 -0.089554 0
M  V30 9 C 1.474227 1.759447 -0.491741 0
M  V30 10 F 1.881487 1.963382 -1.780326 0
M  V30 11 C 1.772426 2.744511 0.428234 0
M  V30 12 S 2.628368 4.209621 -0.011204 0
M  V30 13 C 1.652455 5.078836 -1.224691 0
M  V30 14 O 3.987589 3.884542 -0.531604 0
M  V30 15 O 2.759787 5.085799 1.185572 0
M  V30 16 C 1.357486 2.533514 1.732480 0
M  V30 17 C 0.673812 1.427951 2.190886 0
M  V30 18 O 0.268992 1.237032 3.496711 0
M  V30 19 C 0.464848 2.095930 4.572170 0
M  V30 20 N -1.990055 -1.669571 0.431607 0
M  V30 21 C -2.612132 -2.694162 -0.222940 0
M  V30 22 C -1.961480 -3.904870 -0.279295 0
M  V30 23 C -2.600678 -5.068563 -0.981064 0
M  V30 24 F -3.812936 -4.677015 -1.492561 0
M  V30 25 F -2.779861 -6.068192 -0.014393 0
M  V30 26 F -1.830217 -5.583020 -1.980517 0
M  V30 27 H 1.898877 -6.134838 0.119677 0
M  V30 28 H 1.209286 -6.105157 1.830076 0
M  V30 29 H 1.818836 -4.622754 1.059328 0
M  V30 30 H -0.459143 -6.150548 -0.228878 0
M  V30 31 H -0.644253 -0.837807 2.593153 0
M  V30 32 H 0.569881 -0.125707 -0.823307 0
M  V30 33 H 1.916515 6.151092 -1.245190 0
M  V30 34 H 0.588463 4.939909 -0.926416 0
M  V30 35 H 1.785592 4.571421 -2.201251 0
M  V30 36 H 1.602650 3.316167 2.425444 0
M  V30 37 H 0.798144 1.486116 5.463338 0
M  V30 38 H -0.455063 2.683170 4.845762 0
M  V30 39 H 1.302098 2.774188 4.363435 0
M  V30 40 H -3.581994 -2.560827 -0.681528 0
M  V30 END ATOM
M  V30 BEGIN BOND
M  V30 1 1 1 2
M  V30 2 1 2 3
M  V30 3 2 3 4
M  V30 4 1 4 5
M  V30 5 1 5 6
M  V30 6 1 6 7
M  V30 7 2 7 8
M  V30 8 1 8 9
M  V30 9 1 9 10
M  V30 10 2 9 11
M  V30 11 1 11 12
M  V30 12 1 12 13
M  V30 13 2 12 14
M  V30 14 2 12 15
M  V30 15 1 11 16
M  V30 16 2 16 17
M  V30 17 1 17 18
M  V30 18 1 18 19
M  V30 19 2 5 20
M  V30 20 1 20 21
M  V30 21 2 21 22
M  V30 22 1 22 23
M  V30 23 1 23 24
M  V30 24 1 23 25
M  V30 25 1 23 26
M  V30 26 1 22 3
M  V30 27 1 17 7
M  V30 28 1 1 27
M  V30 29 1 1 28
M  V30 30 1 1 29
M  V30 31 1 2 30
M  V30 32 1 6 31
M  V30 33 1 8 32
M  V30 34 1 13 33
M  V30 35 1 13 34
M  V30 36 1 13 35
M  V30 37 1 16 36
M  V30 38 1 19 37
M  V30 39 1 19 38
M  V30 40 1 19 39
M  V30 41 1 21 40
M  V30 END BOND
M  V30 END CTAB
M  END
>  <Dataset>  (705) 
ChEMBL_Kinases

>  <Ligand_Instance>  (705) 
nan

>  <PDB_ID>  (705) 
nan

>  <Standardized_SMILES>  (705) 
CNc1nc(Nc2cc(F)c(S(C)(=O)=O)cc2OC)ncc1C(F)(F)F

>  <Name>  (705) 
nan

>  <Pocket>  (705) 
nan

>  <ATP_Site>  (705) 
nan

>  <Peripheral>  (705) 
nan

>  <Num_H_Atoms_ProtBoundConf>  (705) 
nan

>  <Num_Resolved_Atoms>  (705) 
nan

>  <Num_Not_Resolved_Atoms>  (705) 
nan

$$$$
CHEMBL2178136
     RDKit          3D

  0  0  0  0  0  0  0  0  0  0999 V3000
M  V30 BEGIN CTAB
M  V30 COUNTS 38 40 0 0 0
M  V30 BEGIN ATOM
M  V30 1 C 0.221967 -3.424287 3.654101 0
M  V30 2 N -1.184617 -3.412505 3.287197 0
M  V30 3 C -1.587349 -3.040570 1.952618 0
M  V30 4 N -0.629210 -2.705766 1.063498 0
M  V30 5 C -0.982858 -2.352967 -0.188277 0
M  V30 6 N 0.150335 -2.027973 -1.001851 0
M  V30 7 C 0.668486 -0.689961 -0.951192 0
M  V30 8 C 0.062493 0.245717 -0.098458 0
M  V30 9 C 0.505626 1.569229 0.021746 0
M  V30 10 C 1.611565 1.948786 -0.761244 0
M  V30 11 C 2.015133 3.339028 -0.581862 0
M  V30 12 N 1.173982 4.362732 -0.922617 0
M  V30 13 N 1.747270 5.507529 -0.675531 0
M  V30 14 N 2.934146 5.239077 -0.185371 0
M  V30 15 N 3.122126 3.928968 -0.117866 0
M  V30 16 C 4.235683 3.128585 0.337510 0
M  V30 17 C 2.226256 1.053792 -1.605809 0
M  V30 18 C 1.741728 -0.230328 -1.676903 0
M  V30 19 Cl 2.527368 -1.375026 -2.758229 0
M  V30 20 N -2.302601 -2.338821 -0.541248 0
M  V30 21 C -3.229672 -2.676295 0.363773 0
M  V30 22 C -2.933904 -3.046084 1.659104 0
M  V30 23 C -3.972664 -3.418847 2.654721 0
M  V30 24 F -3.791674 -4.725171 3.119687 0
M  V30 25 F -3.914713 -2.548339 3.748068 0
M  V30 26 F -5.210335 -3.363275 2.046562 0
M  V30 27 H 0.844416 -3.274767 2.734722 0
M  V30 28 H 0.510664 -4.371487 4.143131 0
M  V30 29 H 0.482235 -2.607835 4.342017 0
M  V30 30 H -1.876241 -3.677767 4.011318 0
M  V30 31 H 0.664755 -2.666368 -1.650996 0
M  V30 32 H -0.794851 -0.049952 0.507355 0
M  V30 33 H -0.020906 2.223529 0.703686 0
M  V30 34 H 3.910403 2.228948 0.900304 0
M  V30 35 H 4.746410 3.750770 1.109252 0
M  V30 36 H 4.999189 2.929408 -0.420706 0
M  V30 37 H 3.059365 1.396609 -2.174602 0
M  V30 38 H -4.255288 -2.649453 0.034571 0
M  V30 END ATOM
M  V30 BEGIN BOND
M  V30 1 1 1 2
M  V30 2 1 2 3
M  V30 3 2 3 4
M  V30 4 1 4 5
M  V30 5 1 5 6
M  V30 6 1 6 7
M  V30 7 2 7 8
M  V30 8 1 8 9
M  V30 9 2 9 10
M  V30 10 1 10 11
M  V30 11 2 11 12
M  V30 12 1 12 13
M  V30 13 2 13 14
M  V30 14 1 14 15
M  V30 15 1 15 16
M  V30 16 1 10 17
M  V30 17 2 17 18
M  V30 18 1 18 19
M  V30 19 2 5 20
M  V30 20 1 20 21
M  V30 21 2 21 22
M  V30 22 1 22 23
M  V30 23 1 23 24
M  V30 24 1 23 25
M  V30 25 1 23 26
M  V30 26 1 22 3
M  V30 27 1 18 7
M  V30 28 1 15 11
M  V30 29 1 1 27
M  V30 30 1 1 28
M  V30 31 1 1 29
M  V30 32 1 2 30
M  V30 33 1 6 31
M  V30 34 1 8 32
M  V30 35 1 9 33
M  V30 36 1 16 34
M  V30 37 1 16 35
M  V30 38 1 16 36
M  V30 39 1 17 37
M  V30 40 1 21 38
M  V30 END BOND
M  V30 END CTAB
M  END
>  <Dataset>  (706) 
ChEMBL_Kinases

>  <Ligand_Instance>  (706) 
nan

>  <PDB_ID>  (706) 
nan

>  <Standardized_SMILES>  (706) 
CNc1nc(Nc2ccc(-c3nnnn3C)cc2Cl)ncc1C(F)(F)F

>  <Name>  (706) 
nan

>  <Pocket>  (706) 
nan

>  <ATP_Site>  (706) 
nan

>  <Peripheral>  (706) 
nan

>  <Num_H_Atoms_ProtBoundConf>  (706) 
nan

>  <Num_Resolved_Atoms>  (706) 
nan

>  <Num_Not_Resolved_Atoms>  (706) 
nan

$$$$
CHEMBL2178135
     RDKit          3D

  0  0  0  0  0  0  0  0  0  0999 V3000
M  V30 BEGIN CTAB
M  V30 COUNTS 53 56 0 0 0
M  V30 BEGIN ATOM
M  V30 1 C 3.221337 -2.837897 3.714365 0
M  V30 2 O 1.912192 -2.592119 3.269731 0
M  V30 3 C 1.486606 -1.401757 2.738470 0
M  V30 4 C 2.370271 -0.352821 2.618481 0
M  V30 5 C 1.976145 0.859010 2.089287 0
M  V30 6 C 2.808494 2.049398 1.902531 0
M  V30 7 O 2.756647 2.782609 2.924800 0
M  V30 8 N 3.491062 2.134665 0.633810 0
M  V30 9 C 3.529085 1.252853 -0.542362 0
M  V30 10 C 4.963866 0.739935 -0.602608 0
M  V30 11 O 5.886816 1.702705 -0.258020 0
M  V30 12 C 5.427083 2.993516 -0.450977 0
M  V30 13 C 4.294215 3.338711 0.513271 0
M  V30 14 C 0.660521 1.063760 1.655274 0
M  V30 15 F 0.201418 2.224175 1.125465 0
M  V30 16 C -0.195537 -0.034255 1.799841 0
M  V30 17 C 0.171002 -1.256671 2.324791 0
M  V30 18 N -0.762692 -2.293156 2.415553 0
M  V30 19 C -2.134287 -2.260107 2.038276 0
M  V30 20 N -3.153712 -1.991482 2.848731 0
M  V30 21 C -4.444065 -1.957001 2.490037 0
M  V30 22 C -4.712760 -2.225698 1.163106 0
M  V30 23 C -6.144822 -2.230765 0.783431 0
M  V30 24 F -6.599027 -3.489514 0.392956 0
M  V30 25 F -6.932123 -1.857300 1.830424 0
M  V30 26 F -6.399487 -1.335247 -0.244145 0
M  V30 27 C -3.708529 -2.510698 0.263566 0
M  V30 28 N -3.909644 -2.748340 -1.111226 0
M  V30 29 C -4.824815 -2.845629 -2.178841 0
M  V30 30 C -4.347910 -3.042430 -3.631543 0
M  V30 31 C -5.009415 -1.781033 -3.193733 0
M  V30 32 N -2.466163 -2.509359 0.770607 0
M  V30 33 H 3.380842 -3.873489 4.034931 0
M  V30 34 H 3.906839 -2.694328 2.830205 0
M  V30 35 H 3.587197 -2.178694 4.501526 0
M  V30 36 H 3.387231 -0.404519 2.917021 0
M  V30 37 H 2.803613 0.443816 -0.469539 0
M  V30 38 H 3.303871 1.849408 -1.447768 0
M  V30 39 H 5.041806 -0.059533 0.176279 0
M  V30 40 H 5.187804 0.276823 -1.590940 0
M  V30 41 H 6.252629 3.687889 -0.209085 0
M  V30 42 H 5.128821 3.115793 -1.510499 0
M  V30 43 H 4.655640 3.738136 1.463227 0
M  V30 44 H 3.642548 4.117679 0.026493 0
M  V30 45 H -1.226283 0.073997 1.478700 0
M  V30 46 H -0.455435 -3.213506 2.800599 0
M  V30 47 H -5.223402 -1.728197 3.218634 0
M  V30 48 H -3.000704 -2.951608 -1.596541 0
M  V30 49 H -5.754773 -3.473475 -2.016783 0
M  V30 50 H -4.830938 -3.780465 -4.266181 0
M  V30 51 H -3.227838 -3.078533 -3.666086 0
M  V30 52 H -6.010188 -1.595495 -3.617708 0
M  V30 53 H -4.374990 -0.873741 -3.082232 0
M  V30 END ATOM
M  V30 BEGIN BOND
M  V30 1 1 1 2
M  V30 2 1 2 3
M  V30 3 2 3 4
M  V30 4 1 4 5
M  V30 5 1 5 6
M  V30 6 2 6 7
M  V30 7 1 6 8
M  V30 8 1 8 9
M  V30 9 1 9 10
M  V30 10 1 10 11
M  V30 11 1 11 12
M  V30 12 1 12 13
M  V30 13 2 5 14
M  V30 14 1 14 15
M  V30 15 1 14 16
M  V30 16 2 16 17
M  V30 17 1 17 18
M  V30 18 1 18 19
M  V30 19 2 19 20
M  V30 20 1 20 21
M  V30 21 2 21 22
M  V30 22 1 22 23
M  V30 23 1 23 24
M  V30 24 1 23 25
M  V30 25 1 23 26
M  V30 26 1 22 27
M  V30 27 1 27 28
M  V30 28 1 28 29
M  V30 29 1 29 30
M  V30 30 1 30 31
M  V30 31 2 27 32
M  V30 32 1 17 3
M  V30 33 1 32 19
M  V30 34 1 13 8
M  V30 35 1 31 29
M  V30 36 1 1 33
M  V30 37 1 1 34
M  V30 38 1 1 35
M  V30 39 1 4 36
M  V30 40 1 9 37
M  V30 41 1 9 38
M  V30 42 1 10 39
M  V30 43 1 10 40
M  V30 44 1 12 41
M  V30 45 1 12 42
M  V30 46 1 13 43
M  V30 47 1 13 44
M  V30 48 1 16 45
M  V30 49 1 18 46
M  V30 50 1 21 47
M  V30 51 1 28 48
M  V30 52 1 29 49
M  V30 53 1 30 50
M  V30 54 1 30 51
M  V30 55 1 31 52
M  V30 56 1 31 53
M  V30 END BOND
M  V30 END CTAB
M  END
>  <Dataset>  (707) 
ChEMBL_Kinases

>  <Ligand_Instance>  (707) 
nan

>  <PDB_ID>  (707) 
nan

>  <Standardized_SMILES>  (707) 
COc1cc(C(=O)N2CCOCC2)c(F)cc1Nc1ncc(C(F)(F)F)c(NC2CC2)n1

>  <Name>  (707) 
nan

>  <Pocket>  (707) 
nan

>  <ATP_Site>  (707) 
nan

>  <Peripheral>  (707) 
nan

>  <Num_H_Atoms_ProtBoundConf>  (707) 
nan

>  <Num_Resolved_Atoms>  (707) 
nan

>  <Num_Not_Resolved_Atoms>  (707) 
nan

$$$$
CHEMBL2178134
     RDKit          3D

  0  0  0  0  0  0  0  0  0  0999 V3000
M  V30 BEGIN CTAB
M  V30 COUNTS 52 54 0 0 0
M  V30 BEGIN ATOM
M  V30 1 C 2.645031 -5.976034 0.402346 0
M  V30 2 C 3.561214 -5.948931 1.627143 0
M  V30 3 N 2.741465 -5.738709 2.815700 0
M  V30 4 C 1.947730 -4.566050 2.943393 0
M  V30 5 N 1.925937 -3.632145 1.995685 0
M  V30 6 C 1.206604 -2.498449 2.037099 0
M  V30 7 N 1.288041 -1.605740 0.954679 0
M  V30 8 C 0.640489 -0.358857 0.757018 0
M  V30 9 C -0.230206 0.211450 1.660233 0
M  V30 10 C -0.879544 1.418065 1.508452 0
M  V30 11 F -1.723399 1.939328 2.416920 0
M  V30 12 C -0.649572 2.135861 0.352469 0
M  V30 13 C -1.289529 3.422297 0.100728 0
M  V30 14 O -0.468760 4.258363 0.598139 0
M  V30 15 N -2.544123 3.465905 -0.566740 0
M  V30 16 C -3.209749 2.255908 -1.007696 0
M  V30 17 C -3.579600 2.450117 -2.463091 0
M  V30 18 O -3.152874 3.672790 -2.954190 0
M  V30 19 C -3.701974 4.742166 -2.234076 0
M  V30 20 C -3.178576 4.745954 -0.815281 0
M  V30 21 C 0.214588 1.606171 -0.582363 0
M  V30 22 C 0.849004 0.398015 -0.403145 0
M  V30 23 O 1.706598 -0.090752 -1.369899 0
M  V30 24 C 1.926258 0.661978 -2.544707 0
M  V30 25 N 0.456852 -2.309619 3.127503 0
M  V30 26 C 0.422907 -3.199824 4.124870 0
M  V30 27 C 1.167546 -4.348516 4.055846 0
M  V30 28 C 1.114649 -5.323086 5.175137 0
M  V30 29 F 0.264866 -4.890779 6.180259 0
M  V30 30 F 2.386856 -5.526063 5.678712 0
M  V30 31 F 0.704539 -6.563883 4.686959 0
M  V30 32 H 3.120053 -6.549972 -0.443020 0
M  V30 33 H 1.717362 -6.535391 0.639901 0
M  V30 34 H 2.459639 -4.955885 0.014991 0
M  V30 35 H 4.270970 -5.105988 1.483808 0
M  V30 36 H 4.044752 -6.921238 1.694025 0
M  V30 37 H 2.729663 -6.442406 3.579005 0
M  V30 38 H 1.924267 -1.879507 0.144989 0
M  V30 39 H -0.470233 -0.268403 2.582576 0
M  V30 40 H -2.556306 1.368195 -0.937812 0
M  V30 41 H -4.112117 2.023415 -0.373071 0
M  V30 42 H -3.120311 1.673952 -3.118023 0
M  V30 43 H -4.686189 2.313350 -2.612358 0
M  V30 44 H -3.383864 5.656407 -2.772720 0
M  V30 45 H -4.816956 4.657845 -2.284374 0
M  V30 46 H -4.077068 4.796781 -0.143707 0
M  V30 47 H -2.488137 5.593679 -0.629363 0
M  V30 48 H 0.415051 2.149932 -1.503369 0
M  V30 49 H 1.023703 0.783732 -3.169954 0
M  V30 50 H 2.247620 1.714465 -2.298289 0
M  V30 51 H 2.764183 0.232316 -3.130867 0
M  V30 52 H -0.205010 -3.008753 5.003218 0
M  V30 END ATOM
M  V30 BEGIN BOND
M  V30 1 1 1 2
M  V30 2 1 2 3
M  V30 3 1 3 4
M  V30 4 2 4 5
M  V30 5 1 5 6
M  V30 6 1 6 7
M  V30 7 1 7 8
M  V30 8 2 8 9
M  V30 9 1 9 10
M  V30 10 1 10 11
M  V30 11 2 10 12
M  V30 12 1 12 13
M  V30 13 2 13 14
M  V30 14 1 13 15
M  V30 15 1 15 16
M  V30 16 1 16 17
M  V30 17 1 17 18
M  V30 18 1 18 19
M  V30 19 1 19 20
M  V30 20 1 12 21
M  V30 21 2 21 22
M  V30 22 1 22 23
M  V30 23 1 23 24
M  V30 24 2 6 25
M  V30 25 1 25 26
M  V30 26 2 26 27
M  V30 27 1 27 28
M  V30 28 1 28 29
M  V30 29 1 28 30
M  V30 30 1 28 31
M  V30 31 1 27 4
M  V30 32 1 22 8
M  V30 33 1 20 15
M  V30 34 1 1 32
M  V30 35 1 1 33
M  V30 36 1 1 34
M  V30 37 1 2 35
M  V30 38 1 2 36
M  V30 39 1 3 37
M  V30 40 1 7 38
M  V30 41 1 9 39
M  V30 42 1 16 40
M  V30 43 1 16 41
M  V30 44 1 17 42
M  V30 45 1 17 43
M  V30 46 1 19 44
M  V30 47 1 19 45
M  V30 48 1 20 46
M  V30 49 1 20 47
M  V30 50 1 21 48
M  V30 51 1 24 49
M  V30 52 1 24 50
M  V30 53 1 24 51
M  V30 54 1 26 52
M  V30 END BOND
M  V30 END CTAB
M  END
>  <Dataset>  (708) 
ChEMBL_Kinases

>  <Ligand_Instance>  (708) 
nan

>  <PDB_ID>  (708) 
nan

>  <Standardized_SMILES>  (708) 
CCNc1nc(Nc2cc(F)c(C(=O)N3CCOCC3)cc2OC)ncc1C(F)(F)F

>  <Name>  (708) 
nan

>  <Pocket>  (708) 
nan

>  <ATP_Site>  (708) 
nan

>  <Peripheral>  (708) 
nan

>  <Num_H_Atoms_ProtBoundConf>  (708) 
nan

>  <Num_Resolved_Atoms>  (708) 
nan

>  <Num_Not_Resolved_Atoms>  (708) 
nan

$$$$
CHEMBL2178133
     RDKit          3D

  0  0  0  0  0  0  0  0  0  0999 V3000
M  V30 BEGIN CTAB
M  V30 COUNTS 49 51 0 0 0
M  V30 BEGIN ATOM
M  V30 1 C -2.505471 -1.849926 4.675335 0
M  V30 2 N -1.697485 -3.066359 4.687833 0
M  V30 3 C -1.135359 -3.663416 3.522367 0
M  V30 4 N -1.382697 -3.042920 2.354454 0
M  V30 5 C -0.887842 -3.539823 1.206576 0
M  V30 6 N -1.186910 -2.839471 0.004434 0
M  V30 7 C -0.404649 -1.767229 -0.520338 0
M  V30 8 C 0.704954 -1.398717 0.212333 0
M  V30 9 C 1.487448 -0.364034 -0.255226 0
M  V30 10 F 2.575567 -0.019578 0.484033 0
M  V30 11 C 1.128452 0.267931 -1.446391 0
M  V30 12 C 2.035844 1.343649 -1.823382 0
M  V30 13 O 3.081163 1.570908 -2.476401 0
M  V30 14 N 1.594703 2.595575 -1.256056 0
M  V30 15 C 2.323859 3.856845 -1.471550 0
M  V30 16 C 2.515069 4.442007 -0.074759 0
M  V30 17 O 2.360976 3.457775 0.906820 0
M  V30 18 C 0.977163 3.173791 0.962533 0
M  V30 19 C 0.416953 2.845507 -0.410354 0
M  V30 20 C 0.015541 -0.114694 -2.164980 0
M  V30 21 C -0.775903 -1.146168 -1.711329 0
M  V30 22 O -1.915071 -1.564867 -2.412471 0
M  V30 23 C -2.265588 -0.919588 -3.612537 0
M  V30 24 N -0.139574 -4.665259 1.221458 0
M  V30 25 C 0.125836 -5.310183 2.375888 0
M  V30 26 C -0.365888 -4.830975 3.583881 0
M  V30 27 C -0.141655 -5.450955 4.899308 0
M  V30 28 F 0.643990 -6.586601 4.706768 0
M  V30 29 F -1.313922 -5.851023 5.504397 0
M  V30 30 F 0.599294 -4.636158 5.752201 0
M  V30 31 H -3.091889 -1.822712 5.615247 0
M  V30 32 H -3.103346 -1.765993 3.756686 0
M  V30 33 H -1.743295 -1.019162 4.647933 0
M  V30 34 H -1.503627 -3.552631 5.608960 0
M  V30 35 H -2.046211 -3.191849 -0.461682 0
M  V30 36 H 0.949541 -1.922639 1.142105 0
M  V30 37 H 1.614107 4.557570 -2.002217 0
M  V30 38 H 3.255528 3.725304 -2.024432 0
M  V30 39 H 1.730703 5.198798 0.154212 0
M  V30 40 H 3.502512 4.944569 -0.009740 0
M  V30 41 H 0.503827 4.072672 1.413109 0
M  V30 42 H 0.910988 2.289458 1.637579 0
M  V30 43 H -0.259915 1.965521 -0.400693 0
M  V30 44 H -0.132188 3.705317 -0.843562 0
M  V30 45 H -0.205889 0.404822 -3.065339 0
M  V30 46 H -2.341288 0.155505 -3.453420 0
M  V30 47 H -1.431103 -1.159258 -4.335504 0
M  V30 48 H -3.205417 -1.407513 -3.975327 0
M  V30 49 H 0.721068 -6.211275 2.416841 0
M  V30 END ATOM
M  V30 BEGIN BOND
M  V30 1 1 1 2
M  V30 2 1 2 3
M  V30 3 2 3 4
M  V30 4 1 4 5
M  V30 5 1 5 6
M  V30 6 1 6 7
M  V30 7 2 7 8
M  V30 8 1 8 9
M  V30 9 1 9 10
M  V30 10 2 9 11
M  V30 11 1 11 12
M  V30 12 2 12 13
M  V30 13 1 12 14
M  V30 14 1 14 15
M  V30 15 1 15 16
M  V30 16 1 16 17
M  V30 17 1 17 18
M  V30 18 1 18 19
M  V30 19 1 11 20
M  V30 20 2 20 21
M  V30 21 1 21 22
M  V30 22 1 22 23
M  V30 23 2 5 24
M  V30 24 1 24 25
M  V30 25 2 25 26
M  V30 26 1 26 27
M  V30 27 1 27 28
M  V30 28 1 27 29
M  V30 29 1 27 30
M  V30 30 1 26 3
M  V30 31 1 21 7
M  V30 32 1 19 14
M  V30 33 1 1 31
M  V30 34 1 1 32
M  V30 35 1 1 33
M  V30 36 1 2 34
M  V30 37 1 6 35
M  V30 38 1 8 36
M  V30 39 1 15 37
M  V30 40 1 15 38
M  V30 41 1 16 39
M  V30 42 1 16 40
M  V30 43 1 18 41
M  V30 44 1 18 42
M  V30 45 1 19 43
M  V30 46 1 19 44
M  V30 47 1 20 45
M  V30 48 1 23 46
M  V30 49 1 23 47
M  V30 50 1 23 48
M  V30 51 1 25 49
M  V30 END BOND
M  V30 END CTAB
M  END
>  <Dataset>  (709) 
ChEMBL_Kinases

>  <Ligand_Instance>  (709) 
nan

>  <PDB_ID>  (709) 
nan

>  <Standardized_SMILES>  (709) 
CNc1nc(Nc2cc(F)c(C(=O)N3CCOCC3)cc2OC)ncc1C(F)(F)F

>  <Name>  (709) 
nan

>  <Pocket>  (709) 
nan

>  <ATP_Site>  (709) 
nan

>  <Peripheral>  (709) 
nan

>  <Num_H_Atoms_ProtBoundConf>  (709) 
nan

>  <Num_Resolved_Atoms>  (709) 
nan

>  <Num_Not_Resolved_Atoms>  (709) 
nan

$$$$
CHEMBL2178132
     RDKit          3D

  0  0  0  0  0  0  0  0  0  0999 V3000
M  V30 BEGIN CTAB
M  V30 COUNTS 49 51 0 0 0
M  V30 BEGIN ATOM
M  V30 1 C -0.377201 -3.934711 3.482383 0
M  V30 2 N -1.617058 -4.544677 3.105627 0
M  V30 3 C -2.287560 -4.191110 1.900477 0
M  V30 4 N -1.744103 -3.263223 1.101934 0
M  V30 5 C -2.267578 -2.835872 -0.056884 0
M  V30 6 N -1.694537 -1.858807 -0.893162 0
M  V30 7 C -0.509441 -1.127557 -0.732117 0
M  V30 8 C 0.353592 -1.246054 0.343654 0
M  V30 9 C 1.519804 -0.536285 0.521464 0
M  V30 10 C 1.892510 0.382572 -0.436622 0
M  V30 11 C 3.090189 1.193047 -0.370002 0
M  V30 12 O 3.974421 0.513558 -0.936836 0
M  V30 13 N 3.070237 2.462129 0.246719 0
M  V30 14 C 4.131397 3.423564 0.424209 0
M  V30 15 C 4.170081 3.811155 1.886839 0
M  V30 16 O 3.332493 3.092057 2.693385 0
M  V30 17 C 2.012176 3.022174 2.292417 0
M  V30 18 C 1.829728 2.949054 0.811838 0
M  V30 19 C 1.071812 0.543546 -1.530950 0
M  V30 20 F 1.403456 1.435463 -2.493850 0
M  V30 21 C -0.076577 -0.190314 -1.654671 0
M  V30 22 O -0.859009 0.027364 -2.792183 0
M  V30 23 C -1.883353 1.004019 -2.804663 0
M  V30 24 N -3.430516 -3.401200 -0.420940 0
M  V30 25 C -4.029782 -4.334775 0.328729 0
M  V30 26 C -3.477376 -4.760336 1.514477 0
M  V30 27 C -4.123594 -5.788292 2.348658 0
M  V30 28 F -3.326477 -6.906249 2.524389 0
M  V30 29 F -4.492379 -5.277674 3.594842 0
M  V30 30 F -5.292194 -6.183910 1.727116 0
M  V30 31 H 0.502410 -4.323877 2.943662 0
M  V30 32 H -0.500966 -2.833674 3.367220 0
M  V30 33 H -0.166712 -4.088522 4.572515 0
M  V30 34 H -2.020887 -5.268741 3.753464 0
M  V30 35 H -2.214623 -1.621984 -1.780313 0
M  V30 36 H 0.155917 -1.926082 1.134120 0
M  V30 37 H 2.169635 -0.647819 1.364501 0
M  V30 38 H 3.806385 4.333746 -0.161487 0
M  V30 39 H 5.096597 3.115824 0.010320 0
M  V30 40 H 5.216279 3.543435 2.220616 0
M  V30 41 H 4.105315 4.903903 2.030808 0
M  V30 42 H 1.421489 3.884476 2.656703 0
M  V30 43 H 1.611875 2.082453 2.738375 0
M  V30 44 H 0.974151 2.262086 0.597031 0
M  V30 45 H 1.530174 3.917169 0.356399 0
M  V30 46 H -2.132904 1.227185 -1.738025 0
M  V30 47 H -1.539928 1.955751 -3.231262 0
M  V30 48 H -2.816244 0.634640 -3.270846 0
M  V30 49 H -4.968224 -4.736077 -0.044478 0
M  V30 END ATOM
M  V30 BEGIN BOND
M  V30 1 1 1 2
M  V30 2 1 2 3
M  V30 3 2 3 4
M  V30 4 1 4 5
M  V30 5 1 5 6
M  V30 6 1 6 7
M  V30 7 2 7 8
M  V30 8 1 8 9
M  V30 9 2 9 10
M  V30 10 1 10 11
M  V30 11 2 11 12
M  V30 12 1 11 13
M  V30 13 1 13 14
M  V30 14 1 14 15
M  V30 15 1 15 16
M  V30 16 1 16 17
M  V30 17 1 17 18
M  V30 18 1 10 19
M  V30 19 1 19 20
M  V30 20 2 19 21
M  V30 21 1 21 22
M  V30 22 1 22 23
M  V30 23 2 5 24
M  V30 24 1 24 25
M  V30 25 2 25 26
M  V30 26 1 26 27
M  V30 27 1 27 28
M  V30 28 1 27 29
M  V30 29 1 27 30
M  V30 30 1 26 3
M  V30 31 1 21 7
M  V30 32 1 18 13
M  V30 33 1 1 31
M  V30 34 1 1 32
M  V30 35 1 1 33
M  V30 36 1 2 34
M  V30 37 1 6 35
M  V30 38 1 8 36
M  V30 39 1 9 37
M  V30 40 1 14 38
M  V30 41 1 14 39
M  V30 42 1 15 40
M  V30 43 1 15 41
M  V30 44 1 17 42
M  V30 45 1 17 43
M  V30 46 1 18 44
M  V30 47 1 18 45
M  V30 48 1 23 46
M  V30 49 1 23 47
M  V30 50 1 23 48
M  V30 51 1 25 49
M  V30 END BOND
M  V30 END CTAB
M  END
>  <Dataset>  (710) 
ChEMBL_Kinases

>  <Ligand_Instance>  (710) 
nan

>  <PDB_ID>  (710) 
nan

>  <Standardized_SMILES>  (710) 
CNc1nc(Nc2ccc(C(=O)N3CCOCC3)c(F)c2OC)ncc1C(F)(F)F

>  <Name>  (710) 
nan

>  <Pocket>  (710) 
nan

>  <ATP_Site>  (710) 
nan

>  <Peripheral>  (710) 
nan

>  <Num_H_Atoms_ProtBoundConf>  (710) 
nan

>  <Num_Resolved_Atoms>  (710) 
nan

>  <Num_Not_Resolved_Atoms>  (710) 
nan

$$$$
CHEMBL2178131
     RDKit          3D

  0  0  0  0  0  0  0  0  0  0999 V3000
M  V30 BEGIN CTAB
M  V30 COUNTS 49 51 0 0 0
M  V30 BEGIN ATOM
M  V30 1 C -1.263836 -5.584050 0.986725 0
M  V30 2 N 0.101162 -5.796047 1.467609 0
M  V30 3 C 1.203785 -4.958984 1.085795 0
M  V30 4 N 0.909950 -3.946980 0.246945 0
M  V30 5 C 1.912230 -3.115013 -0.152549 0
M  V30 6 N 1.560915 -2.062367 -1.033514 0
M  V30 7 C 1.171270 -0.718576 -0.685028 0
M  V30 8 C 1.139619 -0.398874 0.671881 0
M  V30 9 C 0.778689 0.866036 1.053248 0
M  V30 10 O 0.692563 1.355734 2.333206 0
M  V30 11 C 0.987977 0.544773 3.440161 0
M  V30 12 C 0.450499 1.811146 0.104937 0
M  V30 13 C 0.042224 3.210223 0.265604 0
M  V30 14 O 0.821759 4.201353 0.292529 0
M  V30 15 N -1.382608 3.394626 0.397404 0
M  V30 16 C -2.364564 2.327399 0.383719 0
M  V30 17 C -3.270090 2.548046 -0.789095 0
M  V30 18 O -3.413167 3.862081 -1.146354 0
M  V30 19 C -3.277128 4.752468 -0.091547 0
M  V30 20 C -1.917408 4.736559 0.555777 0
M  V30 21 C 0.485237 1.480137 -1.255095 0
M  V30 22 C 0.848947 0.203382 -1.656339 0
M  V30 23 F 0.900164 -0.170368 -2.961798 0
M  V30 24 N 3.179945 -3.301284 0.284843 0
M  V30 25 C 3.467575 -4.311682 1.120737 0
M  V30 26 C 2.503501 -5.178957 1.556049 0
M  V30 27 C 2.648154 -6.339955 2.471021 0
M  V30 28 F 3.979016 -6.477583 2.891690 0
M  V30 29 F 1.892936 -6.151029 3.600386 0
M  V30 30 F 2.272960 -7.469269 1.763749 0
M  V30 31 H -1.799243 -6.547638 0.846737 0
M  V30 32 H -1.153079 -5.083358 -0.009069 0
M  V30 33 H -1.795250 -4.944786 1.726066 0
M  V30 34 H 0.176650 -6.612020 2.108849 0
M  V30 35 H 1.593410 -2.305552 -2.060584 0
M  V30 36 H 1.379734 -1.072491 1.478854 0
M  V30 37 H 0.254196 -0.304657 3.426476 0
M  V30 38 H 0.789992 1.131423 4.371848 0
M  V30 39 H 2.001691 0.109972 3.419646 0
M  V30 40 H -1.903400 1.326439 0.405128 0
M  V30 41 H -2.948208 2.444087 1.341309 0
M  V30 42 H -4.263373 2.050161 -0.647217 0
M  V30 43 H -2.802284 2.015743 -1.667630 0
M  V30 44 H -4.091063 4.624312 0.618101 0
M  V30 45 H -3.390547 5.781920 -0.523760 0
M  V30 46 H -2.018554 4.887971 1.654824 0
M  V30 47 H -1.205483 5.474163 0.131940 0
M  V30 48 H 0.249857 2.132093 -2.094631 0
M  V30 49 H 4.455578 -4.528173 1.516016 0
M  V30 END ATOM
M  V30 BEGIN BOND
M  V30 1 1 1 2
M  V30 2 1 2 3
M  V30 3 2 3 4
M  V30 4 1 4 5
M  V30 5 1 5 6
M  V30 6 1 6 7
M  V30 7 2 7 8
M  V30 8 1 8 9
M  V30 9 1 9 10
M  V30 10 1 10 11
M  V30 11 2 9 12
M  V30 12 1 12 13
M  V30 13 2 13 14
M  V30 14 1 13 15
M  V30 15 1 15 16
M  V30 16 1 16 17
M  V30 17 1 17 18
M  V30 18 1 18 19
M  V30 19 1 19 20
M  V30 20 1 12 21
M  V30 21 2 21 22
M  V30 22 1 22 23
M  V30 23 2 5 24
M  V30 24 1 24 25
M  V30 25 2 25 26
M  V30 26 1 26 27
M  V30 27 1 27 28
M  V30 28 1 27 29
M  V30 29 1 27 30
M  V30 30 1 26 3
M  V30 31 1 22 7
M  V30 32 1 20 15
M  V30 33 1 1 31
M  V30 34 1 1 32
M  V30 35 1 1 33
M  V30 36 1 2 34
M  V30 37 1 6 35
M  V30 38 1 8 36
M  V30 39 1 11 37
M  V30 40 1 11 38
M  V30 41 1 11 39
M  V30 42 1 16 40
M  V30 43 1 16 41
M  V30 44 1 17 42
M  V30 45 1 17 43
M  V30 46 1 19 44
M  V30 47 1 19 45
M  V30 48 1 20 46
M  V30 49 1 20 47
M  V30 50 1 21 48
M  V30 51 1 25 49
M  V30 END BOND
M  V30 END CTAB
M  END
>  <Dataset>  (711) 
ChEMBL_Kinases

>  <Ligand_Instance>  (711) 
nan

>  <PDB_ID>  (711) 
nan

>  <Standardized_SMILES>  (711) 
CNc1nc(Nc2cc(OC)c(C(=O)N3CCOCC3)cc2F)ncc1C(F)(F)F

>  <Name>  (711) 
nan

>  <Pocket>  (711) 
nan

>  <ATP_Site>  (711) 
nan

>  <Peripheral>  (711) 
nan

>  <Num_H_Atoms_ProtBoundConf>  (711) 
nan

>  <Num_Resolved_Atoms>  (711) 
nan

>  <Num_Not_Resolved_Atoms>  (711) 
nan

$$$$
CHEMBL2178130
     RDKit          3D

  0  0  0  0  0  0  0  0  0  0999 V3000
M  V30 BEGIN CTAB
M  V30 COUNTS 52 54 0 0 0
M  V30 BEGIN ATOM
M  V30 1 C -0.961421 -5.549890 2.830973 0
M  V30 2 N 0.474839 -5.714608 2.805341 0
M  V30 3 C 1.389940 -4.993219 1.962663 0
M  V30 4 N 0.932090 -4.075266 1.104750 0
M  V30 5 C 1.777985 -3.387301 0.302180 0
M  V30 6 N 1.125793 -2.458069 -0.538334 0
M  V30 7 C 0.792559 -1.076673 -0.486744 0
M  V30 8 C 1.196563 -0.398677 0.643369 0
M  V30 9 C 0.908470 0.937824 0.737601 0
M  V30 10 C 1.322364 1.702313 1.927208 0
M  V30 11 C 0.229138 1.532290 -0.304505 0
M  V30 12 C -0.069554 2.952472 -0.183657 0
M  V30 13 O 0.983700 3.449185 -0.713506 0
M  V30 14 N -1.291169 3.371940 0.412661 0
M  V30 15 C -2.264809 2.391563 0.909801 0
M  V30 16 C -3.539021 2.604776 0.147165 0
M  V30 17 O -3.590996 3.836692 -0.490563 0
M  V30 18 C -3.134986 4.869868 0.317486 0
M  V30 19 C -1.628787 4.776715 0.555413 0
M  V30 20 C -0.172154 0.827003 -1.442791 0
M  V30 21 C 0.112467 -0.516985 -1.547221 0
M  V30 22 O -0.217885 -1.333888 -2.597800 0
M  V30 23 C -0.912672 -0.893895 -3.752432 0
M  V30 24 N 3.126272 -3.602211 0.336494 0
M  V30 25 C 3.605513 -4.535161 1.206836 0
M  V30 26 C 2.756715 -5.239787 2.026491 0
M  V30 27 C 3.316930 -6.248971 2.961446 0
M  V30 28 F 4.691292 -6.302133 2.834438 0
M  V30 29 F 2.731095 -7.465411 2.669084 0
M  V30 30 F 2.993672 -5.854470 4.245318 0
M  V30 31 H -1.447029 -6.423097 2.309650 0
M  V30 32 H -1.252743 -4.591764 2.395331 0
M  V30 33 H -1.309093 -5.611303 3.881344 0
M  V30 34 H 0.850175 -6.422084 3.463230 0
M  V30 35 H 0.871420 -3.049941 -1.371324 0
M  V30 36 H 1.734704 -0.918794 1.444632 0
M  V30 37 H 1.310329 1.039649 2.813658 0
M  V30 38 H 0.620817 2.554180 2.037621 0
M  V30 39 H 2.337027 2.119520 1.803304 0
M  V30 40 H -1.886383 1.370988 0.918455 0
M  V30 41 H -2.475664 2.722701 1.966828 0
M  V30 42 H -4.451703 2.492484 0.784452 0
M  V30 43 H -3.593843 1.821224 -0.639422 0
M  V30 44 H -3.278461 5.816018 -0.242306 0
M  V30 45 H -3.665089 4.851891 1.286763 0
M  V30 46 H -1.425609 5.027670 1.620251 0
M  V30 47 H -1.052733 5.422835 -0.108012 0
M  V30 48 H -0.703119 1.290587 -2.256525 0
M  V30 49 H -0.344646 -0.039408 -4.179017 0
M  V30 50 H -0.907360 -1.684887 -4.545404 0
M  V30 51 H -1.931618 -0.589368 -3.508235 0
M  V30 52 H 4.681017 -4.701669 1.229247 0
M  V30 END ATOM
M  V30 BEGIN BOND
M  V30 1 1 1 2
M  V30 2 1 2 3
M  V30 3 2 3 4
M  V30 4 1 4 5
M  V30 5 1 5 6
M  V30 6 1 6 7
M  V30 7 2 7 8
M  V30 8 1 8 9
M  V30 9 1 9 10
M  V30 10 2 9 11
M  V30 11 1 11 12
M  V30 12 2 12 13
M  V30 13 1 12 14
M  V30 14 1 14 15
M  V30 15 1 15 16
M  V30 16 1 16 17
M  V30 17 1 17 18
M  V30 18 1 18 19
M  V30 19 1 11 20
M  V30 20 2 20 21
M  V30 21 1 21 22
M  V30 22 1 22 23
M  V30 23 2 5 24
M  V30 24 1 24 25
M  V30 25 2 25 26
M  V30 26 1 26 27
M  V30 27 1 27 28
M  V30 28 1 27 29
M  V30 29 1 27 30
M  V30 30 1 26 3
M  V30 31 1 21 7
M  V30 32 1 19 14
M  V30 33 1 1 31
M  V30 34 1 1 32
M  V30 35 1 1 33
M  V30 36 1 2 34
M  V30 37 1 6 35
M  V30 38 1 8 36
M  V30 39 1 10 37
M  V30 40 1 10 38
M  V30 41 1 10 39
M  V30 42 1 15 40
M  V30 43 1 15 41
M  V30 44 1 16 42
M  V30 45 1 16 43
M  V30 46 1 18 44
M  V30 47 1 18 45
M  V30 48 1 19 46
M  V30 49 1 19 47
M  V30 50 1 20 48
M  V30 51 1 23 49
M  V30 52 1 23 50
M  V30 53 1 23 51
M  V30 54 1 25 52
M  V30 END BOND
M  V30 END CTAB
M  END
>  <Dataset>  (712) 
ChEMBL_Kinases

>  <Ligand_Instance>  (712) 
nan

>  <PDB_ID>  (712) 
nan

>  <Standardized_SMILES>  (712) 
CNc1nc(Nc2cc(C)c(C(=O)N3CCOCC3)cc2OC)ncc1C(F)(F)F

>  <Name>  (712) 
nan

>  <Pocket>  (712) 
nan

>  <ATP_Site>  (712) 
nan

>  <Peripheral>  (712) 
nan

>  <Num_H_Atoms_ProtBoundConf>  (712) 
nan

>  <Num_Resolved_Atoms>  (712) 
nan

>  <Num_Not_Resolved_Atoms>  (712) 
nan

$$$$
CHEMBL2178129
     RDKit          3D

  0  0  0  0  0  0  0  0  0  0999 V3000
M  V30 BEGIN CTAB
M  V30 COUNTS 48 50 0 0 0
M  V30 BEGIN ATOM
M  V30 1 C -3.309776 -5.251586 -1.613931 0
M  V30 2 N -2.138795 -5.896725 -0.993246 0
M  V30 3 C -1.510236 -5.173248 0.083478 0
M  V30 4 N -1.978184 -3.979765 0.489468 0
M  V30 5 C -1.417671 -3.263918 1.508188 0
M  V30 6 N -2.174432 -2.043448 1.645322 0
M  V30 7 C -1.579058 -0.811808 1.255372 0
M  V30 8 C -0.255751 -0.753436 0.834819 0
M  V30 9 C 0.356991 0.445054 0.467849 0
M  V30 10 C 1.772405 0.255422 0.066919 0
M  V30 11 C -0.366723 1.643485 0.516096 0
M  V30 12 C 0.377666 2.823207 0.110269 0
M  V30 13 O 0.241359 2.977763 -1.122519 0
M  V30 14 N 1.166784 3.737311 0.869753 0
M  V30 15 C 1.743911 4.798721 0.069192 0
M  V30 16 C 3.018282 5.236622 0.731273 0
M  V30 17 O 3.517849 4.309164 1.632327 0
M  V30 18 C 2.667386 4.086530 2.708818 0
M  V30 19 C 1.319718 3.581474 2.303672 0
M  V30 20 C -1.685199 1.600408 0.932334 0
M  V30 21 C -2.264553 0.383611 1.292241 0
M  V30 22 Cl -3.936688 0.391735 1.811420 0
M  V30 23 N -0.344054 -3.727542 2.172494 0
M  V30 24 C 0.169017 -4.933178 1.798961 0
M  V30 25 C -0.397998 -5.637153 0.782484 0
M  V30 26 C 0.135018 -6.955459 0.354441 0
M  V30 27 F 0.484638 -6.836529 -0.982205 0
M  V30 28 F 1.298510 -7.219795 1.055229 0
M  V30 29 F -0.831954 -7.915962 0.556341 0
M  V30 30 H -3.869951 -4.655492 -0.831137 0
M  V30 31 H -3.037943 -4.562187 -2.416065 0
M  V30 32 H -4.025498 -5.983684 -1.992342 0
M  V30 33 H -1.779452 -6.821010 -1.306223 0
M  V30 34 H -3.159879 -1.991942 2.017358 0
M  V30 35 H 0.244736 -1.718010 0.821244 0
M  V30 36 H 1.884672 -0.480369 -0.749711 0
M  V30 37 H 2.306806 1.203181 -0.097314 0
M  V30 38 H 2.252447 -0.248864 0.958536 0
M  V30 39 H 1.026541 5.658133 0.174949 0
M  V30 40 H 1.880235 4.507185 -0.983899 0
M  V30 41 H 2.938154 6.262866 1.193208 0
M  V30 42 H 3.781620 5.363316 -0.064109 0
M  V30 43 H 2.604136 4.999049 3.370504 0
M  V30 44 H 3.151639 3.306443 3.333891 0
M  V30 45 H 0.557386 4.274199 2.775322 0
M  V30 46 H 1.072303 2.579701 2.651970 0
M  V30 47 H -2.190776 2.541957 0.948860 0
M  V30 48 H 1.028388 -5.272641 2.352822 0
M  V30 END ATOM
M  V30 BEGIN BOND
M  V30 1 1 1 2
M  V30 2 1 2 3
M  V30 3 2 3 4
M  V30 4 1 4 5
M  V30 5 1 5 6
M  V30 6 1 6 7
M  V30 7 2 7 8
M  V30 8 1 8 9
M  V30 9 1 9 10
M  V30 10 2 9 11
M  V30 11 1 11 12
M  V30 12 2 12 13
M  V30 13 1 12 14
M  V30 14 1 14 15
M  V30 15 1 15 16
M  V30 16 1 16 17
M  V30 17 1 17 18
M  V30 18 1 18 19
M  V30 19 1 11 20
M  V30 20 2 20 21
M  V30 21 1 21 22
M  V30 22 2 5 23
M  V30 23 1 23 24
M  V30 24 2 24 25
M  V30 25 1 25 26
M  V30 26 1 26 27
M  V30 27 1 26 28
M  V30 28 1 26 29
M  V30 29 1 25 3
M  V30 30 1 21 7
M  V30 31 1 19 14
M  V30 32 1 1 30
M  V30 33 1 1 31
M  V30 34 1 1 32
M  V30 35 1 2 33
M  V30 36 1 6 34
M  V30 37 1 8 35
M  V30 38 1 10 36
M  V30 39 1 10 37
M  V30 40 1 10 38
M  V30 41 1 15 39
M  V30 42 1 15 40
M  V30 43 1 16 41
M  V30 44 1 16 42
M  V30 45 1 18 43
M  V30 46 1 18 44
M  V30 47 1 19 45
M  V30 48 1 19 46
M  V30 49 1 20 47
M  V30 50 1 24 48
M  V30 END BOND
M  V30 END CTAB
M  END
>  <Dataset>  (713) 
ChEMBL_Kinases

>  <Ligand_Instance>  (713) 
nan

>  <PDB_ID>  (713) 
nan

>  <Standardized_SMILES>  (713) 
CNc1nc(Nc2cc(C)c(C(=O)N3CCOCC3)cc2Cl)ncc1C(F)(F)F

>  <Name>  (713) 
nan

>  <Pocket>  (713) 
nan

>  <ATP_Site>  (713) 
nan

>  <Peripheral>  (713) 
nan

>  <Num_H_Atoms_ProtBoundConf>  (713) 
nan

>  <Num_Resolved_Atoms>  (713) 
nan

>  <Num_Not_Resolved_Atoms>  (713) 
nan

$$$$
CHEMBL2178127
     RDKit          3D

  0  0  0  0  0  0  0  0  0  0999 V3000
M  V30 BEGIN CTAB
M  V30 COUNTS 52 54 0 0 0
M  V30 BEGIN ATOM
M  V30 1 C 3.960545 -2.094945 -0.122188 0
M  V30 2 C 4.255989 -2.039141 1.362088 0
M  V30 3 N 3.959319 -3.305236 1.967172 0
M  V30 4 C 2.681584 -3.917042 2.031708 0
M  V30 5 N 1.569036 -3.318493 1.510253 0
M  V30 6 C 0.360653 -3.899062 1.579186 0
M  V30 7 N -0.849535 -3.349696 1.083216 0
M  V30 8 C -1.129287 -2.096365 0.486156 0
M  V30 9 C -0.168729 -1.128200 0.313845 0
M  V30 10 C -0.427699 0.097818 -0.256611 0
M  V30 11 O 0.422771 1.163167 -0.494174 0
M  V30 12 C 1.774973 1.135538 -0.157625 0
M  V30 13 C -1.687963 0.410694 -0.687780 0
M  V30 14 C -2.148216 1.642621 -1.315214 0
M  V30 15 O -1.976305 1.403290 -2.559759 0
M  V30 16 N -2.658312 2.811993 -0.700277 0
M  V30 17 C -2.839037 3.055378 0.708976 0
M  V30 18 C -4.301074 3.408681 0.887815 0
M  V30 19 O -4.469607 4.651297 0.291524 0
M  V30 20 C -4.259918 4.645314 -1.063679 0
M  V30 21 C -3.050772 3.905148 -1.520356 0
M  V30 22 C -2.688035 -0.551751 -0.527477 0
M  V30 23 C -2.417570 -1.773148 0.044107 0
M  V30 24 Cl -3.716416 -2.941230 0.219716 0
M  V30 25 N 0.274095 -5.083505 2.173513 0
M  V30 26 C 1.281490 -5.771480 2.721001 0
M  V30 27 C 2.513332 -5.165013 2.643707 0
M  V30 28 C 3.674393 -5.866643 3.232342 0
M  V30 29 F 3.290992 -7.072230 3.786085 0
M  V30 30 F 4.148669 -5.048939 4.244654 0
M  V30 31 F 4.692792 -6.111866 2.357247 0
M  V30 32 H 4.616783 -2.843508 -0.610323 0
M  V30 33 H 2.912630 -2.297699 -0.337662 0
M  V30 34 H 4.204454 -1.082244 -0.541467 0
M  V30 35 H 3.593658 -1.275451 1.848990 0
M  V30 36 H 5.310148 -1.765542 1.547077 0
M  V30 37 H 4.757261 -3.834545 2.404644 0
M  V30 38 H -1.723311 -3.958050 1.151532 0
M  V30 39 H 0.856841 -1.262085 0.615545 0
M  V30 40 H 1.916537 1.421958 0.920607 0
M  V30 41 H 2.110227 0.087324 -0.250252 0
M  V30 42 H 2.401928 1.808242 -0.795433 0
M  V30 43 H -2.260644 3.991850 0.939747 0
M  V30 44 H -2.507984 2.228091 1.365267 0
M  V30 45 H -4.598719 3.480280 1.940975 0
M  V30 46 H -4.950239 2.687743 0.325376 0
M  V30 47 H -5.190676 4.232962 -1.553486 0
M  V30 48 H -4.187783 5.696245 -1.406670 0
M  V30 49 H -2.148718 4.568609 -1.618232 0
M  V30 50 H -3.249576 3.535962 -2.548601 0
M  V30 51 H -3.727017 -0.377847 -0.847934 0
M  V30 52 H 1.156382 -6.735789 3.194816 0
M  V30 END ATOM
M  V30 BEGIN BOND
M  V30 1 1 1 2
M  V30 2 1 2 3
M  V30 3 1 3 4
M  V30 4 2 4 5
M  V30 5 1 5 6
M  V30 6 1 6 7
M  V30 7 1 7 8
M  V30 8 2 8 9
M  V30 9 1 9 10
M  V30 10 1 10 11
M  V30 11 1 11 12
M  V30 12 2 10 13
M  V30 13 1 13 14
M  V30 14 2 14 15
M  V30 15 1 14 16
M  V30 16 1 16 17
M  V30 17 1 17 18
M  V30 18 1 18 19
M  V30 19 1 19 20
M  V30 20 1 20 21
M  V30 21 1 13 22
M  V30 22 2 22 23
M  V30 23 1 23 24
M  V30 24 2 6 25
M  V30 25 1 25 26
M  V30 26 2 26 27
M  V30 27 1 27 28
M  V30 28 1 28 29
M  V30 29 1 28 30
M  V30 30 1 28 31
M  V30 31 1 27 4
M  V30 32 1 23 8
M  V30 33 1 21 16
M  V30 34 1 1 32
M  V30 35 1 1 33
M  V30 36 1 1 34
M  V30 37 1 2 35
M  V30 38 1 2 36
M  V30 39 1 3 37
M  V30 40 1 7 38
M  V30 41 1 9 39
M  V30 42 1 12 40
M  V30 43 1 12 41
M  V30 44 1 12 42
M  V30 45 1 17 43
M  V30 46 1 17 44
M  V30 47 1 18 45
M  V30 48 1 18 46
M  V30 49 1 20 47
M  V30 50 1 20 48
M  V30 51 1 21 49
M  V30 52 1 21 50
M  V30 53 1 22 51
M  V30 54 1 26 52
M  V30 END BOND
M  V30 END CTAB
M  END
>  <Dataset>  (714) 
ChEMBL_Kinases

>  <Ligand_Instance>  (714) 
nan

>  <PDB_ID>  (714) 
nan

>  <Standardized_SMILES>  (714) 
CCNc1nc(Nc2cc(OC)c(C(=O)N3CCOCC3)cc2Cl)ncc1C(F)(F)F

>  <Name>  (714) 
nan

>  <Pocket>  (714) 
nan

>  <ATP_Site>  (714) 
nan

>  <Peripheral>  (714) 
nan

>  <Num_H_Atoms_ProtBoundConf>  (714) 
nan

>  <Num_Resolved_Atoms>  (714) 
nan

>  <Num_Not_Resolved_Atoms>  (714) 
nan

$$$$
CHEMBL2178126
     RDKit          3D

  0  0  0  0  0  0  0  0  0  0999 V3000
M  V30 BEGIN CTAB
M  V30 COUNTS 49 51 0 0 0
M  V30 BEGIN ATOM
M  V30 1 C -1.194821 -5.744576 0.649195 0
M  V30 2 N 0.096050 -5.857825 1.298087 0
M  V30 3 C 1.145836 -4.922968 0.967107 0
M  V30 4 N 0.900875 -3.971819 0.056705 0
M  V30 5 C 1.857720 -3.069199 -0.298619 0
M  V30 6 N 1.403344 -2.135225 -1.262577 0
M  V30 7 C 1.032815 -0.804173 -0.944095 0
M  V30 8 C 1.210539 -0.362111 0.343564 0
M  V30 9 C 0.902735 0.910228 0.748126 0
M  V30 10 O 1.057739 1.429306 2.040468 0
M  V30 11 C 1.578192 0.633206 3.099387 0
M  V30 12 C 0.386027 1.836784 -0.131488 0
M  V30 13 C 0.018261 3.227698 0.128189 0
M  V30 14 O 0.718703 4.275832 -0.031239 0
M  V30 15 N -1.324568 3.399234 0.631698 0
M  V30 16 C -2.210437 2.243281 0.865907 0
M  V30 17 C -3.364209 2.397145 -0.073780 0
M  V30 18 O -4.068271 3.534107 0.376951 0
M  V30 19 C -3.320955 4.669348 0.228704 0
M  V30 20 C -1.993669 4.650270 0.972017 0
M  V30 21 C 0.206875 1.378464 -1.444977 0
M  V30 22 C 0.514568 0.097295 -1.864317 0
M  V30 23 Cl 0.287292 -0.458564 -3.500713 0
M  V30 24 N 3.047373 -3.188100 0.309119 0
M  V30 25 C 3.304200 -4.130224 1.217094 0
M  V30 26 C 2.360048 -5.057170 1.599801 0
M  V30 27 C 2.556938 -6.135294 2.599156 0
M  V30 28 F 1.635273 -5.943504 3.614101 0
M  V30 29 F 3.847407 -6.054575 3.141246 0
M  V30 30 F 2.358557 -7.378780 2.035668 0
M  V30 31 H -1.529614 -6.724685 0.307732 0
M  V30 32 H -1.079905 -5.054621 -0.234370 0
M  V30 33 H -1.915810 -5.272180 1.338767 0
M  V30 34 H 0.196015 -6.629536 1.983992 0
M  V30 35 H 1.348696 -2.461910 -2.247413 0
M  V30 36 H 1.607118 -0.974874 1.160015 0
M  V30 37 H 0.878075 -0.237845 3.197348 0
M  V30 38 H 1.408378 1.229332 4.018468 0
M  V30 39 H 2.621265 0.361924 2.956297 0
M  V30 40 H -1.642989 1.296705 0.762160 0
M  V30 41 H -2.563370 2.344054 1.909656 0
M  V30 42 H -3.027073 2.647791 -1.113407 0
M  V30 43 H -4.034391 1.543581 -0.156747 0
M  V30 44 H -3.946668 5.508783 0.647185 0
M  V30 45 H -3.115598 4.906067 -0.847964 0
M  V30 46 H -2.240274 4.607217 2.059864 0
M  V30 47 H -1.410232 5.534302 0.694403 0
M  V30 48 H -0.190700 1.996877 -2.248290 0
M  V30 49 H 4.279539 -4.196525 1.687418 0
M  V30 END ATOM
M  V30 BEGIN BOND
M  V30 1 1 1 2
M  V30 2 1 2 3
M  V30 3 2 3 4
M  V30 4 1 4 5
M  V30 5 1 5 6
M  V30 6 1 6 7
M  V30 7 2 7 8
M  V30 8 1 8 9
M  V30 9 1 9 10
M  V30 10 1 10 11
M  V30 11 2 9 12
M  V30 12 1 12 13
M  V30 13 2 13 14
M  V30 14 1 13 15
M  V30 15 1 15 16
M  V30 16 1 16 17
M  V30 17 1 17 18
M  V30 18 1 18 19
M  V30 19 1 19 20
M  V30 20 1 12 21
M  V30 21 2 21 22
M  V30 22 1 22 23
M  V30 23 2 5 24
M  V30 24 1 24 25
M  V30 25 2 25 26
M  V30 26 1 26 27
M  V30 27 1 27 28
M  V30 28 1 27 29
M  V30 29 1 27 30
M  V30 30 1 26 3
M  V30 31 1 22 7
M  V30 32 1 20 15
M  V30 33 1 1 31
M  V30 34 1 1 32
M  V30 35 1 1 33
M  V30 36 1 2 34
M  V30 37 1 6 35
M  V30 38 1 8 36
M  V30 39 1 11 37
M  V30 40 1 11 38
M  V30 41 1 11 39
M  V30 42 1 16 40
M  V30 43 1 16 41
M  V30 44 1 17 42
M  V30 45 1 17 43
M  V30 46 1 19 44
M  V30 47 1 19 45
M  V30 48 1 20 46
M  V30 49 1 20 47
M  V30 50 1 21 48
M  V30 51 1 25 49
M  V30 END BOND
M  V30 END CTAB
M  END
>  <Dataset>  (715) 
ChEMBL_Kinases

>  <Ligand_Instance>  (715) 
nan

>  <PDB_ID>  (715) 
nan

>  <Standardized_SMILES>  (715) 
CNc1nc(Nc2cc(OC)c(C(=O)N3CCOCC3)cc2Cl)ncc1C(F)(F)F

>  <Name>  (715) 
nan

>  <Pocket>  (715) 
nan

>  <ATP_Site>  (715) 
nan

>  <Peripheral>  (715) 
nan

>  <Num_H_Atoms_ProtBoundConf>  (715) 
nan

>  <Num_Resolved_Atoms>  (715) 
nan

>  <Num_Not_Resolved_Atoms>  (715) 
nan

$$$$
CHEMBL2178125
     RDKit          3D

  0  0  0  0  0  0  0  0  0  0999 V3000
M  V30 BEGIN CTAB
M  V30 COUNTS 53 55 0 0 0
M  V30 BEGIN ATOM
M  V30 1 C -1.951573 -1.045654 5.317009 0
M  V30 2 N -0.534348 -1.368670 5.105007 0
M  V30 3 C -0.769909 -2.249269 3.984716 0
M  V30 4 N 0.519299 -1.938453 3.638727 0
M  V30 5 C 1.415491 -2.247473 2.651489 0
M  V30 6 N 2.501010 -2.454932 1.650792 0
M  V30 7 C 2.355379 -1.471681 0.538734 0
M  V30 8 C 2.771404 -0.287169 0.966361 0
M  V30 9 C 2.463367 0.701959 -0.043352 0
M  V30 10 O 2.287018 1.797890 -0.860930 0
M  V30 11 C 2.999712 3.027095 -0.604541 0
M  V30 12 C 1.701824 0.089623 -1.252937 0
M  V30 13 C 1.024556 1.166924 -2.081105 0
M  V30 14 O 0.563070 2.004665 -2.740948 0
M  V30 15 N -0.478631 1.126521 -1.734864 0
M  V30 16 C -1.274242 0.114435 -1.003852 0
M  V30 17 C -2.143329 0.809539 0.000786 0
M  V30 18 O -3.216744 1.497453 -0.615837 0
M  V30 19 C -2.831309 1.867831 -1.921508 0
M  V30 20 C -1.412729 2.243473 -1.936460 0
M  V30 21 C 1.382301 -1.296306 -1.411289 0
M  V30 22 C 1.753923 -2.113254 -0.466826 0
M  V30 23 O 1.505049 -3.386506 -0.650843 0
M  V30 24 C 0.907181 -3.916450 -1.768143 0
M  V30 25 N 0.633813 -3.013763 2.053981 0
M  V30 26 C -0.458997 -3.660922 1.821189 0
M  V30 27 C -0.944481 -3.070113 2.942171 0
M  V30 28 C -2.408609 -3.292123 3.241207 0
M  V30 29 F -2.762973 -3.441811 4.524241 0
M  V30 30 F -2.633125 -4.667686 2.749662 0
M  V30 31 F -3.151819 -2.509106 2.433891 0
M  V30 32 H -2.391558 -1.627107 6.137077 0
M  V30 33 H -2.530606 -0.981225 4.406588 0
M  V30 34 H -1.874447 0.034127 5.736402 0
M  V30 35 H 0.084299 -0.950256 5.725391 0
M  V30 36 H 3.210921 -3.211721 1.860931 0
M  V30 37 H 3.200277 0.415523 1.549982 0
M  V30 38 H 4.114385 2.845359 -0.584930 0
M  V30 39 H 2.616674 3.979982 -0.516865 0
M  V30 40 H 3.094014 3.146756 -1.964274 0
M  V30 41 H -1.987566 -0.253662 -1.819272 0
M  V30 42 H -0.695271 -0.702533 -0.564131 0
M  V30 43 H -2.559035 0.024817 0.699489 0
M  V30 44 H -1.538709 1.545798 0.548857 0
M  V30 45 H -3.430902 2.808617 -2.103133 0
M  V30 46 H -3.177754 1.145063 -2.700690 0
M  V30 47 H -1.296931 2.793109 -0.896732 0
M  V30 48 H -1.128450 2.993204 -2.640136 0
M  V30 49 H 0.809066 -1.586100 -2.330139 0
M  V30 50 H 1.725842 -3.774527 -2.582709 0
M  V30 51 H 0.692107 -4.992206 -1.663898 0
M  V30 52 H 0.013242 -3.370998 -2.067261 0
M  V30 53 H -1.175112 -4.312068 1.310528 0
M  V30 END ATOM
M  V30 BEGIN BOND
M  V30 1 1 1 2
M  V30 2 1 2 3
M  V30 3 2 3 4
M  V30 4 1 4 5
M  V30 5 1 5 6
M  V30 6 1 6 7
M  V30 7 2 7 8
M  V30 8 1 8 9
M  V30 9 1 9 10
M  V30 10 1 10 11
M  V30 11 2 9 12
M  V30 12 1 12 13
M  V30 13 2 13 14
M  V30 14 1 13 15
M  V30 15 1 15 16
M  V30 16 1 16 17
M  V30 17 1 17 18
M  V30 18 1 18 19
M  V30 19 1 19 20
M  V30 20 1 12 21
M  V30 21 2 21 22
M  V30 22 1 22 23
M  V30 23 1 23 24
M  V30 24 2 5 25
M  V30 25 1 25 26
M  V30 26 2 26 27
M  V30 27 1 27 28
M  V30 28 1 28 29
M  V30 29 1 28 30
M  V30 30 1 28 31
M  V30 31 1 27 3
M  V30 32 1 22 7
M  V30 33 1 20 15
M  V30 34 1 1 32
M  V30 35 1 1 33
M  V30 36 1 1 34
M  V30 37 1 2 35
M  V30 38 1 6 36
M  V30 39 1 8 37
M  V30 40 1 11 38
M  V30 41 1 11 39
M  V30 42 1 11 40
M  V30 43 1 16 41
M  V30 44 1 16 42
M  V30 45 1 17 43
M  V30 46 1 17 44
M  V30 47 1 19 45
M  V30 48 1 19 46
M  V30 49 1 20 47
M  V30 50 1 20 48
M  V30 51 1 21 49
M  V30 52 1 24 50
M  V30 53 1 24 51
M  V30 54 1 24 52
M  V30 55 1 26 53
M  V30 END BOND
M  V30 END CTAB
M  END
>  <Dataset>  (716) 
ChEMBL_Kinases

>  <Ligand_Instance>  (716) 
nan

>  <PDB_ID>  (716) 
nan

>  <Standardized_SMILES>  (716) 
CNc1nc(Nc2cc(OC)c(C(=O)N3CCOCC3)cc2OC)ncc1C(F)(F)F

>  <Name>  (716) 
nan

>  <Pocket>  (716) 
nan

>  <ATP_Site>  (716) 
nan

>  <Peripheral>  (716) 
nan

>  <Num_H_Atoms_ProtBoundConf>  (716) 
nan

>  <Num_Resolved_Atoms>  (716) 
nan

>  <Num_Not_Resolved_Atoms>  (716) 
nan

$$$$
CHEMBL2177818
     RDKit          3D

  0  0  0  0  0  0  0  0  0  0999 V3000
M  V30 BEGIN CTAB
M  V30 COUNTS 52 56 0 0 0
M  V30 BEGIN ATOM
M  V30 1 N 4.633344 0.996887 3.486198 0
M  V30 2 C 3.875247 -0.077033 2.909695 0
M  V30 3 N 4.390259 -1.313978 3.165282 0
M  V30 4 C 3.812628 -2.434375 2.705133 0
M  V30 5 C 2.664826 -2.315689 1.953010 0
M  V30 6 C 2.175679 -1.049635 1.716574 0
M  V30 7 C 2.725923 0.127946 2.162540 0
M  V30 8 C 2.261219 1.461860 1.946976 0
M  V30 9 N 2.891517 2.524173 2.437886 0
M  V30 10 C 2.256133 3.657936 2.095429 0
M  V30 11 C 2.597619 4.962839 2.411797 0
M  V30 12 C 1.745882 5.939332 1.915164 0
M  V30 13 C 0.629638 5.589752 1.151684 0
M  V30 14 N 0.371779 4.291287 0.891152 0
M  V30 15 C 1.155977 3.295206 1.341700 0
M  V30 16 N 1.205113 1.950731 1.281297 0
M  V30 17 C 0.228923 1.235406 0.585475 0
M  V30 18 C -0.904082 0.842553 1.310625 0
M  V30 19 C -1.914428 0.137504 0.674103 0
M  V30 20 C -1.742888 -0.148267 -0.684563 0
M  V30 21 C -2.862909 -0.900938 -1.285443 0
M  V30 22 C -2.633198 -2.384501 -1.167410 0
M  V30 23 O -1.547391 -2.667617 -0.588345 0
M  V30 24 N -3.626602 -3.249535 -1.700723 0
M  V30 25 C -3.269172 -4.634917 -1.514187 0
M  V30 26 C -3.698821 -5.232043 -0.342216 0
M  V30 27 C -3.437239 -6.554487 -0.015442 0
M  V30 28 C -2.707712 -7.280446 -0.931876 0
M  V30 29 C -2.271753 -6.700060 -2.105310 0
M  V30 30 C -2.535926 -5.383391 -2.423671 0
M  V30 31 C -0.626436 0.235012 -1.412998 0
M  V30 32 C 0.396505 0.946486 -0.777094 0
M  V30 33 H 4.466856 1.731347 4.214476 0
M  V30 34 H 4.341875 1.681357 4.231380 0
M  V30 35 H 4.195948 -3.426938 2.890375 0
M  V30 36 H 2.177177 -3.189851 1.569500 0
M  V30 37 H 1.280302 -1.003382 1.126657 0
M  V30 38 H 3.471416 5.198226 3.006822 0
M  V30 39 H 1.947552 6.983639 2.120915 0
M  V30 40 H -0.004113 6.383362 0.786781 0
M  V30 41 H -0.983393 1.091192 2.360294 0
M  V30 42 H -2.771435 -0.157217 1.231354 0
M  V30 43 H -2.932467 -0.697534 -2.375165 0
M  V30 44 H -3.822350 -0.703751 -0.794104 0
M  V30 45 H -4.467742 -2.830316 -2.148675 0
M  V30 46 H -4.277901 -4.657589 0.386362 0
M  V30 47 H -3.790653 -6.988072 0.913060 0
M  V30 48 H -2.462553 -8.316848 -0.750902 0
M  V30 49 H -1.696137 -7.214517 -2.864361 0
M  V30 50 H -2.230385 -4.862756 -3.316337 0
M  V30 51 H -0.572546 -0.029795 -2.472914 0
M  V30 52 H 1.255235 1.244903 -1.324273 0
M  V30 END ATOM
M  V30 BEGIN BOND
M  V30 1 1 1 2
M  V30 2 2 2 3
M  V30 3 1 3 4
M  V30 4 2 4 5
M  V30 5 1 5 6
M  V30 6 2 6 7
M  V30 7 1 7 8
M  V30 8 2 8 9
M  V30 9 1 9 10
M  V30 10 2 10 11
M  V30 11 1 11 12
M  V30 12 2 12 13
M  V30 13 1 13 14
M  V30 14 2 14 15
M  V30 15 1 15 16
M  V30 16 1 16 17
M  V30 17 2 17 18
M  V30 18 1 18 19
M  V30 19 2 19 20
M  V30 20 1 20 21
M  V30 21 1 21 22
M  V30 22 2 22 23
M  V30 23 1 22 24
M  V30 24 1 24 25
M  V30 25 2 25 26
M  V30 26 1 26 27
M  V30 27 2 27 28
M  V30 28 1 28 29
M  V30 29 2 29 30
M  V30 30 1 20 31
M  V30 31 2 31 32
M  V30 32 1 7 2
M  V30 33 1 16 8
M  V30 34 1 32 17
M  V30 35 1 15 10
M  V30 36 1 30 25
M  V30 37 1 1 33
M  V30 38 1 1 34
M  V30 39 1 4 35
M  V30 40 1 5 36
M  V30 41 1 6 37
M  V30 42 1 11 38
M  V30 43 1 12 39
M  V30 44 1 13 40
M  V30 45 1 18 41
M  V30 46 1 19 42
M  V30 47 1 21 43
M  V30 48 1 21 44
M  V30 49 1 24 45
M  V30 50 1 26 46
M  V30 51 1 27 47
M  V30 52 1 28 48
M  V30 53 1 29 49
M  V30 54 1 30 50
M  V30 55 1 31 51
M  V30 56 1 32 52
M  V30 END BOND
M  V30 END CTAB
M  END
>  <Dataset>  (717) 
ChEMBL_Kinases

>  <Ligand_Instance>  (717) 
nan

>  <PDB_ID>  (717) 
nan

>  <Standardized_SMILES>  (717) 
Nc1ncccc1-c1nc2cccnc2n1-c1ccc(CC(=O)Nc2ccccc2)cc1

>  <Name>  (717) 
nan

>  <Pocket>  (717) 
nan

>  <ATP_Site>  (717) 
nan

>  <Peripheral>  (717) 
nan

>  <Num_H_Atoms_ProtBoundConf>  (717) 
nan

>  <Num_Resolved_Atoms>  (717) 
nan

>  <Num_Not_Resolved_Atoms>  (717) 
nan

$$$$
CHEMBL2177819
     RDKit          3D

  0  0  0  0  0  0  0  0  0  0999 V3000
M  V30 BEGIN CTAB
M  V30 COUNTS 52 56 0 0 0
M  V30 BEGIN ATOM
M  V30 1 N 4.554473 1.270946 3.132803 0
M  V30 2 C 3.731669 0.152252 2.770853 0
M  V30 3 N 4.277735 -1.011619 3.157574 0
M  V30 4 C 3.675683 -2.186242 2.919750 0
M  V30 5 C 2.471525 -2.101496 2.257302 0
M  V30 6 C 1.923175 -0.899983 1.866503 0
M  V30 7 C 2.533907 0.308916 2.106389 0
M  V30 8 C 2.080169 1.614743 1.757690 0
M  V30 9 N 2.778037 2.723184 2.051875 0
M  V30 10 C 2.123299 3.808077 1.610260 0
M  V30 11 C 2.444127 5.150008 1.680718 0
M  V30 12 C 1.601564 6.111967 1.146413 0
M  V30 13 C 0.441118 5.616270 0.552361 0
M  V30 14 N 0.160535 4.300850 0.501872 0
M  V30 15 C 0.954431 3.365950 1.007440 0
M  V30 16 N 0.986097 2.026328 1.129095 0
M  V30 17 C -0.071805 1.272220 0.610685 0
M  V30 18 C -1.197277 0.969666 1.388202 0
M  V30 19 C -2.197644 0.230541 0.792558 0
M  V30 20 C -2.178732 -0.238589 -0.518084 0
M  V30 21 C -3.360194 -1.011062 -0.959202 0
M  V30 22 N -3.257183 -2.430632 -0.702602 0
M  V30 23 C -2.494110 -3.388054 -1.419239 0
M  V30 24 O -1.828393 -2.911052 -2.402694 0
M  V30 25 C -2.441785 -4.809010 -1.097597 0
M  V30 26 C -3.110536 -5.450585 -0.075299 0
M  V30 27 C -2.986880 -6.807586 0.139127 0
M  V30 28 C -2.188233 -7.600990 -0.655601 0
M  V30 29 C -1.510562 -6.978583 -1.684127 0
M  V30 30 C -1.647135 -5.621321 -1.882136 0
M  V30 31 C -1.057631 0.071382 -1.269393 0
M  V30 32 C -0.023680 0.813130 -0.714459 0
M  V30 33 H 4.967400 1.565046 4.048956 0
M  V30 34 H 5.059459 2.131053 2.882497 0
M  V30 35 H 3.994788 -3.183708 3.170569 0
M  V30 36 H 1.900001 -3.008217 2.014978 0
M  V30 37 H 0.977151 -0.895918 1.350825 0
M  V30 38 H 3.359832 5.506028 2.152101 0
M  V30 39 H 1.764473 7.170692 1.152940 0
M  V30 40 H -0.307126 6.246473 0.095239 0
M  V30 41 H -1.275790 1.303307 2.413635 0
M  V30 42 H -3.053207 0.019920 1.435499 0
M  V30 43 H -4.255658 -0.632123 -0.432989 0
M  V30 44 H -3.527564 -0.804990 -2.038626 0
M  V30 45 H -3.797814 -2.853081 0.106865 0
M  V30 46 H -3.737166 -4.829299 0.548240 0
M  V30 47 H -3.571564 -7.185755 0.982642 0
M  V30 48 H -2.119526 -8.647337 -0.456646 0
M  V30 49 H -0.890315 -7.627673 -2.292469 0
M  V30 50 H -1.072768 -5.252978 -2.710103 0
M  V30 51 H -1.049289 -0.288103 -2.269752 0
M  V30 52 H 0.813257 1.010493 -1.369749 0
M  V30 END ATOM
M  V30 BEGIN BOND
M  V30 1 1 1 2
M  V30 2 2 2 3
M  V30 3 1 3 4
M  V30 4 2 4 5
M  V30 5 1 5 6
M  V30 6 2 6 7
M  V30 7 1 7 8
M  V30 8 2 8 9
M  V30 9 1 9 10
M  V30 10 2 10 11
M  V30 11 1 11 12
M  V30 12 2 12 13
M  V30 13 1 13 14
M  V30 14 2 14 15
M  V30 15 1 15 16
M  V30 16 1 16 17
M  V30 17 2 17 18
M  V30 18 1 18 19
M  V30 19 2 19 20
M  V30 20 1 20 21
M  V30 21 1 21 22
M  V30 22 1 22 23
M  V30 23 2 23 24
M  V30 24 1 23 25
M  V30 25 2 25 26
M  V30 26 1 26 27
M  V30 27 2 27 28
M  V30 28 1 28 29
M  V30 29 2 29 30
M  V30 30 1 20 31
M  V30 31 2 31 32
M  V30 32 1 7 2
M  V30 33 1 16 8
M  V30 34 1 32 17
M  V30 35 1 15 10
M  V30 36 1 30 25
M  V30 37 1 1 33
M  V30 38 1 1 34
M  V30 39 1 4 35
M  V30 40 1 5 36
M  V30 41 1 6 37
M  V30 42 1 11 38
M  V30 43 1 12 39
M  V30 44 1 13 40
M  V30 45 1 18 41
M  V30 46 1 19 42
M  V30 47 1 21 43
M  V30 48 1 21 44
M  V30 49 1 22 45
M  V30 50 1 26 46
M  V30 51 1 27 47
M  V30 52 1 28 48
M  V30 53 1 29 49
M  V30 54 1 30 50
M  V30 55 1 31 51
M  V30 56 1 32 52
M  V30 END BOND
M  V30 END CTAB
M  END
>  <Dataset>  (718) 
ChEMBL_Kinases

>  <Ligand_Instance>  (718) 
nan

>  <PDB_ID>  (718) 
nan

>  <Standardized_SMILES>  (718) 
Nc1ncccc1-c1nc2cccnc2n1-c1ccc(CNC(=O)c2ccccc2)cc1

>  <Name>  (718) 
nan

>  <Pocket>  (718) 
nan

>  <ATP_Site>  (718) 
nan

>  <Peripheral>  (718) 
nan

>  <Num_H_Atoms_ProtBoundConf>  (718) 
nan

>  <Num_Resolved_Atoms>  (718) 
nan

>  <Num_Not_Resolved_Atoms>  (718) 
nan

$$$$
CHEMBL2177825
     RDKit          3D

  0  0  0  0  0  0  0  0  0  0999 V3000
M  V30 BEGIN CTAB
M  V30 COUNTS 52 56 0 0 0
M  V30 BEGIN ATOM
M  V30 1 N 1.525898 0.221614 3.930774 0
M  V30 2 C 2.564019 1.150529 3.992555 0
M  V30 3 N 3.004220 1.226204 5.254164 0
M  V30 4 C 4.010924 2.057818 5.575104 0
M  V30 5 C 4.519143 2.786741 4.533522 0
M  V30 6 C 4.036356 2.674132 3.265056 0
M  V30 7 C 2.995469 1.824058 2.895068 0
M  V30 8 C 2.564430 1.785426 1.533957 0
M  V30 9 N 3.148591 2.552225 0.605821 0
M  V30 10 C 2.631440 2.395207 -0.591180 0
M  V30 11 C 2.996052 3.028093 -1.768197 0
M  V30 12 C 2.296631 2.693852 -2.915623 0
M  V30 13 Br 2.733180 3.518896 -4.577312 0
M  V30 14 C 1.296133 1.751865 -2.762935 0
M  V30 15 N 0.991408 1.173668 -1.588320 0
M  V30 16 C 1.634144 1.460173 -0.453034 0
M  V30 17 N 1.656377 1.143104 0.850893 0
M  V30 18 C 0.713445 0.198548 1.219373 0
M  V30 19 C 1.099165 -1.127919 1.123123 0
M  V30 20 C 0.219171 -2.145840 1.428843 0
M  V30 21 C -1.067452 -1.869293 1.838084 0
M  V30 22 C -2.139452 -2.833790 2.202268 0
M  V30 23 N -2.891992 -3.110318 0.995226 0
M  V30 24 C -2.524629 -3.939995 -0.079944 0
M  V30 25 O -1.425536 -4.551187 -0.066709 0
M  V30 26 C -3.341961 -4.168231 -1.267751 0
M  V30 27 C -2.867104 -5.008880 -2.254246 0
M  V30 28 C -3.613259 -5.260176 -3.413771 0
M  V30 29 C -4.857857 -4.656502 -3.585172 0
M  V30 30 C -5.353448 -3.808875 -2.606486 0
M  V30 31 C -4.577258 -3.595738 -1.483590 0
M  V30 32 C -1.456387 -0.528648 1.935175 0
M  V30 33 C -0.592492 0.517071 1.634162 0
M  V30 34 H 0.777860 -0.499457 3.974763 0
M  V30 35 H 0.795035 -0.498906 4.000484 0
M  V30 36 H 4.456749 2.213518 6.541089 0
M  V30 37 H 5.325953 3.474934 4.707314 0
M  V30 38 H 4.532155 3.316792 2.513821 0
M  V30 39 H 3.797458 3.747778 -1.759676 0
M  V30 40 H 0.741501 1.485961 -3.668637 0
M  V30 41 H 2.087898 -1.454361 0.810635 0
M  V30 42 H 0.463621 -3.197208 1.374378 0
M  V30 43 H -1.714915 -3.766527 2.636933 0
M  V30 44 H -2.800668 -2.422408 2.968482 0
M  V30 45 H -3.826421 -2.647086 0.885644 0
M  V30 46 H -1.915839 -5.518981 -2.206571 0
M  V30 47 H -3.219493 -5.933606 -4.190738 0
M  V30 48 H -5.427299 -4.859064 -4.490280 0
M  V30 49 H -6.318216 -3.331184 -2.721461 0
M  V30 50 H -4.990192 -2.933663 -0.742928 0
M  V30 51 H -2.445824 -0.181348 2.246287 0
M  V30 52 H -0.882393 1.554440 1.705249 0
M  V30 END ATOM
M  V30 BEGIN BOND
M  V30 1 1 1 2
M  V30 2 2 2 3
M  V30 3 1 3 4
M  V30 4 2 4 5
M  V30 5 1 5 6
M  V30 6 2 6 7
M  V30 7 1 7 8
M  V30 8 2 8 9
M  V30 9 1 9 10
M  V30 10 2 10 11
M  V30 11 1 11 12
M  V30 12 1 12 13
M  V30 13 2 12 14
M  V30 14 1 14 15
M  V30 15 2 15 16
M  V30 16 1 16 17
M  V30 17 1 17 18
M  V30 18 2 18 19
M  V30 19 1 19 20
M  V30 20 2 20 21
M  V30 21 1 21 22
M  V30 22 1 22 23
M  V30 23 1 23 24
M  V30 24 2 24 25
M  V30 25 1 24 26
M  V30 26 2 26 27
M  V30 27 1 27 28
M  V30 28 2 28 29
M  V30 29 1 29 30
M  V30 30 2 30 31
M  V30 31 1 21 32
M  V30 32 2 32 33
M  V30 33 1 7 2
M  V30 34 1 17 8
M  V30 35 1 33 18
M  V30 36 1 16 10
M  V30 37 1 31 26
M  V30 38 1 1 34
M  V30 39 1 1 35
M  V30 40 1 4 36
M  V30 41 1 5 37
M  V30 42 1 6 38
M  V30 43 1 11 39
M  V30 44 1 14 40
M  V30 45 1 19 41
M  V30 46 1 20 42
M  V30 47 1 22 43
M  V30 48 1 22 44
M  V30 49 1 23 45
M  V30 50 1 27 46
M  V30 51 1 28 47
M  V30 52 1 29 48
M  V30 53 1 30 49
M  V30 54 1 31 50
M  V30 55 1 32 51
M  V30 56 1 33 52
M  V30 END BOND
M  V30 END CTAB
M  END
>  <Dataset>  (719) 
ChEMBL_Kinases

>  <Ligand_Instance>  (719) 
nan

>  <PDB_ID>  (719) 
nan

>  <Standardized_SMILES>  (719) 
Nc1ncccc1-c1nc2cc(Br)cnc2n1-c1ccc(CNC(=O)c2ccccc2)cc1

>  <Name>  (719) 
nan

>  <Pocket>  (719) 
nan

>  <ATP_Site>  (719) 
nan

>  <Peripheral>  (719) 
nan

>  <Num_H_Atoms_ProtBoundConf>  (719) 
nan

>  <Num_Resolved_Atoms>  (719) 
nan

>  <Num_Not_Resolved_Atoms>  (719) 
nan

$$$$
CHEMBL2177826
     RDKit          3D

  0  0  0  0  0  0  0  0  0  0999 V3000
M  V30 BEGIN CTAB
M  V30 COUNTS 65 70 0 0 0
M  V30 BEGIN ATOM
M  V30 1 N 1.011608 1.585187 4.091703 0
M  V30 2 C 0.893785 0.190564 3.853824 0
M  V30 3 N 1.052299 -0.531300 4.974293 0
M  V30 4 C 0.981902 -1.869109 4.965633 0
M  V30 5 C 0.737678 -2.424774 3.731801 0
M  V30 6 C 0.573991 -1.691549 2.578281 0
M  V30 7 C 0.648453 -0.323673 2.601378 0
M  V30 8 C 0.500535 0.595105 1.494138 0
M  V30 9 N 0.591701 1.926966 1.633615 0
M  V30 10 C 0.414953 2.537933 0.452489 0
M  V30 11 C 0.426230 3.880622 0.137893 0
M  V30 12 C 0.222566 4.311099 -1.142683 0
M  V30 13 C 0.192496 5.680718 -1.631377 0
M  V30 14 C 1.003719 6.694343 -0.932592 0
M  V30 15 C 0.164850 7.290584 0.162221 0
M  V30 16 C -1.201231 6.705256 -0.003573 0
M  V30 17 C -1.223717 6.224589 -1.427196 0
M  V30 18 C 0.009162 3.279529 -2.069082 0
M  V30 19 N 0.000937 1.973211 -1.747529 0
M  V30 20 C 0.201180 1.553211 -0.486944 0
M  V30 21 N 0.262400 0.403538 0.191128 0
M  V30 22 C 0.082159 -0.833259 -0.475649 0
M  V30 23 C -1.244664 -1.282583 -0.526686 0
M  V30 24 C -1.544761 -2.470281 -1.160081 0
M  V30 25 C -0.576959 -3.250146 -1.756891 0
M  V30 26 C -0.772193 -4.549760 -2.462707 0
M  V30 27 N -0.595565 -5.611128 -1.487800 0
M  V30 28 C -1.492395 -6.044376 -0.480470 0
M  V30 29 O -2.600605 -5.449029 -0.395165 0
M  V30 30 C -1.192241 -7.120346 0.434205 0
M  V30 31 C -0.034701 -7.871455 0.444851 0
M  V30 32 C 0.213785 -8.891404 1.341104 0
M  V30 33 C -0.735009 -9.199274 2.293750 0
M  V30 34 C -1.918608 -8.485091 2.339040 0
M  V30 35 C -2.094858 -7.478649 1.408638 0
M  V30 36 C 0.730647 -2.787557 -1.695257 0
M  V30 37 C 1.082833 -1.608316 -1.074826 0
M  V30 38 H 0.239831 2.012483 4.679475 0
M  V30 39 H 1.368932 2.557488 4.082599 0
M  V30 40 H 1.098410 -2.503507 5.822815 0
M  V30 41 H 0.667438 -3.499616 3.646689 0
M  V30 42 H 0.386116 -2.175608 1.637468 0
M  V30 43 H 0.600071 4.607741 0.891295 0
M  V30 44 H 0.319273 5.708637 -2.750917 0
M  V30 45 H 2.014708 6.385597 -0.606504 0
M  V30 46 H 1.178867 7.531832 -1.673857 0
M  V30 47 H 0.059732 8.411247 0.071186 0
M  V30 48 H 0.596514 7.096649 1.173835 0
M  V30 49 H -1.403078 5.853193 0.704330 0
M  V30 50 H -1.993058 7.479520 0.182903 0
M  V30 51 H -1.983789 5.427402 -1.599509 0
M  V30 52 H -1.392705 7.095100 -2.087290 0
M  V30 53 H -0.167701 3.479298 -3.130586 0
M  V30 54 H -2.062250 -0.732392 -0.084299 0
M  V30 55 H -2.554366 -2.846188 -1.221079 0
M  V30 56 H -0.054863 -4.620476 -3.279482 0
M  V30 57 H -1.781644 -4.599153 -2.938536 0
M  V30 58 H 0.312786 -6.122503 -1.535174 0
M  V30 59 H 0.728909 -7.658658 -0.287407 0
M  V30 60 H 1.130826 -9.463499 1.324837 0
M  V30 61 H -0.645705 -9.972507 3.038516 0
M  V30 62 H -2.715496 -8.663832 3.057554 0
M  V30 63 H -3.040045 -6.914549 1.451356 0
M  V30 64 H 1.558457 -3.331119 -2.135702 0
M  V30 65 H 2.080405 -1.209779 -1.003203 0
M  V30 END ATOM
M  V30 BEGIN BOND
M  V30 1 1 1 2
M  V30 2 2 2 3
M  V30 3 1 3 4
M  V30 4 2 4 5
M  V30 5 1 5 6
M  V30 6 2 6 7
M  V30 7 1 7 8
M  V30 8 2 8 9
M  V30 9 1 9 10
M  V30 10 2 10 11
M  V30 11 1 11 12
M  V30 12 1 12 13
M  V30 13 1 13 14
M  V30 14 1 14 15
M  V30 15 1 15 16
M  V30 16 1 16 17
M  V30 17 2 12 18
M  V30 18 1 18 19
M  V30 19 2 19 20
M  V30 20 1 20 21
M  V30 21 1 21 22
M  V30 22 2 22 23
M  V30 23 1 23 24
M  V30 24 2 24 25
M  V30 25 1 25 26
M  V30 26 1 26 27
M  V30 27 1 27 28
M  V30 28 2 28 29
M  V30 29 1 28 30
M  V30 30 2 30 31
M  V30 31 1 31 32
M  V30 32 2 32 33
M  V30 33 1 33 34
M  V30 34 2 34 35
M  V30 35 1 25 36
M  V30 36 2 36 37
M  V30 37 1 7 2
M  V30 38 1 21 8
M  V30 39 1 37 22
M  V30 40 1 20 10
M  V30 41 1 35 30
M  V30 42 1 17 13
M  V30 43 1 1 38
M  V30 44 1 1 39
M  V30 45 1 4 40
M  V30 46 1 5 41
M  V30 47 1 6 42
M  V30 48 1 11 43
M  V30 49 1 13 44
M  V30 50 1 14 45
M  V30 51 1 14 46
M  V30 52 1 15 47
M  V30 53 1 15 48
M  V30 54 1 16 49
M  V30 55 1 16 50
M  V30 56 1 17 51
M  V30 57 1 17 52
M  V30 58 1 18 53
M  V30 59 1 23 54
M  V30 60 1 24 55
M  V30 61 1 26 56
M  V30 62 1 26 57
M  V30 63 1 27 58
M  V30 64 1 31 59
M  V30 65 1 32 60
M  V30 66 1 33 61
M  V30 67 1 34 62
M  V30 68 1 35 63
M  V30 69 1 36 64
M  V30 70 1 37 65
M  V30 END BOND
M  V30 END CTAB
M  END
>  <Dataset>  (720) 
ChEMBL_Kinases

>  <Ligand_Instance>  (720) 
nan

>  <PDB_ID>  (720) 
nan

>  <Standardized_SMILES>  (720) 
Nc1ncccc1-c1nc2cc(C3CCCC3)cnc2n1-c1ccc(CNC(=O)c2ccccc2)cc1

>  <Name>  (720) 
nan

>  <Pocket>  (720) 
nan

>  <ATP_Site>  (720) 
nan

>  <Peripheral>  (720) 
nan

>  <Num_H_Atoms_ProtBoundConf>  (720) 
nan

>  <Num_Resolved_Atoms>  (720) 
nan

>  <Num_Not_Resolved_Atoms>  (720) 
nan

$$$$
CHEMBL2177827
     RDKit          3D

  0  0  0  0  0  0  0  0  0  0999 V3000
M  V30 BEGIN CTAB
M  V30 COUNTS 69 74 0 0 0
M  V30 BEGIN ATOM
M  V30 1 C 3.859845 -2.820621 5.299845 0
M  V30 2 C 3.804955 -1.625339 4.428988 0
M  V30 3 O 3.422682 -0.507966 4.856591 0
M  V30 4 N 4.198948 -1.776087 3.074588 0
M  V30 5 C 4.339372 -1.019471 1.879127 0
M  V30 6 C 5.652652 -0.519331 1.795118 0
M  V30 7 C 5.955736 0.232115 0.698816 0
M  V30 8 C 5.115562 0.542512 -0.311644 0
M  V30 9 C 3.847398 0.062225 -0.233380 0
M  V30 10 C 2.598970 0.061202 -0.979181 0
M  V30 11 C 3.080881 0.857941 -2.099353 0
M  V30 12 C 2.448167 1.321381 -3.297096 0
M  V30 13 C 1.106721 0.958280 -3.452406 0
M  V30 14 N 0.058687 1.085216 -4.282578 0
M  V30 15 C -1.002889 0.431110 -3.747424 0
M  V30 16 C -2.238700 0.456480 -4.499378 0
M  V30 17 C -3.409033 -0.152446 -4.131350 0
M  V30 18 C -4.592248 -0.143116 -4.827335 0
M  V30 19 C -4.594978 0.549432 -6.014160 0
M  V30 20 N -3.480245 1.170671 -6.436273 0
M  V30 21 C -2.337711 1.123588 -5.698082 0
M  V30 22 N -1.213308 1.833824 -6.264404 0
M  V30 23 N -0.632333 -0.103027 -2.591621 0
M  V30 24 C -1.464088 -0.827936 -1.696635 0
M  V30 25 C -1.692996 -2.134565 -1.450340 0
M  V30 26 C -2.564759 -2.529351 -0.465725 0
M  V30 27 C -3.245318 -1.625654 0.314395 0
M  V30 28 C -4.173860 -2.006525 1.412590 0
M  V30 29 C -3.473100 -1.805754 2.738749 0
M  V30 30 O -2.276465 -1.358649 2.629734 0
M  V30 31 N -3.901721 -2.021131 4.069430 0
M  V30 32 C -2.805122 -1.639152 4.889136 0
M  V30 33 C -2.870700 -0.327295 5.304134 0
M  V30 34 C -1.832553 0.157598 6.117650 0
M  V30 35 C -0.822116 -0.738208 6.431719 0
M  V30 36 C -0.789356 -2.053657 5.994177 0
M  V30 37 C -1.823546 -2.530293 5.187550 0
M  V30 38 C -3.021731 -0.259919 0.075741 0
M  V30 39 C -2.130515 0.151055 -0.929785 0
M  V30 40 C 0.660308 0.208556 -2.395828 0
M  V30 41 N 1.457047 -0.018571 -1.522919 0
M  V30 42 C 3.411637 -0.724280 0.842534 0
M  V30 43 H 4.413358 -2.553961 6.213880 0
M  V30 44 H 2.833334 -3.093863 5.616265 0
M  V30 45 H 4.312075 -3.689337 4.771026 0
M  V30 46 H 4.503604 -2.751302 2.768625 0
M  V30 47 H 6.452516 -0.655114 2.491908 0
M  V30 48 H 6.954347 0.669549 0.528578 0
M  V30 49 H 5.342652 1.124159 -1.165439 0
M  V30 50 H 4.067686 1.355457 -2.387121 0
M  V30 51 H 2.787918 1.922955 -4.162422 0
M  V30 52 H -3.481657 -0.716081 -3.219830 0
M  V30 53 H -5.495996 -0.628226 -4.511415 0
M  V30 54 H -5.427990 0.663077 -6.688734 0
M  V30 55 H -0.533796 1.702516 -7.044752 0
M  V30 56 H -1.095274 2.714796 -5.692944 0
M  V30 57 H -1.117992 -2.758176 -2.111033 0
M  V30 58 H -2.703381 -3.590479 -0.316467 0
M  V30 59 H -4.424999 -3.081130 1.366005 0
M  V30 60 H -5.098992 -1.368871 1.399777 0
M  V30 61 H -4.902318 -2.397892 4.067714 0
M  V30 62 H -3.618247 0.408940 5.097576 0
M  V30 63 H -1.815406 1.174878 6.483516 0
M  V30 64 H 0.009996 -0.408738 7.059141 0
M  V30 65 H 0.039502 -2.693687 6.281819 0
M  V30 66 H -1.868461 -3.520709 4.807132 0
M  V30 67 H -3.581877 0.422564 0.711096 0
M  V30 68 H -2.091362 1.234883 -0.961753 0
M  V30 69 H 2.519416 -1.226828 1.188463 0
M  V30 END ATOM
M  V30 BEGIN BOND
M  V30 1 1 1 2
M  V30 2 2 2 3
M  V30 3 1 2 4
M  V30 4 1 4 5
M  V30 5 2 5 6
M  V30 6 1 6 7
M  V30 7 2 7 8
M  V30 8 1 8 9
M  V30 9 1 9 10
M  V30 10 2 10 11
M  V30 11 1 11 12
M  V30 12 2 12 13
M  V30 13 1 13 14
M  V30 14 2 14 15
M  V30 15 1 15 16
M  V30 16 2 16 17
M  V30 17 1 17 18
M  V30 18 2 18 19
M  V30 19 1 19 20
M  V30 20 2 20 21
M  V30 21 1 21 22
M  V30 22 1 15 23
M  V30 23 1 23 24
M  V30 24 2 24 25
M  V30 25 1 25 26
M  V30 26 2 26 27
M  V30 27 1 27 28
M  V30 28 1 28 29
M  V30 29 2 29 30
M  V30 30 1 29 31
M  V30 31 1 31 32
M  V30 32 2 32 33
M  V30 33 1 33 34
M  V30 34 2 34 35
M  V30 35 1 35 36
M  V30 36 2 36 37
M  V30 37 1 27 38
M  V30 38 2 38 39
M  V30 39 1 23 40
M  V30 40 2 40 41
M  V30 41 2 9 42
M  V30 42 1 42 5
M  V30 43 1 41 10
M  V30 44 1 40 13
M  V30 45 1 21 16
M  V30 46 1 39 24
M  V30 47 1 37 32
M  V30 48 1 1 43
M  V30 49 1 1 44
M  V30 50 1 1 45
M  V30 51 1 4 46
M  V30 52 1 6 47
M  V30 53 1 7 48
M  V30 54 1 8 49
M  V30 55 1 11 50
M  V30 56 1 12 51
M  V30 57 1 17 52
M  V30 58 1 18 53
M  V30 59 1 19 54
M  V30 60 1 22 55
M  V30 61 1 22 56
M  V30 62 1 25 57
M  V30 63 1 26 58
M  V30 64 1 28 59
M  V30 65 1 28 60
M  V30 66 1 31 61
M  V30 67 1 33 62
M  V30 68 1 34 63
M  V30 69 1 35 64
M  V30 70 1 36 65
M  V30 71 1 37 66
M  V30 72 1 38 67
M  V30 73 1 39 68
M  V30 74 1 42 69
M  V30 END BOND
M  V30 END CTAB
M  END
>  <Dataset>  (721) 
ChEMBL_Kinases

>  <Ligand_Instance>  (721) 
nan

>  <PDB_ID>  (721) 
nan

>  <Standardized_SMILES>  (721) 
CC(=O)Nc1cccc(-c2ccc3nc(-c4cccnc4N)n(-c4ccc(CC(=O)Nc5ccccc5)cc4)c3n2)c1

>  <Name>  (721) 
nan

>  <Pocket>  (721) 
nan

>  <ATP_Site>  (721) 
nan

>  <Peripheral>  (721) 
nan

>  <Num_H_Atoms_ProtBoundConf>  (721) 
nan

>  <Num_Resolved_Atoms>  (721) 
nan

>  <Num_Not_Resolved_Atoms>  (721) 
nan

$$$$
CHEMBL2177828
     RDKit          3D

  0  0  0  0  0  0  0  0  0  0999 V3000
M  V30 BEGIN CTAB
M  V30 COUNTS 69 74 0 0 0
M  V30 BEGIN ATOM
M  V30 1 C -1.444305 -7.511706 0.553653 0
M  V30 2 C -0.353293 -6.973627 -0.301351 0
M  V30 3 O 0.788869 -7.136083 0.182805 0
M  V30 4 N -0.732536 -6.359880 -1.526168 0
M  V30 5 C -0.014576 -5.743627 -2.588050 0
M  V30 6 C 0.402576 -6.555989 -3.641759 0
M  V30 7 C 1.100876 -5.985554 -4.687887 0
M  V30 8 C 1.363299 -4.632291 -4.657702 0
M  V30 9 C 0.981002 -3.789311 -3.655390 0
M  V30 10 C 1.264433 -2.358261 -3.636607 0
M  V30 11 C 1.959111 -1.773506 -4.672566 0
M  V30 12 C 2.200592 -0.396340 -4.597571 0
M  V30 13 C 1.706776 0.230979 -3.474483 0
M  V30 14 N 1.804598 1.520553 -3.171222 0
M  V30 15 C 1.229752 1.852937 -2.010815 0
M  V30 16 C 1.249772 3.197100 -1.515253 0
M  V30 17 C 1.915732 4.155367 -2.236084 0
M  V30 18 C 1.995425 5.455573 -1.805215 0
M  V30 19 C 1.430671 5.912212 -0.640619 0
M  V30 20 N 0.777633 4.970843 0.064571 0
M  V30 21 C 0.712473 3.706590 -0.375876 0
M  V30 22 N -0.032883 2.953778 0.532603 0
M  V30 23 N 0.754684 0.697105 -1.582900 0
M  V30 24 C 0.061314 0.293024 -0.453612 0
M  V30 25 C -1.296907 0.154281 -0.172052 0
M  V30 26 C -1.770915 -0.326127 1.021376 0
M  V30 27 C -0.872893 -0.699808 2.015004 0
M  V30 28 C -1.436847 -1.205513 3.270718 0
M  V30 29 C -1.657027 -0.054927 4.217865 0
M  V30 30 O -1.206200 0.724136 3.342969 0
M  V30 31 N -2.193305 -0.198833 5.524873 0
M  V30 32 C -2.248165 1.118140 6.113024 0
M  V30 33 C -3.381662 1.894224 5.954182 0
M  V30 34 C -3.363962 3.146492 6.544820 0
M  V30 35 C -2.242468 3.554549 7.248874 0
M  V30 36 C -1.114043 2.786830 7.409333 0
M  V30 37 F -0.046950 3.216124 8.098332 0
M  V30 38 C -1.126866 1.526583 6.817376 0
M  V30 39 C 0.473060 -0.587299 1.798985 0
M  V30 40 C 0.939086 -0.095704 0.576778 0
M  V30 41 C 1.009703 -0.320590 -2.422007 0
M  V30 42 N 0.828579 -1.642330 -2.585316 0
M  V30 43 C 0.286685 -4.398414 -2.630675 0
M  V30 44 H -1.311124 -7.245558 1.631707 0
M  V30 45 H -2.424846 -7.095229 0.267543 0
M  V30 46 H -1.536657 -8.629410 0.469600 0
M  V30 47 H -1.725202 -6.292234 -1.805965 0
M  V30 48 H 0.178972 -7.611510 -3.631725 0
M  V30 49 H 1.424479 -6.624842 -5.507908 0
M  V30 50 H 1.907355 -4.268700 -5.503405 0
M  V30 51 H 2.327267 -2.298521 -5.530534 0
M  V30 52 H 2.733573 0.167610 -5.349498 0
M  V30 53 H 2.410923 3.931778 -3.180185 0
M  V30 54 H 2.537282 6.143667 -2.430078 0
M  V30 55 H 1.559590 6.954143 -0.405679 0
M  V30 56 H 0.157038 2.476555 1.433032 0
M  V30 57 H -0.983527 2.956531 0.094752 0
M  V30 58 H -1.889781 0.481090 -1.030783 0
M  V30 59 H -2.843766 -0.374102 1.088870 0
M  V30 60 H -2.442971 -1.648487 3.096008 0
M  V30 61 H -0.787538 -1.945788 3.788445 0
M  V30 62 H -2.419400 -1.200556 5.755286 0
M  V30 63 H -4.242575 1.567807 5.407911 0
M  V30 64 H -4.238719 3.762485 6.430379 0
M  V30 65 H -2.287974 4.541499 7.686735 0
M  V30 66 H -0.256857 0.887592 6.918921 0
M  V30 67 H 1.109652 -0.888308 2.594512 0
M  V30 68 H 2.025237 -0.058491 0.537342 0
M  V30 69 H -0.072494 -3.816497 -1.767922 0
M  V30 END ATOM
M  V30 BEGIN BOND
M  V30 1 1 1 2
M  V30 2 2 2 3
M  V30 3 1 2 4
M  V30 4 1 4 5
M  V30 5 2 5 6
M  V30 6 1 6 7
M  V30 7 2 7 8
M  V30 8 1 8 9
M  V30 9 1 9 10
M  V30 10 2 10 11
M  V30 11 1 11 12
M  V30 12 2 12 13
M  V30 13 1 13 14
M  V30 14 2 14 15
M  V30 15 1 15 16
M  V30 16 2 16 17
M  V30 17 1 17 18
M  V30 18 2 18 19
M  V30 19 1 19 20
M  V30 20 2 20 21
M  V30 21 1 21 22
M  V30 22 1 15 23
M  V30 23 1 23 24
M  V30 24 2 24 25
M  V30 25 1 25 26
M  V30 26 2 26 27
M  V30 27 1 27 28
M  V30 28 1 28 29
M  V30 29 2 29 30
M  V30 30 1 29 31
M  V30 31 1 31 32
M  V30 32 2 32 33
M  V30 33 1 33 34
M  V30 34 2 34 35
M  V30 35 1 35 36
M  V30 36 1 36 37
M  V30 37 2 36 38
M  V30 38 1 27 39
M  V30 39 2 39 40
M  V30 40 1 23 41
M  V30 41 2 41 42
M  V30 42 2 9 43
M  V30 43 1 43 5
M  V30 44 1 42 10
M  V30 45 1 41 13
M  V30 46 1 21 16
M  V30 47 1 40 24
M  V30 48 1 38 32
M  V30 49 1 1 44
M  V30 50 1 1 45
M  V30 51 1 1 46
M  V30 52 1 4 47
M  V30 53 1 6 48
M  V30 54 1 7 49
M  V30 55 1 8 50
M  V30 56 1 11 51
M  V30 57 1 12 52
M  V30 58 1 17 53
M  V30 59 1 18 54
M  V30 60 1 19 55
M  V30 61 1 22 56
M  V30 62 1 22 57
M  V30 63 1 25 58
M  V30 64 1 26 59
M  V30 65 1 28 60
M  V30 66 1 28 61
M  V30 67 1 31 62
M  V30 68 1 33 63
M  V30 69 1 34 64
M  V30 70 1 35 65
M  V30 71 1 38 66
M  V30 72 1 39 67
M  V30 73 1 40 68
M  V30 74 1 43 69
M  V30 END BOND
M  V30 END CTAB
M  END
>  <Dataset>  (722) 
ChEMBL_Kinases

>  <Ligand_Instance>  (722) 
nan

>  <PDB_ID>  (722) 
nan

>  <Standardized_SMILES>  (722) 
CC(=O)Nc1cccc(-c2ccc3nc(-c4cccnc4N)n(-c4ccc(CC(=O)Nc5cccc(F)c5)cc4)c3n2)c1

>  <Name>  (722) 
nan

>  <Pocket>  (722) 
nan

>  <ATP_Site>  (722) 
nan

>  <Peripheral>  (722) 
nan

>  <Num_H_Atoms_ProtBoundConf>  (722) 
nan

>  <Num_Resolved_Atoms>  (722) 
nan

>  <Num_Not_Resolved_Atoms>  (722) 
nan

$$$$
CHEMBL2177829
     RDKit          3D

  0  0  0  0  0  0  0  0  0  0999 V3000
M  V30 BEGIN CTAB
M  V30 COUNTS 61 66 0 0 0
M  V30 BEGIN ATOM
M  V30 1 N 2.706857 -1.901426 3.763291 0
M  V30 2 C 3.048830 -0.838709 4.607431 0
M  V30 3 N 3.864271 -1.326736 5.542808 0
M  V30 4 C 4.366595 -0.526180 6.509407 0
M  V30 5 C 3.964366 0.782385 6.426520 0
M  V30 6 C 3.122714 1.233146 5.442255 0
M  V30 7 C 2.606603 0.416411 4.451242 0
M  V30 8 C 1.734124 0.979042 3.469054 0
M  V30 9 N 1.411807 2.277638 3.488871 0
M  V30 10 C 0.588938 2.618456 2.498377 0
M  V30 11 C 0.082517 3.879444 2.257153 0
M  V30 12 C -0.765417 3.983778 1.150828 0
M  V30 13 C -1.009925 2.843057 0.421998 0
M  V30 14 C -1.878902 2.849627 -0.747394 0
M  V30 15 C -2.101509 1.686714 -1.455397 0
M  V30 16 C -2.925007 1.648889 -2.578856 0
M  V30 17 C -3.557839 2.810759 -3.024347 0
M  V30 18 N -3.330839 3.941127 -2.321863 0
M  V30 19 C -2.532822 3.954587 -1.241407 0
M  V30 20 N -0.459544 1.661413 0.750201 0
M  V30 21 C 0.361029 1.463165 1.786804 0
M  V30 22 N 1.080827 0.533571 2.432240 0
M  V30 23 C 0.973362 -0.718565 1.852519 0
M  V30 24 C 1.889767 -1.049810 0.839474 0
M  V30 25 C 1.702731 -2.310416 0.261820 0
M  V30 26 C 0.679619 -3.176628 0.662860 0
M  V30 27 C 0.532058 -4.503325 0.010380 0
M  V30 28 C -0.384243 -4.302041 -1.150596 0
M  V30 29 O -0.674709 -3.068212 -1.118858 0
M  V30 30 N -0.835634 -5.257731 -2.083061 0
M  V30 31 C -1.713141 -4.789089 -3.100906 0
M  V30 32 C -3.108294 -4.736914 -3.042091 0
M  V30 33 C -3.825847 -4.256396 -4.110852 0
M  V30 34 C -3.165119 -3.817817 -5.261074 0
M  V30 35 C -1.784631 -3.864606 -5.331009 0
M  V30 36 C -1.083408 -4.349096 -4.250278 0
M  V30 37 C -0.175141 -2.772070 1.664037 0
M  V30 38 C -0.073250 -1.546627 2.296897 0
M  V30 39 H 2.427898 -2.704971 3.164950 0
M  V30 40 H 2.067571 -2.712402 3.861636 0
M  V30 41 H 5.028019 -0.772600 7.321216 0
M  V30 42 H 4.309383 1.493482 7.147983 0
M  V30 43 H 2.878617 2.310423 5.492414 0
M  V30 44 H 0.334850 4.709498 2.887529 0
M  V30 45 H -1.201084 4.938996 0.897841 0
M  V30 46 H -1.633865 0.772977 -1.145511 0
M  V30 47 H -3.067368 0.723861 -3.095332 0
M  V30 48 H -4.185413 2.724191 -3.900808 0
M  V30 49 H -2.403310 4.900376 -0.735231 0
M  V30 50 H 2.645113 -0.359989 0.573007 0
M  V30 51 H 2.378193 -2.614090 -0.520275 0
M  V30 52 H 0.144384 -5.223754 0.743003 0
M  V30 53 H 1.527743 -4.774085 -0.392655 0
M  V30 54 H -0.461961 -6.223966 -1.911650 0
M  V30 55 H -3.523054 -5.099151 -2.109151 0
M  V30 56 H -4.901973 -4.241076 -4.005290 0
M  V30 57 H -3.725172 -3.446162 -6.087292 0
M  V30 58 H -1.296758 -3.518543 -6.234235 0
M  V30 59 H 0.004564 -4.362593 -4.361561 0
M  V30 60 H -0.988911 -3.422000 2.006041 0
M  V30 61 H -0.717076 -1.209852 3.070326 0
M  V30 END ATOM
M  V30 BEGIN BOND
M  V30 1 1 1 2
M  V30 2 2 2 3
M  V30 3 1 3 4
M  V30 4 2 4 5
M  V30 5 1 5 6
M  V30 6 2 6 7
M  V30 7 1 7 8
M  V30 8 2 8 9
M  V30 9 1 9 10
M  V30 10 2 10 11
M  V30 11 1 11 12
M  V30 12 2 12 13
M  V30 13 1 13 14
M  V30 14 2 14 15
M  V30 15 1 15 16
M  V30 16 2 16 17
M  V30 17 1 17 18
M  V30 18 2 18 19
M  V30 19 1 13 20
M  V30 20 2 20 21
M  V30 21 1 21 22
M  V30 22 1 22 23
M  V30 23 2 23 24
M  V30 24 1 24 25
M  V30 25 2 25 26
M  V30 26 1 26 27
M  V30 27 1 27 28
M  V30 28 2 28 29
M  V30 29 1 28 30
M  V30 30 1 30 31
M  V30 31 2 31 32
M  V30 32 1 32 33
M  V30 33 2 33 34
M  V30 34 1 34 35
M  V30 35 2 35 36
M  V30 36 1 26 37
M  V30 37 2 37 38
M  V30 38 1 7 2
M  V30 39 1 22 8
M  V30 40 1 38 23
M  V30 41 1 21 10
M  V30 42 1 36 31
M  V30 43 1 19 14
M  V30 44 1 1 39
M  V30 45 1 1 40
M  V30 46 1 4 41
M  V30 47 1 5 42
M  V30 48 1 6 43
M  V30 49 1 11 44
M  V30 50 1 12 45
M  V30 51 1 15 46
M  V30 52 1 16 47
M  V30 53 1 17 48
M  V30 54 1 19 49
M  V30 55 1 24 50
M  V30 56 1 25 51
M  V30 57 1 27 52
M  V30 58 1 27 53
M  V30 59 1 30 54
M  V30 60 1 32 55
M  V30 61 1 33 56
M  V30 62 1 34 57
M  V30 63 1 35 58
M  V30 64 1 36 59
M  V30 65 1 37 60
M  V30 66 1 38 61
M  V30 END BOND
M  V30 END CTAB
M  END
>  <Dataset>  (723) 
ChEMBL_Kinases

>  <Ligand_Instance>  (723) 
nan

>  <PDB_ID>  (723) 
nan

>  <Standardized_SMILES>  (723) 
Nc1ncccc1-c1nc2ccc(-c3cccnc3)nc2n1-c1ccc(CC(=O)Nc2ccccc2)cc1

>  <Name>  (723) 
nan

>  <Pocket>  (723) 
nan

>  <ATP_Site>  (723) 
nan

>  <Peripheral>  (723) 
nan

>  <Num_H_Atoms_ProtBoundConf>  (723) 
nan

>  <Num_Resolved_Atoms>  (723) 
nan

>  <Num_Not_Resolved_Atoms>  (723) 
nan

$$$$
CHEMBL2177830
     RDKit          3D

  0  0  0  0  0  0  0  0  0  0999 V3000
M  V30 BEGIN CTAB
M  V30 COUNTS 62 67 0 0 0
M  V30 BEGIN ATOM
M  V30 1 N 2.255803 1.841350 3.815973 0
M  V30 2 C 2.667632 0.731501 3.001358 0
M  V30 3 N 3.982376 0.439922 3.142608 0
M  V30 4 C 4.473408 -0.580217 2.425763 0
M  V30 5 C 3.696805 -1.321299 1.570421 0
M  V30 6 C 2.377020 -0.967510 1.480173 0
M  V30 7 C 1.796587 0.058250 2.175491 0
M  V30 8 C 0.425873 0.494713 2.140005 0
M  V30 9 N -0.048609 1.519201 2.865948 0
M  V30 10 C -1.359855 1.695785 2.626940 0
M  V30 11 C -2.239417 2.622381 3.151300 0
M  V30 12 C -3.568683 2.604772 2.743207 0
M  V30 13 C -4.632284 3.496201 3.186145 0
M  V30 14 C -4.654148 4.019912 4.460595 0
M  V30 15 C -5.722936 4.856453 4.755628 0
M  V30 16 C -6.734762 5.182513 3.868352 0
M  V30 17 C -6.674348 4.635855 2.600822 0
M  V30 18 C -5.621129 3.791137 2.258991 0
M  V30 19 C -3.871126 1.609338 1.811018 0
M  V30 20 N -3.034465 0.696248 1.285592 0
M  V30 21 C -1.745000 0.730880 1.696314 0
M  V30 22 N -0.614973 0.034869 1.442567 0
M  V30 23 C -0.681321 -1.027155 0.525401 0
M  V30 24 C -0.970284 -2.379288 0.750782 0
M  V30 25 C -1.004569 -3.261902 -0.307013 0
M  V30 26 C -0.758158 -2.846891 -1.605610 0
M  V30 27 C -0.853926 -3.949790 -2.597380 0
M  V30 28 N 0.438884 -4.586871 -2.731532 0
M  V30 29 C 1.564752 -4.098894 -3.438525 0
M  V30 30 O 1.484079 -2.990802 -4.034116 0
M  V30 31 C 2.844847 -4.787464 -3.539433 0
M  V30 32 C 3.851929 -4.189329 -4.250963 0
M  V30 33 C 5.110239 -4.788459 -4.397090 0
M  V30 34 C 5.382453 -6.015962 -3.823078 0
M  V30 35 C 4.353401 -6.603694 -3.108745 0
M  V30 36 C 3.119244 -6.011619 -2.967946 0
M  V30 37 C -0.471461 -1.520376 -1.847924 0
M  V30 38 C -0.437854 -0.635054 -0.782545 0
M  V30 39 H 2.281717 2.880035 3.896678 0
M  V30 40 H 1.709315 1.652146 4.699960 0
M  V30 41 H 5.519374 -0.845702 2.510689 0
M  V30 42 H 4.077119 -2.146759 0.984382 0
M  V30 43 H 1.759006 -1.539435 0.815052 0
M  V30 44 H -1.984925 3.376764 3.865624 0
M  V30 45 H -3.887673 3.792010 5.177468 0
M  V30 46 H -5.800185 5.298366 5.732590 0
M  V30 47 H -7.545807 5.842905 4.157815 0
M  V30 48 H -7.457038 4.872950 1.877142 0
M  V30 49 H -5.653293 3.410281 1.247449 0
M  V30 50 H -4.885869 1.530732 1.445487 0
M  V30 51 H -1.146834 -2.595843 1.796622 0
M  V30 52 H -1.237128 -4.260925 0.004870 0
M  V30 53 H -1.121758 -3.450211 -3.573997 0
M  V30 54 H -1.609881 -4.698035 -2.322496 0
M  V30 55 H 0.580240 -5.514467 -2.259814 0
M  V30 56 H 3.767902 -3.217394 -4.754887 0
M  V30 57 H 5.900419 -4.297101 -4.967418 0
M  V30 58 H 6.368410 -6.437611 -3.964378 0
M  V30 59 H 4.587348 -7.574396 -2.661712 0
M  V30 60 H 2.346522 -6.511236 -2.399788 0
M  V30 61 H -0.291724 -1.263543 -2.879896 0
M  V30 62 H -0.202462 0.375527 -1.093229 0
M  V30 END ATOM
M  V30 BEGIN BOND
M  V30 1 1 1 2
M  V30 2 2 2 3
M  V30 3 1 3 4
M  V30 4 2 4 5
M  V30 5 1 5 6
M  V30 6 2 6 7
M  V30 7 1 7 8
M  V30 8 2 8 9
M  V30 9 1 9 10
M  V30 10 2 10 11
M  V30 11 1 11 12
M  V30 12 1 12 13
M  V30 13 2 13 14
M  V30 14 1 14 15
M  V30 15 2 15 16
M  V30 16 1 16 17
M  V30 17 2 17 18
M  V30 18 2 12 19
M  V30 19 1 19 20
M  V30 20 2 20 21
M  V30 21 1 21 22
M  V30 22 1 22 23
M  V30 23 2 23 24
M  V30 24 1 24 25
M  V30 25 2 25 26
M  V30 26 1 26 27
M  V30 27 1 27 28
M  V30 28 1 28 29
M  V30 29 2 29 30
M  V30 30 1 29 31
M  V30 31 2 31 32
M  V30 32 1 32 33
M  V30 33 2 33 34
M  V30 34 1 34 35
M  V30 35 2 35 36
M  V30 36 1 26 37
M  V30 37 2 37 38
M  V30 38 1 7 2
M  V30 39 1 22 8
M  V30 40 1 38 23
M  V30 41 1 21 10
M  V30 42 1 36 31
M  V30 43 1 18 13
M  V30 44 1 1 39
M  V30 45 1 1 40
M  V30 46 1 4 41
M  V30 47 1 5 42
M  V30 48 1 6 43
M  V30 49 1 11 44
M  V30 50 1 14 45
M  V30 51 1 15 46
M  V30 52 1 16 47
M  V30 53 1 17 48
M  V30 54 1 18 49
M  V30 55 1 19 50
M  V30 56 1 24 51
M  V30 57 1 25 52
M  V30 58 1 27 53
M  V30 59 1 27 54
M  V30 60 1 28 55
M  V30 61 1 32 56
M  V30 62 1 33 57
M  V30 63 1 34 58
M  V30 64 1 35 59
M  V30 65 1 36 60
M  V30 66 1 37 61
M  V30 67 1 38 62
M  V30 END BOND
M  V30 END CTAB
M  END
>  <Dataset>  (724) 
ChEMBL_Kinases

>  <Ligand_Instance>  (724) 
nan

>  <PDB_ID>  (724) 
nan

>  <Standardized_SMILES>  (724) 
Nc1ncccc1-c1nc2cc(-c3ccccc3)cnc2n1-c1ccc(CNC(=O)c2ccccc2)cc1

>  <Name>  (724) 
nan

>  <Pocket>  (724) 
nan

>  <ATP_Site>  (724) 
nan

>  <Peripheral>  (724) 
nan

>  <Num_H_Atoms_ProtBoundConf>  (724) 
nan

>  <Num_Resolved_Atoms>  (724) 
nan

>  <Num_Not_Resolved_Atoms>  (724) 
nan

$$$$
CHEMBL2178124
     RDKit          3D

  0  0  0  0  0  0  0  0  0  0999 V3000
M  V30 BEGIN CTAB
M  V30 COUNTS 49 51 0 0 0
M  V30 BEGIN ATOM
M  V30 1 C -2.915790 -1.749414 4.397626 0
M  V30 2 N -2.191898 -2.997159 4.576724 0
M  V30 3 C -1.510219 -3.615890 3.497836 0
M  V30 4 N -1.514283 -3.064816 2.275100 0
M  V30 5 C -0.887729 -3.600459 1.211775 0
M  V30 6 N -1.022386 -2.852615 0.013705 0
M  V30 7 C -0.204852 -1.794051 -0.469519 0
M  V30 8 C 0.861396 -1.428170 0.323522 0
M  V30 9 C 1.722331 -0.413121 -0.039011 0
M  V30 10 Cl 3.093679 0.129440 0.880424 0
M  V30 11 C 1.420971 0.196361 -1.256978 0
M  V30 12 C 2.264754 1.269234 -1.719428 0
M  V30 13 O 3.272204 1.606514 -2.375415 0
M  V30 14 N 1.791494 2.549409 -1.253241 0
M  V30 15 C 2.454015 3.825529 -1.567868 0
M  V30 16 C 2.630315 4.532253 -0.263764 0
M  V30 17 O 2.442078 3.702213 0.835607 0
M  V30 18 C 1.144686 3.235016 0.938275 0
M  V30 19 C 0.616844 2.825667 -0.416571 0
M  V30 20 C 0.361454 -0.149177 -2.070341 0
M  V30 21 C -0.475222 -1.170065 -1.669797 0
M  V30 22 O -1.580375 -1.642625 -2.361948 0
M  V30 23 C -1.897839 -1.033613 -3.599278 0
M  V30 24 N -0.210115 -4.772336 1.391741 0
M  V30 25 C -0.181670 -5.357645 2.602553 0
M  V30 26 C -0.824241 -4.808437 3.693714 0
M  V30 27 C -0.767094 -5.481232 4.999226 0
M  V30 28 F -0.017222 -6.653593 4.914928 0
M  V30 29 F -2.020490 -5.731508 5.508161 0
M  V30 30 F -0.114001 -4.670332 5.910063 0
M  V30 31 H -3.133652 -1.575432 3.314959 0
M  V30 32 H -3.860780 -1.696413 4.934394 0
M  V30 33 H -2.268445 -0.891553 4.741047 0
M  V30 34 H -2.177197 -3.442628 5.522416 0
M  V30 35 H -1.856682 -3.196400 -0.513180 0
M  V30 36 H 1.092415 -1.912023 1.280072 0
M  V30 37 H 1.743939 4.403054 -2.192302 0
M  V30 38 H 3.391472 3.661592 -2.131945 0
M  V30 39 H 2.033196 5.444653 -0.225740 0
M  V30 40 H 3.703574 4.867002 -0.197462 0
M  V30 41 H 0.444752 3.953779 1.387464 0
M  V30 42 H 1.171443 2.351755 1.620984 0
M  V30 43 H 0.023368 3.670413 -0.809825 0
M  V30 44 H -0.052906 1.945563 -0.356736 0
M  V30 45 H 0.144354 0.324213 -2.996111 0
M  V30 46 H -1.823664 0.070846 -3.458224 0
M  V30 47 H -1.154921 -1.354863 -4.366669 0
M  V30 48 H -2.941279 -1.321989 -3.913551 0
M  V30 49 H 0.373116 -6.294393 2.698191 0
M  V30 END ATOM
M  V30 BEGIN BOND
M  V30 1 1 1 2
M  V30 2 1 2 3
M  V30 3 2 3 4
M  V30 4 1 4 5
M  V30 5 1 5 6
M  V30 6 1 6 7
M  V30 7 2 7 8
M  V30 8 1 8 9
M  V30 9 1 9 10
M  V30 10 2 9 11
M  V30 11 1 11 12
M  V30 12 2 12 13
M  V30 13 1 12 14
M  V30 14 1 14 15
M  V30 15 1 15 16
M  V30 16 1 16 17
M  V30 17 1 17 18
M  V30 18 1 18 19
M  V30 19 1 11 20
M  V30 20 2 20 21
M  V30 21 1 21 22
M  V30 22 1 22 23
M  V30 23 2 5 24
M  V30 24 1 24 25
M  V30 25 2 25 26
M  V30 26 1 26 27
M  V30 27 1 27 28
M  V30 28 1 27 29
M  V30 29 1 27 30
M  V30 30 1 26 3
M  V30 31 1 21 7
M  V30 32 1 19 14
M  V30 33 1 1 31
M  V30 34 1 1 32
M  V30 35 1 1 33
M  V30 36 1 2 34
M  V30 37 1 6 35
M  V30 38 1 8 36
M  V30 39 1 15 37
M  V30 40 1 15 38
M  V30 41 1 16 39
M  V30 42 1 16 40
M  V30 43 1 18 41
M  V30 44 1 18 42
M  V30 45 1 19 43
M  V30 46 1 19 44
M  V30 47 1 20 45
M  V30 48 1 23 46
M  V30 49 1 23 47
M  V30 50 1 23 48
M  V30 51 1 25 49
M  V30 END BOND
M  V30 END CTAB
M  END
>  <Dataset>  (725) 
ChEMBL_Kinases

>  <Ligand_Instance>  (725) 
nan

>  <PDB_ID>  (725) 
nan

>  <Standardized_SMILES>  (725) 
CNc1nc(Nc2cc(Cl)c(C(=O)N3CCOCC3)cc2OC)ncc1C(F)(F)F

>  <Name>  (725) 
nan

>  <Pocket>  (725) 
nan

>  <ATP_Site>  (725) 
nan

>  <Peripheral>  (725) 
nan

>  <Num_H_Atoms_ProtBoundConf>  (725) 
nan

>  <Num_Resolved_Atoms>  (725) 
nan

>  <Num_Not_Resolved_Atoms>  (725) 
nan

$$$$
CHEMBL2177832
     RDKit          3D

  0  0  0  0  0  0  0  0  0  0999 V3000
M  V30 BEGIN CTAB
M  V30 COUNTS 61 66 0 0 0
M  V30 BEGIN ATOM
M  V30 1 N 3.016420 -1.560419 -3.103274 0
M  V30 2 C 4.251430 -1.355861 -2.485972 0
M  V30 3 N 5.211361 -1.743810 -3.359125 0
M  V30 4 C 6.518319 -1.662475 -3.018879 0
M  V30 5 C 6.756215 -1.176002 -1.772663 0
M  V30 6 C 5.759222 -0.790596 -0.909675 0
M  V30 7 C 4.421608 -0.865868 -1.238778 0
M  V30 8 C 3.436667 -0.435649 -0.295142 0
M  V30 9 N 3.795179 0.020478 0.910507 0
M  V30 10 C 2.781267 0.385546 1.676688 0
M  V30 11 C 2.827295 0.887077 2.955783 0
M  V30 12 C 1.601674 1.196132 3.556403 0
M  V30 13 C 0.474653 0.964139 2.799654 0
M  V30 14 C -0.842788 1.246891 3.337977 0
M  V30 15 C -2.010759 1.030879 2.637179 0
M  V30 16 C -3.291973 1.266419 3.071545 0
M  V30 17 C -3.380546 1.780284 4.368555 0
M  V30 18 N -2.296261 2.020137 5.119181 0
M  V30 19 C -1.085365 1.758866 4.610431 0
M  V30 20 N 0.520835 0.468871 1.549575 0
M  V30 21 C 1.661089 0.151853 0.915630 0
M  V30 22 N 2.123072 -0.335177 -0.243796 0
M  V30 23 C 1.134398 -0.628653 -1.164700 0
M  V30 24 C 0.786495 0.388844 -2.071499 0
M  V30 25 C -0.221423 0.185585 -3.003476 0
M  V30 26 C -0.912736 -0.978598 -3.091027 0
M  V30 27 C -1.996443 -1.304574 -4.051205 0
M  V30 28 N -3.317687 -0.953877 -3.576841 0
M  V30 29 C -3.873427 0.352688 -3.543060 0
M  V30 30 O -3.177257 1.296078 -3.954034 0
M  V30 31 C -5.211668 0.665421 -3.057882 0
M  V30 32 C -5.607168 1.983609 -3.091225 0
M  V30 33 C -6.857359 2.423524 -2.662999 0
M  V30 34 C -7.724967 1.478768 -2.186989 0
M  V30 35 C -7.328451 0.158418 -2.153552 0
M  V30 36 C -6.087692 -0.290416 -2.576743 0
M  V30 37 C -0.581586 -1.988110 -2.204893 0
M  V30 38 C 0.400122 -1.820947 -1.280965 0
M  V30 39 H 2.179447 -1.554114 -3.705385 0
M  V30 40 H 2.109889 -1.710711 -3.556214 0
M  V30 41 H 7.365472 -1.933939 -3.611776 0
M  V30 42 H 7.752505 -1.077060 -1.422112 0
M  V30 43 H 6.086559 -0.411916 0.074652 0
M  V30 44 H 3.771567 1.023386 3.442061 0
M  V30 45 H 1.600182 1.586113 4.543464 0
M  V30 46 H -1.926199 0.632498 1.631487 0
M  V30 47 H -4.167762 1.078950 2.483179 0
M  V30 48 H -4.364723 1.995419 4.790884 0
M  V30 49 H -0.254121 1.969490 5.254412 0
M  V30 50 H 1.294934 1.366800 -2.072784 0
M  V30 51 H -0.475013 0.965750 -3.689497 0
M  V30 52 H -1.786674 -0.809750 -5.031479 0
M  V30 53 H -2.005772 -2.407802 -4.270764 0
M  V30 54 H -3.953669 -1.711001 -3.215792 0
M  V30 55 H -4.972161 2.791643 -3.456852 0
M  V30 56 H -7.167040 3.460604 -2.689359 0
M  V30 57 H -8.698360 1.779829 -1.848225 0
M  V30 58 H -8.048816 -0.553265 -1.769338 0
M  V30 59 H -5.812530 -1.320190 -2.537419 0
M  V30 60 H -1.098756 -2.960522 -2.213313 0
M  V30 61 H 0.715812 -2.569465 -0.551426 0
M  V30 END ATOM
M  V30 BEGIN BOND
M  V30 1 1 1 2
M  V30 2 2 2 3
M  V30 3 1 3 4
M  V30 4 2 4 5
M  V30 5 1 5 6
M  V30 6 2 6 7
M  V30 7 1 7 8
M  V30 8 2 8 9
M  V30 9 1 9 10
M  V30 10 2 10 11
M  V30 11 1 11 12
M  V30 12 2 12 13
M  V30 13 1 13 14
M  V30 14 2 14 15
M  V30 15 1 15 16
M  V30 16 2 16 17
M  V30 17 1 17 18
M  V30 18 2 18 19
M  V30 19 1 13 20
M  V30 20 2 20 21
M  V30 21 1 21 22
M  V30 22 1 22 23
M  V30 23 2 23 24
M  V30 24 1 24 25
M  V30 25 2 25 26
M  V30 26 1 26 27
M  V30 27 1 27 28
M  V30 28 1 28 29
M  V30 29 2 29 30
M  V30 30 1 29 31
M  V30 31 2 31 32
M  V30 32 1 32 33
M  V30 33 2 33 34
M  V30 34 1 34 35
M  V30 35 2 35 36
M  V30 36 1 26 37
M  V30 37 2 37 38
M  V30 38 1 7 2
M  V30 39 1 22 8
M  V30 40 1 38 23
M  V30 41 1 21 10
M  V30 42 1 36 31
M  V30 43 1 19 14
M  V30 44 1 1 39
M  V30 45 1 1 40
M  V30 46 1 4 41
M  V30 47 1 5 42
M  V30 48 1 6 43
M  V30 49 1 11 44
M  V30 50 1 12 45
M  V30 51 1 15 46
M  V30 52 1 16 47
M  V30 53 1 17 48
M  V30 54 1 19 49
M  V30 55 1 24 50
M  V30 56 1 25 51
M  V30 57 1 27 52
M  V30 58 1 27 53
M  V30 59 1 28 54
M  V30 60 1 32 55
M  V30 61 1 33 56
M  V30 62 1 34 57
M  V30 63 1 35 58
M  V30 64 1 36 59
M  V30 65 1 37 60
M  V30 66 1 38 61
M  V30 END BOND
M  V30 END CTAB
M  END
>  <Dataset>  (726) 
ChEMBL_Kinases

>  <Ligand_Instance>  (726) 
nan

>  <PDB_ID>  (726) 
nan

>  <Standardized_SMILES>  (726) 
Nc1ncccc1-c1nc2ccc(-c3cccnc3)nc2n1-c1ccc(CNC(=O)c2ccccc2)cc1

>  <Name>  (726) 
nan

>  <Pocket>  (726) 
nan

>  <ATP_Site>  (726) 
nan

>  <Peripheral>  (726) 
nan

>  <Num_H_Atoms_ProtBoundConf>  (726) 
nan

>  <Num_Resolved_Atoms>  (726) 
nan

>  <Num_Not_Resolved_Atoms>  (726) 
nan

$$$$
CHEMBL2177833
     RDKit          3D

  0  0  0  0  0  0  0  0  0  0999 V3000
M  V30 BEGIN CTAB
M  V30 COUNTS 61 66 0 0 0
M  V30 BEGIN ATOM
M  V30 1 N 1.723317 -2.495169 3.960786 0
M  V30 2 C 1.679080 -1.461459 4.902744 0
M  V30 3 N 2.319234 -1.885181 6.001290 0
M  V30 4 C 2.414066 -1.082115 7.078565 0
M  V30 5 C 1.820607 0.145517 6.942511 0
M  V30 6 C 1.176261 0.539437 5.802290 0
M  V30 7 C 1.069394 -0.269300 4.688703 0
M  V30 8 C 0.399338 0.227125 3.531935 0
M  V30 9 N -0.154856 1.442734 3.514965 0
M  V30 10 C -0.728913 1.750084 2.352487 0
M  V30 11 C -1.376806 2.929953 2.046885 0
M  V30 12 C -1.900185 3.017152 0.758408 0
M  V30 13 C -2.601916 4.228109 0.353026 0
M  V30 14 C -3.281606 4.862925 1.394314 0
M  V30 15 C -3.985910 6.028816 1.117120 0
M  V30 16 C -4.007138 6.542253 -0.167463 0
M  V30 17 N -3.333892 5.896850 -1.154918 0
M  V30 18 C -2.643063 4.765898 -0.916945 0
M  V30 19 C -1.714096 1.920389 -0.066586 0
M  V30 20 N -1.065071 0.809215 0.324978 0
M  V30 21 C -0.540749 0.657505 1.539286 0
M  V30 22 N 0.135512 -0.199288 2.313300 0
M  V30 23 C 0.443212 -1.399141 1.658632 0
M  V30 24 C 1.662402 -1.480398 0.975288 0
M  V30 25 C 1.945850 -2.644283 0.292907 0
M  V30 26 C 1.087756 -3.722851 0.254729 0
M  V30 27 C 1.311152 -5.008338 -0.451007 0
M  V30 28 N 0.809654 -5.011190 -1.809368 0
M  V30 29 C 1.391049 -4.408364 -2.950185 0
M  V30 30 O 2.487865 -3.792654 -2.740027 0
M  V30 31 C 0.818134 -4.459601 -4.287649 0
M  V30 32 C -0.337377 -5.081141 -4.632790 0
M  V30 33 C -0.866695 -5.118993 -5.916879 0
M  V30 34 C -0.173486 -4.480990 -6.918172 0
M  V30 35 C 1.003702 -3.834078 -6.628698 0
M  V30 36 F 1.760887 -3.176201 -7.541317 0
M  V30 37 C 1.487734 -3.829835 -5.316487 0
M  V30 38 C -0.113075 -3.582785 0.955344 0
M  V30 39 C -0.480369 -2.457701 1.664379 0
M  V30 40 H 1.789538 -3.248220 3.247570 0
M  V30 41 H 0.861009 -3.087588 4.141418 0
M  V30 42 H 2.893739 -1.290955 8.016284 0
M  V30 43 H 1.854986 0.834766 7.753145 0
M  V30 44 H 0.747277 1.539646 5.823051 0
M  V30 45 H -1.460606 3.714851 2.767713 0
M  V30 46 H -3.321217 4.537754 2.421266 0
M  V30 47 H -4.528817 6.549772 1.912601 0
M  V30 48 H -4.576313 7.454293 -0.312056 0
M  V30 49 H -2.099563 4.234007 -1.679649 0
M  V30 50 H -2.127599 2.000781 -1.072596 0
M  V30 51 H 2.364174 -0.659341 0.978770 0
M  V30 52 H 2.873911 -2.747209 -0.243535 0
M  V30 53 H 2.380756 -5.307026 -0.425426 0
M  V30 54 H 0.783544 -5.813125 0.118235 0
M  V30 55 H -0.099945 -5.514161 -2.016428 0
M  V30 56 H -0.904713 -5.591349 -3.872137 0
M  V30 57 H -1.776580 -5.614490 -6.163734 0
M  V30 58 H -0.502064 -4.451048 -7.959200 0
M  V30 59 H 2.431496 -3.310524 -5.089509 0
M  V30 60 H -0.833221 -4.388954 0.968886 0
M  V30 61 H -1.418609 -2.385403 2.194376 0
M  V30 END ATOM
M  V30 BEGIN BOND
M  V30 1 1 1 2
M  V30 2 2 2 3
M  V30 3 1 3 4
M  V30 4 2 4 5
M  V30 5 1 5 6
M  V30 6 2 6 7
M  V30 7 1 7 8
M  V30 8 2 8 9
M  V30 9 1 9 10
M  V30 10 2 10 11
M  V30 11 1 11 12
M  V30 12 1 12 13
M  V30 13 2 13 14
M  V30 14 1 14 15
M  V30 15 2 15 16
M  V30 16 1 16 17
M  V30 17 2 17 18
M  V30 18 2 12 19
M  V30 19 1 19 20
M  V30 20 2 20 21
M  V30 21 1 21 22
M  V30 22 1 22 23
M  V30 23 2 23 24
M  V30 24 1 24 25
M  V30 25 2 25 26
M  V30 26 1 26 27
M  V30 27 1 27 28
M  V30 28 1 28 29
M  V30 29 2 29 30
M  V30 30 1 29 31
M  V30 31 2 31 32
M  V30 32 1 32 33
M  V30 33 2 33 34
M  V30 34 1 34 35
M  V30 35 1 35 36
M  V30 36 2 35 37
M  V30 37 1 26 38
M  V30 38 2 38 39
M  V30 39 1 7 2
M  V30 40 1 22 8
M  V30 41 1 39 23
M  V30 42 1 21 10
M  V30 43 1 37 31
M  V30 44 1 18 13
M  V30 45 1 1 40
M  V30 46 1 1 41
M  V30 47 1 4 42
M  V30 48 1 5 43
M  V30 49 1 6 44
M  V30 50 1 11 45
M  V30 51 1 14 46
M  V30 52 1 15 47
M  V30 53 1 16 48
M  V30 54 1 18 49
M  V30 55 1 19 50
M  V30 56 1 24 51
M  V30 57 1 25 52
M  V30 58 1 27 53
M  V30 59 1 27 54
M  V30 60 1 28 55
M  V30 61 1 32 56
M  V30 62 1 33 57
M  V30 63 1 34 58
M  V30 64 1 37 59
M  V30 65 1 38 60
M  V30 66 1 39 61
M  V30 END BOND
M  V30 END CTAB
M  END
>  <Dataset>  (727) 
ChEMBL_Kinases

>  <Ligand_Instance>  (727) 
nan

>  <PDB_ID>  (727) 
nan

>  <Standardized_SMILES>  (727) 
Nc1ncccc1-c1nc2cc(-c3cccnc3)cnc2n1-c1ccc(CNC(=O)c2cccc(F)c2)cc1

>  <Name>  (727) 
nan

>  <Pocket>  (727) 
nan

>  <ATP_Site>  (727) 
nan

>  <Peripheral>  (727) 
nan

>  <Num_H_Atoms_ProtBoundConf>  (727) 
nan

>  <Num_Resolved_Atoms>  (727) 
nan

>  <Num_Not_Resolved_Atoms>  (727) 
nan

$$$$
CHEMBL2177834
     RDKit          3D

  0  0  0  0  0  0  0  0  0  0999 V3000
M  V30 BEGIN CTAB
M  V30 COUNTS 69 74 0 0 0
M  V30 BEGIN ATOM
M  V30 1 C 4.918643 -4.308376 3.647858 0
M  V30 2 C 5.274432 -3.795424 2.284802 0
M  V30 3 O 6.013345 -2.837144 1.944696 0
M  V30 4 N 4.629997 -4.574830 1.266333 0
M  V30 5 C 4.710817 -4.410476 -0.161303 0
M  V30 6 C 5.670126 -5.044216 -0.924086 0
M  V30 7 C 5.678252 -4.832871 -2.287502 0
M  V30 8 C 4.752457 -4.007339 -2.891512 0
M  V30 9 C 3.775677 -3.353126 -2.171302 0
M  V30 10 C 2.767624 -2.468054 -2.743987 0
M  V30 11 C 2.705968 -2.207648 -4.079146 0
M  V30 12 C 1.735978 -1.361235 -4.603439 0
M  V30 13 C 0.844656 -0.801737 -3.709614 0
M  V30 14 N -0.184182 0.039241 -3.909739 0
M  V30 15 C -0.786356 0.327882 -2.743812 0
M  V30 16 C -1.926685 1.209517 -2.650581 0
M  V30 17 C -2.617905 1.575285 -1.539592 0
M  V30 18 C -3.701095 2.426985 -1.547034 0
M  V30 19 C -4.144596 2.964210 -2.733693 0
M  V30 20 N -3.478175 2.617920 -3.844947 0
M  V30 21 C -2.407856 1.774109 -3.823422 0
M  V30 22 N -1.842572 1.537824 -5.125465 0
M  V30 23 N -0.097718 -0.359285 -1.825951 0
M  V30 24 C -0.343946 -0.386430 -0.429667 0
M  V30 25 C -1.190364 -1.321007 0.181474 0
M  V30 26 C -1.359120 -1.274721 1.549202 0
M  V30 27 C -0.732865 -0.348097 2.355287 0
M  V30 28 C -0.878352 -0.248985 3.829177 0
M  V30 29 N -1.947576 0.630152 4.175054 0
M  V30 30 C -3.335797 0.391963 4.122447 0
M  V30 31 O -3.739660 -0.721430 3.727838 0
M  V30 32 C -4.360741 1.357486 4.498042 0
M  V30 33 C -5.686361 0.991727 4.395565 0
M  V30 34 C -6.734930 1.838950 4.729106 0
M  V30 35 C -6.478912 3.112252 5.187583 0
M  V30 36 C -5.156805 3.505387 5.300030 0
M  V30 37 C -4.141451 2.637745 4.959899 0
M  V30 38 C 0.108682 0.577887 1.730709 0
M  V30 39 C 0.306541 0.567794 0.364323 0
M  V30 40 C 0.911977 -1.069054 -2.358835 0
M  V30 41 N 1.863128 -1.886812 -1.921818 0
M  V30 42 C 3.808550 -3.595828 -0.812996 0
M  V30 43 H 5.380914 -3.610569 4.372613 0
M  V30 44 H 3.811213 -4.198070 3.792393 0
M  V30 45 H 5.207122 -5.359475 3.791690 0
M  V30 46 H 3.986964 -5.402443 1.414226 0
M  V30 47 H 6.383069 -5.685437 -0.424553 0
M  V30 48 H 6.438288 -5.337573 -2.874757 0
M  V30 49 H 4.783219 -3.860334 -3.962244 0
M  V30 50 H 3.384556 -2.630350 -4.779017 0
M  V30 51 H 1.688445 -1.153617 -5.676088 0
M  V30 52 H -2.318395 1.190679 -0.600414 0
M  V30 53 H -4.206800 2.675545 -0.616433 0
M  V30 54 H -4.993650 3.627483 -2.712237 0
M  V30 55 H -1.217143 1.956793 -5.819526 0
M  V30 56 H -1.197079 2.286751 -5.494441 0
M  V30 57 H -1.680781 -2.042572 -0.428504 0
M  V30 58 H -2.009477 -1.994135 2.026431 0
M  V30 59 H 0.055697 0.094065 4.314852 0
M  V30 60 H -1.089679 -1.290751 4.172152 0
M  V30 61 H -1.707524 1.605899 4.523460 0
M  V30 62 H -6.011332 0.006669 4.043610 0
M  V30 63 H -7.778018 1.572196 4.656113 0
M  V30 64 H -7.184615 3.876698 5.483103 0
M  V30 65 H -4.866317 4.496852 5.654782 0
M  V30 66 H -3.115403 2.962468 5.054642 0
M  V30 67 H 0.638927 1.337403 2.280027 0
M  V30 68 H 0.968592 1.301058 -0.101085 0
M  V30 69 H 3.055215 -3.101202 -0.196457 0
M  V30 END ATOM
M  V30 BEGIN BOND
M  V30 1 1 1 2
M  V30 2 2 2 3
M  V30 3 1 2 4
M  V30 4 1 4 5
M  V30 5 2 5 6
M  V30 6 1 6 7
M  V30 7 2 7 8
M  V30 8 1 8 9
M  V30 9 1 9 10
M  V30 10 2 10 11
M  V30 11 1 11 12
M  V30 12 2 12 13
M  V30 13 1 13 14
M  V30 14 2 14 15
M  V30 15 1 15 16
M  V30 16 2 16 17
M  V30 17 1 17 18
M  V30 18 2 18 19
M  V30 19 1 19 20
M  V30 20 2 20 21
M  V30 21 1 21 22
M  V30 22 1 15 23
M  V30 23 1 23 24
M  V30 24 2 24 25
M  V30 25 1 25 26
M  V30 26 2 26 27
M  V30 27 1 27 28
M  V30 28 1 28 29
M  V30 29 1 29 30
M  V30 30 2 30 31
M  V30 31 1 30 32
M  V30 32 2 32 33
M  V30 33 1 33 34
M  V30 34 2 34 35
M  V30 35 1 35 36
M  V30 36 2 36 37
M  V30 37 1 27 38
M  V30 38 2 38 39
M  V30 39 1 23 40
M  V30 40 2 40 41
M  V30 41 2 9 42
M  V30 42 1 42 5
M  V30 43 1 41 10
M  V30 44 1 40 13
M  V30 45 1 21 16
M  V30 46 1 39 24
M  V30 47 1 37 32
M  V30 48 1 1 43
M  V30 49 1 1 44
M  V30 50 1 1 45
M  V30 51 1 4 46
M  V30 52 1 6 47
M  V30 53 1 7 48
M  V30 54 1 8 49
M  V30 55 1 11 50
M  V30 56 1 12 51
M  V30 57 1 17 52
M  V30 58 1 18 53
M  V30 59 1 19 54
M  V30 60 1 22 55
M  V30 61 1 22 56
M  V30 62 1 25 57
M  V30 63 1 26 58
M  V30 64 1 28 59
M  V30 65 1 28 60
M  V30 66 1 29 61
M  V30 67 1 33 62
M  V30 68 1 34 63
M  V30 69 1 35 64
M  V30 70 1 36 65
M  V30 71 1 37 66
M  V30 72 1 38 67
M  V30 73 1 39 68
M  V30 74 1 42 69
M  V30 END BOND
M  V30 END CTAB
M  END
>  <Dataset>  (728) 
ChEMBL_Kinases

>  <Ligand_Instance>  (728) 
nan

>  <PDB_ID>  (728) 
nan

>  <Standardized_SMILES>  (728) 
CC(=O)Nc1cccc(-c2ccc3nc(-c4cccnc4N)n(-c4ccc(CNC(=O)c5ccccc5)cc4)c3n2)c1

>  <Name>  (728) 
nan

>  <Pocket>  (728) 
nan

>  <ATP_Site>  (728) 
nan

>  <Peripheral>  (728) 
nan

>  <Num_H_Atoms_ProtBoundConf>  (728) 
nan

>  <Num_Resolved_Atoms>  (728) 
nan

>  <Num_Not_Resolved_Atoms>  (728) 
nan

$$$$
CHEMBL2177835
     RDKit          3D

  0  0  0  0  0  0  0  0  0  0999 V3000
M  V30 BEGIN CTAB
M  V30 COUNTS 62 67 0 0 0
M  V30 BEGIN ATOM
M  V30 1 N 1.762504 -1.550498 4.558045 0
M  V30 2 C 1.978476 -0.425794 5.358429 0
M  V30 3 N 2.560392 -0.756216 6.518443 0
M  V30 4 C 2.860580 0.166930 7.448097 0
M  V30 5 C 2.518674 1.447773 7.096187 0
M  V30 6 C 1.923582 1.759221 5.901961 0
M  V30 7 C 1.615323 0.815878 4.948251 0
M  V30 8 C 1.000653 1.270282 3.739704 0
M  V30 9 N 0.704556 2.551210 3.495553 0
M  V30 10 C 0.140326 2.753254 2.310252 0
M  V30 11 C -0.275242 3.955051 1.777833 0
M  V30 12 C -0.837838 3.900933 0.515829 0
M  V30 13 C -0.932589 2.669806 -0.090440 0
M  V30 14 C -1.510730 2.508059 -1.419210 0
M  V30 15 C -1.583403 1.251257 -1.985642 0
M  V30 16 C -2.133372 1.068083 -3.254056 0
M  V30 17 C -2.620952 2.131574 -3.981991 0
M  V30 18 C -2.559346 3.396934 -3.437285 0
M  V30 19 C -2.008933 3.539977 -2.180674 0
M  V30 20 N -0.496026 1.547549 0.513525 0
M  V30 21 C 0.061407 1.505419 1.733552 0
M  V30 22 N 0.591273 0.669731 2.638766 0
M  V30 23 C 0.589111 -0.662780 2.195920 0
M  V30 24 C 1.720818 -1.045007 1.471094 0
M  V30 25 C 1.859759 -2.301079 0.921848 0
M  V30 26 C 0.818939 -3.218643 1.105422 0
M  V30 27 C 1.003304 -4.567085 0.501511 0
M  V30 28 N 0.493926 -4.515118 -0.855283 0
M  V30 29 C -0.844483 -4.532052 -1.313665 0
M  V30 30 O -1.762945 -4.601400 -0.473268 0
M  V30 31 C -1.219431 -4.473089 -2.715659 0
M  V30 32 C -2.570104 -4.491417 -3.024243 0
M  V30 33 C -2.993974 -4.437448 -4.356928 0
M  V30 34 C -2.111694 -4.365137 -5.403937 0
M  V30 35 C -0.754412 -4.346681 -5.095209 0
M  V30 36 C -0.361558 -4.400999 -3.768782 0
M  V30 37 C -0.306802 -2.855391 1.820329 0
M  V30 38 C -0.446895 -1.600360 2.369637 0
M  V30 39 H 0.950339 -2.114466 4.945025 0
M  V30 40 H 0.963796 -2.112547 4.931778 0
M  V30 41 H 3.323448 -0.001755 8.399001 0
M  V30 42 H 2.726293 2.239806 7.784094 0
M  V30 43 H 1.706726 2.833132 5.756793 0
M  V30 44 H -0.157086 4.873917 2.334452 0
M  V30 45 H -1.181802 4.808329 0.046730 0
M  V30 46 H -1.217445 0.390044 -1.459441 0
M  V30 47 H -2.164978 0.051630 -3.653066 0
M  V30 48 H -3.053823 1.997872 -4.976120 0
M  V30 49 H -2.936222 4.266139 -3.984255 0
M  V30 50 H -1.980872 4.546523 -1.793790 0
M  V30 51 H 2.566520 -0.365570 1.296496 0
M  V30 52 H 2.728366 -2.584412 0.369088 0
M  V30 53 H 2.073720 -4.801110 0.507950 0
M  V30 54 H 0.430006 -5.338882 1.098916 0
M  V30 55 H 1.203941 -4.455280 -1.629702 0
M  V30 56 H -3.354271 -4.546421 -2.281632 0
M  V30 57 H -4.058044 -4.452319 -4.593030 0
M  V30 58 H -2.488089 -4.325716 -6.411576 0
M  V30 59 H -0.034741 -4.290295 -5.902566 0
M  V30 60 H 0.687745 -4.384186 -3.586885 0
M  V30 61 H -1.108283 -3.563456 1.964678 0
M  V30 62 H -1.299298 -1.255943 2.936858 0
M  V30 END ATOM
M  V30 BEGIN BOND
M  V30 1 1 1 2
M  V30 2 2 2 3
M  V30 3 1 3 4
M  V30 4 2 4 5
M  V30 5 1 5 6
M  V30 6 2 6 7
M  V30 7 1 7 8
M  V30 8 2 8 9
M  V30 9 1 9 10
M  V30 10 2 10 11
M  V30 11 1 11 12
M  V30 12 2 12 13
M  V30 13 1 13 14
M  V30 14 2 14 15
M  V30 15 1 15 16
M  V30 16 2 16 17
M  V30 17 1 17 18
M  V30 18 2 18 19
M  V30 19 1 13 20
M  V30 20 2 20 21
M  V30 21 1 21 22
M  V30 22 1 22 23
M  V30 23 2 23 24
M  V30 24 1 24 25
M  V30 25 2 25 26
M  V30 26 1 26 27
M  V30 27 1 27 28
M  V30 28 1 28 29
M  V30 29 2 29 30
M  V30 30 1 29 31
M  V30 31 2 31 32
M  V30 32 1 32 33
M  V30 33 2 33 34
M  V30 34 1 34 35
M  V30 35 2 35 36
M  V30 36 1 26 37
M  V30 37 2 37 38
M  V30 38 1 7 2
M  V30 39 1 22 8
M  V30 40 1 38 23
M  V30 41 1 21 10
M  V30 42 1 36 31
M  V30 43 1 19 14
M  V30 44 1 1 39
M  V30 45 1 1 40
M  V30 46 1 4 41
M  V30 47 1 5 42
M  V30 48 1 6 43
M  V30 49 1 11 44
M  V30 50 1 12 45
M  V30 51 1 15 46
M  V30 52 1 16 47
M  V30 53 1 17 48
M  V30 54 1 18 49
M  V30 55 1 19 50
M  V30 56 1 24 51
M  V30 57 1 25 52
M  V30 58 1 27 53
M  V30 59 1 27 54
M  V30 60 1 28 55
M  V30 61 1 32 56
M  V30 62 1 33 57
M  V30 63 1 34 58
M  V30 64 1 35 59
M  V30 65 1 36 60
M  V30 66 1 37 61
M  V30 67 1 38 62
M  V30 END BOND
M  V30 END CTAB
M  END
>  <Dataset>  (729) 
ChEMBL_Kinases

>  <Ligand_Instance>  (729) 
nan

>  <PDB_ID>  (729) 
nan

>  <Standardized_SMILES>  (729) 
Nc1ncccc1-c1nc2ccc(-c3ccccc3)nc2n1-c1ccc(CNC(=O)c2ccccc2)cc1

>  <Name>  (729) 
nan

>  <Pocket>  (729) 
nan

>  <ATP_Site>  (729) 
nan

>  <Peripheral>  (729) 
nan

>  <Num_H_Atoms_ProtBoundConf>  (729) 
nan

>  <Num_Resolved_Atoms>  (729) 
nan

>  <Num_Not_Resolved_Atoms>  (729) 
nan

$$$$
CHEMBL2177836
     RDKit          3D

  0  0  0  0  0  0  0  0  0  0999 V3000
M  V30 BEGIN CTAB
M  V30 COUNTS 69 74 0 0 0
M  V30 BEGIN ATOM
M  V30 1 C 4.997640 0.957956 -0.550923 0
M  V30 2 C 3.684047 1.464917 -0.964266 0
M  V30 3 O 2.696628 0.698607 -0.847325 0
M  V30 4 N 3.420558 2.755528 -1.490578 0
M  V30 5 C 2.232683 3.372518 -1.924350 0
M  V30 6 C 2.304238 4.664585 -2.390969 0
M  V30 7 C 1.187270 5.332131 -2.833432 0
M  V30 8 C -0.048684 4.725679 -2.824325 0
M  V30 9 C -0.177332 3.438798 -2.369630 0
M  V30 10 C -1.447514 2.725015 -2.330884 0
M  V30 11 C -2.614549 3.314211 -2.763617 0
M  V30 12 C -3.835186 2.637992 -2.734694 0
M  V30 13 C -3.767757 1.335312 -2.237017 0
M  V30 14 N -4.773121 0.459473 -2.095364 0
M  V30 15 C -4.320756 -0.695819 -1.582770 0
M  V30 16 C -5.212114 -1.807661 -1.334223 0
M  V30 17 C -4.891124 -3.038641 -0.818627 0
M  V30 18 C -5.798725 -4.049416 -0.611274 0
M  V30 19 C -7.108431 -3.857171 -0.924222 0
M  V30 20 N -7.458905 -2.668662 -1.429614 0
M  V30 21 C -6.553083 -1.689781 -1.625375 0
M  V30 22 N -7.089948 -0.499340 -2.165532 0
M  V30 23 N -3.009209 -0.504669 -1.413529 0
M  V30 24 C -2.099695 -1.458039 -0.889629 0
M  V30 25 C -1.335103 -2.415613 -1.568252 0
M  V30 26 C -0.504544 -3.239653 -0.837602 0
M  V30 27 C -0.396646 -3.158672 0.535330 0
M  V30 28 C 0.550725 -4.144086 1.117630 0
M  V30 29 N 1.900303 -3.621331 1.185624 0
M  V30 30 C 2.423502 -2.690871 2.115755 0
M  V30 31 O 1.618211 -2.263912 2.992268 0
M  V30 32 C 3.804473 -2.236435 2.086073 0
M  V30 33 C 4.766134 -2.632427 1.188980 0
M  V30 34 C 6.067954 -2.124812 1.258785 0
M  V30 35 C 6.435155 -1.212431 2.224703 0
M  V30 36 C 5.490783 -0.795102 3.140598 0
M  V30 37 F 5.797389 0.092930 4.101766 0
M  V30 38 C 4.221208 -1.321409 3.034138 0
M  V30 39 C -1.151679 -2.213809 1.197301 0
M  V30 40 C -1.994957 -1.369796 0.504903 0
M  V30 41 C -2.615781 0.721227 -1.797707 0
M  V30 42 N -1.495146 1.460723 -1.868484 0
M  V30 43 C 0.976079 2.817830 -1.938050 0
M  V30 44 H 5.757843 1.754820 -0.429874 0
M  V30 45 H 4.871525 0.403147 0.377912 0
M  V30 46 H 5.339515 0.226353 -1.339685 0
M  V30 47 H 4.330587 3.304168 -1.539348 0
M  V30 48 H 3.256604 5.191221 -2.419953 0
M  V30 49 H 1.301069 6.344246 -3.189009 0
M  V30 50 H -0.897873 5.286797 -3.180390 0
M  V30 51 H -2.657750 4.313902 -3.143502 0
M  V30 52 H -4.767337 3.067437 -3.064858 0
M  V30 53 H -3.874141 -3.241131 -0.556695 0
M  V30 54 H -5.472490 -4.996972 -0.199652 0
M  V30 55 H -7.821738 -4.659212 -0.758539 0
M  V30 56 H -7.735474 0.313307 -2.118798 0
M  V30 57 H -7.773695 0.271263 -2.014747 0
M  V30 58 H -1.494545 -2.393760 -2.630857 0
M  V30 59 H 0.040512 -3.945722 -1.476613 0
M  V30 60 H 0.523446 -5.105345 0.567724 0
M  V30 61 H 0.182007 -4.370041 2.148576 0
M  V30 62 H 2.564062 -3.976781 0.458550 0
M  V30 63 H 4.490703 -3.341409 0.434503 0
M  V30 64 H 6.801184 -2.473145 0.517404 0
M  V30 65 H 7.428329 -0.810233 2.296821 0
M  V30 66 H 3.504101 -0.972398 3.769178 0
M  V30 67 H -1.023047 -2.202392 2.270674 0
M  V30 68 H -2.529272 -0.676721 1.137211 0
M  V30 69 H 0.858498 1.806723 -1.583510 0
M  V30 END ATOM
M  V30 BEGIN BOND
M  V30 1 1 1 2
M  V30 2 2 2 3
M  V30 3 1 2 4
M  V30 4 1 4 5
M  V30 5 2 5 6
M  V30 6 1 6 7
M  V30 7 2 7 8
M  V30 8 1 8 9
M  V30 9 1 9 10
M  V30 10 2 10 11
M  V30 11 1 11 12
M  V30 12 2 12 13
M  V30 13 1 13 14
M  V30 14 2 14 15
M  V30 15 1 15 16
M  V30 16 2 16 17
M  V30 17 1 17 18
M  V30 18 2 18 19
M  V30 19 1 19 20
M  V30 20 2 20 21
M  V30 21 1 21 22
M  V30 22 1 15 23
M  V30 23 1 23 24
M  V30 24 2 24 25
M  V30 25 1 25 26
M  V30 26 2 26 27
M  V30 27 1 27 28
M  V30 28 1 28 29
M  V30 29 1 29 30
M  V30 30 2 30 31
M  V30 31 1 30 32
M  V30 32 2 32 33
M  V30 33 1 33 34
M  V30 34 2 34 35
M  V30 35 1 35 36
M  V30 36 1 36 37
M  V30 37 2 36 38
M  V30 38 1 27 39
M  V30 39 2 39 40
M  V30 40 1 23 41
M  V30 41 2 41 42
M  V30 42 2 9 43
M  V30 43 1 43 5
M  V30 44 1 42 10
M  V30 45 1 41 13
M  V30 46 1 21 16
M  V30 47 1 40 24
M  V30 48 1 38 32
M  V30 49 1 1 44
M  V30 50 1 1 45
M  V30 51 1 1 46
M  V30 52 1 4 47
M  V30 53 1 6 48
M  V30 54 1 7 49
M  V30 55 1 8 50
M  V30 56 1 11 51
M  V30 57 1 12 52
M  V30 58 1 17 53
M  V30 59 1 18 54
M  V30 60 1 19 55
M  V30 61 1 22 56
M  V30 62 1 22 57
M  V30 63 1 25 58
M  V30 64 1 26 59
M  V30 65 1 28 60
M  V30 66 1 28 61
M  V30 67 1 29 62
M  V30 68 1 33 63
M  V30 69 1 34 64
M  V30 70 1 35 65
M  V30 71 1 38 66
M  V30 72 1 39 67
M  V30 73 1 40 68
M  V30 74 1 43 69
M  V30 END BOND
M  V30 END CTAB
M  END
>  <Dataset>  (730) 
ChEMBL_Kinases

>  <Ligand_Instance>  (730) 
nan

>  <PDB_ID>  (730) 
nan

>  <Standardized_SMILES>  (730) 
CC(=O)Nc1cccc(-c2ccc3nc(-c4cccnc4N)n(-c4ccc(CNC(=O)c5cccc(F)c5)cc4)c3n2)c1

>  <Name>  (730) 
nan

>  <Pocket>  (730) 
nan

>  <ATP_Site>  (730) 
nan

>  <Peripheral>  (730) 
nan

>  <Num_H_Atoms_ProtBoundConf>  (730) 
nan

>  <Num_Resolved_Atoms>  (730) 
nan

>  <Num_Not_Resolved_Atoms>  (730) 
nan

$$$$
CHEMBL2177837
     RDKit          3D

  0  0  0  0  0  0  0  0  0  0999 V3000
M  V30 BEGIN CTAB
M  V30 COUNTS 61 66 0 0 0
M  V30 BEGIN ATOM
M  V30 1 N 1.864595 1.712432 4.946080 0
M  V30 2 C 2.285990 0.613813 4.113527 0
M  V30 3 N 3.454750 0.045864 4.475644 0
M  V30 4 C 3.989533 -0.988941 3.806965 0
M  V30 5 C 3.309408 -1.464218 2.728867 0
M  V30 6 C 2.118060 -0.868593 2.378027 0
M  V30 7 C 1.530142 0.182105 3.019385 0
M  V30 8 C 0.305774 0.851207 2.718051 0
M  V30 9 N -0.151937 1.883403 3.447977 0
M  V30 10 C -1.316139 2.326564 2.950226 0
M  V30 11 C -2.176374 3.339219 3.319453 0
M  V30 12 C -3.340829 3.593227 2.616214 0
M  V30 13 C -3.618119 2.798813 1.528093 0
M  V30 14 C -4.806502 2.959294 0.701766 0
M  V30 15 C -5.004536 2.119122 -0.369524 0
M  V30 16 C -6.135743 2.293065 -1.136923 0
M  V30 17 C -7.118241 3.267306 -0.917646 0
M  V30 18 N -6.838118 4.033250 0.142849 0
M  V30 19 C -5.763505 3.922282 0.930402 0
M  V30 20 N -2.762672 1.797603 1.167219 0
M  V30 21 C -1.631591 1.555035 1.854565 0
M  V30 22 N -0.612695 0.675256 1.759208 0
M  V30 23 C -0.586198 -0.292906 0.732645 0
M  V30 24 C -1.109027 -1.571164 0.709042 0
M  V30 25 C -1.012544 -2.395545 -0.365978 0
M  V30 26 C -0.371139 -1.976231 -1.506267 0
M  V30 27 C -0.179289 -2.761349 -2.753221 0
M  V30 28 N 1.057777 -3.488059 -2.711309 0
M  V30 29 C 1.365729 -4.680081 -2.003706 0
M  V30 30 O 0.426751 -5.162939 -1.324711 0
M  V30 31 C 2.674510 -5.315765 -2.048511 0
M  V30 32 C 3.768056 -4.879532 -2.731390 0
M  V30 33 C 5.006504 -5.474314 -2.778080 0
M  V30 34 C 5.167010 -6.657264 -2.046652 0
M  V30 35 C 4.096785 -7.140037 -1.341275 0
M  V30 36 F 4.202079 -8.281978 -0.617965 0
M  V30 37 C 2.858014 -6.494188 -1.328268 0
M  V30 38 C 0.173087 -0.690467 -1.527905 0
M  V30 39 C 0.073267 0.157653 -0.420962 0
M  V30 40 H 2.249216 2.666292 5.177493 0
M  V30 41 H 1.072707 1.970955 5.595292 0
M  V30 42 H 4.923232 -1.448878 4.090274 0
M  V30 43 H 3.692560 -2.304252 2.144336 0
M  V30 44 H 1.614155 -1.277648 1.520184 0
M  V30 45 H -1.959074 3.966586 4.178158 0
M  V30 46 H -4.016092 4.386179 2.904424 0
M  V30 47 H -4.309775 1.343419 -0.616440 0
M  V30 48 H -6.278341 1.611181 -1.990669 0
M  V30 49 H -7.983102 3.351428 -1.556750 0
M  V30 50 H -5.666897 4.609332 1.751015 0
M  V30 51 H -1.601019 -1.846090 1.630662 0
M  V30 52 H -1.422027 -3.376496 -0.367319 0
M  V30 53 H -0.220310 -2.107655 -3.634929 0
M  V30 54 H -1.069073 -3.450794 -2.801612 0
M  V30 55 H 1.858806 -3.090323 -3.283008 0
M  V30 56 H 3.674175 -3.968557 -3.304981 0
M  V30 57 H 5.822806 -5.030244 -3.366954 0
M  V30 58 H 6.133691 -7.147060 -2.066129 0
M  V30 59 H 2.045545 -6.906863 -0.761969 0
M  V30 60 H 0.690911 -0.310251 -2.407213 0
M  V30 61 H 0.527469 1.156182 -0.514349 0
M  V30 END ATOM
M  V30 BEGIN BOND
M  V30 1 1 1 2
M  V30 2 2 2 3
M  V30 3 1 3 4
M  V30 4 2 4 5
M  V30 5 1 5 6
M  V30 6 2 6 7
M  V30 7 1 7 8
M  V30 8 2 8 9
M  V30 9 1 9 10
M  V30 10 2 10 11
M  V30 11 1 11 12
M  V30 12 2 12 13
M  V30 13 1 13 14
M  V30 14 2 14 15
M  V30 15 1 15 16
M  V30 16 2 16 17
M  V30 17 1 17 18
M  V30 18 2 18 19
M  V30 19 1 13 20
M  V30 20 2 20 21
M  V30 21 1 21 22
M  V30 22 1 22 23
M  V30 23 2 23 24
M  V30 24 1 24 25
M  V30 25 2 25 26
M  V30 26 1 26 27
M  V30 27 1 27 28
M  V30 28 1 28 29
M  V30 29 2 29 30
M  V30 30 1 29 31
M  V30 31 2 31 32
M  V30 32 1 32 33
M  V30 33 2 33 34
M  V30 34 1 34 35
M  V30 35 1 35 36
M  V30 36 2 35 37
M  V30 37 1 26 38
M  V30 38 2 38 39
M  V30 39 1 7 2
M  V30 40 1 22 8
M  V30 41 1 39 23
M  V30 42 1 21 10
M  V30 43 1 37 31
M  V30 44 1 19 14
M  V30 45 1 1 40
M  V30 46 1 1 41
M  V30 47 1 4 42
M  V30 48 1 5 43
M  V30 49 1 6 44
M  V30 50 1 11 45
M  V30 51 1 12 46
M  V30 52 1 15 47
M  V30 53 1 16 48
M  V30 54 1 17 49
M  V30 55 1 19 50
M  V30 56 1 24 51
M  V30 57 1 25 52
M  V30 58 1 27 53
M  V30 59 1 27 54
M  V30 60 1 28 55
M  V30 61 1 32 56
M  V30 62 1 33 57
M  V30 63 1 34 58
M  V30 64 1 37 59
M  V30 65 1 38 60
M  V30 66 1 39 61
M  V30 END BOND
M  V30 END CTAB
M  END
>  <Dataset>  (731) 
ChEMBL_Kinases

>  <Ligand_Instance>  (731) 
nan

>  <PDB_ID>  (731) 
nan

>  <Standardized_SMILES>  (731) 
Nc1ncccc1-c1nc2ccc(-c3cccnc3)nc2n1-c1ccc(CNC(=O)c2cccc(F)c2)cc1

>  <Name>  (731) 
nan

>  <Pocket>  (731) 
nan

>  <ATP_Site>  (731) 
nan

>  <Peripheral>  (731) 
nan

>  <Num_H_Atoms_ProtBoundConf>  (731) 
nan

>  <Num_Resolved_Atoms>  (731) 
nan

>  <Num_Not_Resolved_Atoms>  (731) 
nan

$$$$
CHEMBL2177840
     RDKit          3D

  0  0  0  0  0  0  0  0  0  0999 V3000
M  V30 BEGIN CTAB
M  V30 COUNTS 47 50 0 0 0
M  V30 BEGIN ATOM
M  V30 1 C 1.841737 -3.442874 4.157527 0
M  V30 2 C 1.065709 -2.157889 4.278049 0
M  V30 3 C -0.108822 -2.423476 5.194266 0
M  V30 4 C 1.927179 -1.129682 4.998490 0
M  V30 5 C 0.619109 -1.673350 2.967996 0
M  V30 6 C 0.906304 -2.355478 1.804685 0
M  V30 7 C 0.497631 -1.919802 0.564312 0
M  V30 8 C -0.244050 -0.736745 0.437060 0
M  V30 9 N -0.815490 -0.124661 -0.688702 0
M  V30 10 C -0.422364 0.772928 -1.571709 0
M  V30 11 C 0.785404 1.510917 -1.747281 0
M  V30 12 C 0.832434 2.389836 -2.808845 0
M  V30 13 C 1.937257 3.155583 -3.077497 0
M  V30 14 C 3.084724 3.121346 -2.327231 0
M  V30 15 N 3.040340 2.264524 -1.291482 0
M  V30 16 C 1.950681 1.525241 -1.046341 0
M  V30 17 N 2.136974 0.717676 0.067422 0
M  V30 18 N -1.485966 0.885298 -2.370710 0
M  V30 19 C -2.502900 0.101612 -2.016712 0
M  V30 20 C -3.719952 0.014169 -2.660070 0
M  V30 21 C -4.633420 -0.880037 -2.103414 0
M  V30 22 C -4.217754 -1.568031 -0.983056 0
M  V30 23 N -3.005472 -1.416186 -0.423452 0
M  V30 24 C -2.072870 -0.576547 -0.899809 0
M  V30 25 C -0.520107 -0.065029 1.642096 0
M  V30 26 C -0.108801 -0.505009 2.882349 0
M  V30 27 H 2.336098 -3.665660 5.137756 0
M  V30 28 H 2.678973 -3.368300 3.433170 0
M  V30 29 H 1.198143 -4.299309 3.899133 0
M  V30 30 H -0.982601 -2.843335 4.686751 0
M  V30 31 H -0.404435 -1.437129 5.627735 0
M  V30 32 H 0.163812 -3.079997 6.043634 0
M  V30 33 H 2.465919 -0.491634 4.260093 0
M  V30 34 H 1.328326 -0.440929 5.617668 0
M  V30 35 H 2.645779 -1.645132 5.694657 0
M  V30 36 H 1.462269 -3.261356 1.796946 0
M  V30 37 H 0.669144 -2.375844 -0.393727 0
M  V30 38 H -0.009124 2.530962 -3.503072 0
M  V30 39 H 1.900721 3.819593 -3.923804 0
M  V30 40 H 3.898155 3.751838 -2.607770 0
M  V30 41 H 1.810914 1.344777 0.860258 0
M  V30 42 H 2.525884 -0.167385 -0.362438 0
M  V30 43 H -3.938705 0.605103 -3.536826 0
M  V30 44 H -5.606729 -1.005692 -2.548006 0
M  V30 45 H -4.901976 -2.286815 -0.504637 0
M  V30 46 H -1.092725 0.873683 1.680874 0
M  V30 47 H -0.325272 0.013957 3.785262 0
M  V30 END ATOM
M  V30 BEGIN BOND
M  V30 1 1 1 2
M  V30 2 1 2 3
M  V30 3 1 2 4
M  V30 4 1 2 5
M  V30 5 2 5 6
M  V30 6 1 6 7
M  V30 7 2 7 8
M  V30 8 1 8 9
M  V30 9 1 9 10
M  V30 10 1 10 11
M  V30 11 2 11 12
M  V30 12 1 12 13
M  V30 13 2 13 14
M  V30 14 1 14 15
M  V30 15 2 15 16
M  V30 16 1 16 17
M  V30 17 2 10 18
M  V30 18 1 18 19
M  V30 19 2 19 20
M  V30 20 1 20 21
M  V30 21 2 21 22
M  V30 22 1 22 23
M  V30 23 2 23 24
M  V30 24 1 8 25
M  V30 25 2 25 26
M  V30 26 1 26 5
M  V30 27 1 24 9
M  V30 28 1 16 11
M  V30 29 1 24 19
M  V30 30 1 1 27
M  V30 31 1 1 28
M  V30 32 1 1 29
M  V30 33 1 3 30
M  V30 34 1 3 31
M  V30 35 1 3 32
M  V30 36 1 4 33
M  V30 37 1 4 34
M  V30 38 1 4 35
M  V30 39 1 6 36
M  V30 40 1 7 37
M  V30 41 1 12 38
M  V30 42 1 13 39
M  V30 43 1 14 40
M  V30 44 1 17 41
M  V30 45 1 17 42
M  V30 46 1 20 43
M  V30 47 1 21 44
M  V30 48 1 22 45
M  V30 49 1 25 46
M  V30 50 1 26 47
M  V30 END BOND
M  V30 END CTAB
M  END
>  <Dataset>  (732) 
ChEMBL_Kinases

>  <Ligand_Instance>  (732) 
nan

>  <PDB_ID>  (732) 
nan

>  <Standardized_SMILES>  (732) 
CC(C)(C)c1ccc(-n2c(-c3cccnc3N)nc3cccnc32)cc1

>  <Name>  (732) 
nan

>  <Pocket>  (732) 
nan

>  <ATP_Site>  (732) 
nan

>  <Peripheral>  (732) 
nan

>  <Num_H_Atoms_ProtBoundConf>  (732) 
nan

>  <Num_Resolved_Atoms>  (732) 
nan

>  <Num_Not_Resolved_Atoms>  (732) 
nan

$$$$
CHEMBL2178123
     RDKit          3D

  0  0  0  0  0  0  0  0  0  0999 V3000
M  V30 BEGIN CTAB
M  V30 COUNTS 45 47 0 0 0
M  V30 BEGIN ATOM
M  V30 1 C 2.737775 -2.693041 3.171685 0
M  V30 2 O 1.373626 -2.558413 2.743201 0
M  V30 3 C 1.072965 -1.715507 1.703629 0
M  V30 4 C 1.892765 -0.923977 0.926885 0
M  V30 5 C 1.352473 -0.157726 -0.070836 0
M  V30 6 C 2.275799 0.648120 -0.856889 0
M  V30 7 O 2.268295 -0.023697 -1.948390 0
M  V30 8 N 3.159510 1.691715 -1.160276 0
M  V30 9 C 3.632039 1.511662 -2.524924 0
M  V30 10 C 4.304772 2.815434 -2.905756 0
M  V30 11 O 3.858692 3.871756 -2.117117 0
M  V30 12 C 4.265507 3.763656 -0.799094 0
M  V30 13 C 3.421901 2.691794 -0.142546 0
M  V30 14 C -0.018695 -0.094395 -0.398697 0
M  V30 15 C -0.834547 -0.895819 0.391261 0
M  V30 16 C -0.283334 -1.659665 1.387893 0
M  V30 17 N -1.237983 -2.407874 2.130632 0
M  V30 18 C -2.640644 -2.550078 1.973886 0
M  V30 19 N -3.024928 -2.734283 0.691339 0
M  V30 20 C -4.300628 -2.877651 0.306990 0
M  V30 21 C -5.266766 -2.830488 1.299308 0
M  V30 22 Br -7.083729 -3.032596 0.767184 0
M  V30 23 C -4.890169 -2.643330 2.605147 0
M  V30 24 O -5.907742 -2.604861 3.523641 0
M  V30 25 C -5.664939 -2.418373 4.898651 0
M  V30 26 N -3.569877 -2.506163 2.917988 0
M  V30 27 H 3.431156 -2.749723 2.325046 0
M  V30 28 H 3.005562 -1.794347 3.771503 0
M  V30 29 H 2.809553 -3.613393 3.797753 0
M  V30 30 H 2.920348 -0.977172 1.179317 0
M  V30 31 H 4.354275 0.694057 -2.598282 0
M  V30 32 H 2.782655 1.299434 -3.211978 0
M  V30 33 H 3.972585 3.060704 -3.938617 0
M  V30 34 H 5.383039 2.668950 -2.923772 0
M  V30 35 H 4.102273 4.754989 -0.334443 0
M  V30 36 H 5.333696 3.520227 -0.678641 0
M  V30 37 H 2.435092 3.204169 0.075801 0
M  V30 38 H 3.891984 2.292113 0.776173 0
M  V30 39 H -0.296592 0.553869 -1.210475 0
M  V30 40 H -1.861327 -0.794298 0.094513 0
M  V30 41 H -0.939938 -3.007558 2.951739 0
M  V30 42 H -4.581182 -3.026069 -0.743945 0
M  V30 43 H -4.755528 -2.968101 5.233850 0
M  V30 44 H -6.520096 -2.822484 5.492825 0
M  V30 45 H -5.530860 -1.334572 5.146986 0
M  V30 END ATOM
M  V30 BEGIN BOND
M  V30 1 1 1 2
M  V30 2 1 2 3
M  V30 3 2 3 4
M  V30 4 1 4 5
M  V30 5 1 5 6
M  V30 6 2 6 7
M  V30 7 1 6 8
M  V30 8 1 8 9
M  V30 9 1 9 10
M  V30 10 1 10 11
M  V30 11 1 11 12
M  V30 12 1 12 13
M  V30 13 2 5 14
M  V30 14 1 14 15
M  V30 15 2 15 16
M  V30 16 1 16 17
M  V30 17 1 17 18
M  V30 18 2 18 19
M  V30 19 1 19 20
M  V30 20 2 20 21
M  V30 21 1 21 22
M  V30 22 1 21 23
M  V30 23 1 23 24
M  V30 24 1 24 25
M  V30 25 2 23 26
M  V30 26 1 16 3
M  V30 27 1 26 18
M  V30 28 1 13 8
M  V30 29 1 1 27
M  V30 30 1 1 28
M  V30 31 1 1 29
M  V30 32 1 4 30
M  V30 33 1 9 31
M  V30 34 1 9 32
M  V30 35 1 10 33
M  V30 36 1 10 34
M  V30 37 1 12 35
M  V30 38 1 12 36
M  V30 39 1 13 37
M  V30 40 1 13 38
M  V30 41 1 14 39
M  V30 42 1 15 40
M  V30 43 1 17 41
M  V30 44 1 20 42
M  V30 45 1 25 43
M  V30 46 1 25 44
M  V30 47 1 25 45
M  V30 END BOND
M  V30 END CTAB
M  END
>  <Dataset>  (733) 
ChEMBL_Kinases

>  <Ligand_Instance>  (733) 
nan

>  <PDB_ID>  (733) 
nan

>  <Standardized_SMILES>  (733) 
COc1cc(C(=O)N2CCOCC2)ccc1Nc1ncc(Br)c(OC)n1

>  <Name>  (733) 
nan

>  <Pocket>  (733) 
nan

>  <ATP_Site>  (733) 
nan

>  <Peripheral>  (733) 
nan

>  <Num_H_Atoms_ProtBoundConf>  (733) 
nan

>  <Num_Resolved_Atoms>  (733) 
nan

>  <Num_Not_Resolved_Atoms>  (733) 
nan

$$$$
CHEMBL2177831
     RDKit          3D

  0  0  0  0  0  0  0  0  0  0999 V3000
M  V30 BEGIN CTAB
M  V30 COUNTS 61 66 0 0 0
M  V30 BEGIN ATOM
M  V30 1 N 1.936950 -3.371247 3.261714 0
M  V30 2 C 1.810096 -2.697518 4.481525 0
M  V30 3 N 2.375519 -3.463651 5.422046 0
M  V30 4 C 2.402289 -3.061910 6.716734 0
M  V30 5 C 1.816706 -1.846920 6.945332 0
M  V30 6 C 1.248992 -1.096209 5.948150 0
M  V30 7 C 1.216176 -1.491553 4.638605 0
M  V30 8 C 0.604885 -0.636901 3.665811 0
M  V30 9 N 0.059799 0.533399 4.009107 0
M  V30 10 C -0.454654 1.183483 2.969051 0
M  V30 11 C -1.082162 2.412426 3.012118 0
M  V30 12 C -1.546527 2.906912 1.800008 0
M  V30 13 C -2.223864 4.195741 1.736602 0
M  V30 14 C -2.978400 4.575903 2.851549 0
M  V30 15 C -3.631594 5.788109 2.825280 0
M  V30 16 C -3.586778 6.656421 1.758547 0
M  V30 17 N -2.840175 6.244325 0.695929 0
M  V30 18 C -2.183785 5.072334 0.670816 0
M  V30 19 C -1.336682 2.123847 0.669261 0
M  V30 20 N -0.708393 0.931984 0.742178 0
M  V30 21 C -0.235825 0.392553 1.867643 0
M  V30 22 N 0.399654 -0.672685 2.364982 0
M  V30 23 C 0.720302 -1.617637 1.383370 0
M  V30 24 C 1.959221 -1.495096 0.734640 0
M  V30 25 C 2.196834 -2.431734 -0.255529 0
M  V30 26 C 1.293186 -3.421751 -0.594286 0
M  V30 27 C 1.724008 -4.339564 -1.680172 0
M  V30 28 N 1.350150 -3.875232 -3.003394 0
M  V30 29 C 0.057257 -3.937476 -3.568311 0
M  V30 30 O -0.912872 -4.424648 -2.930259 0
M  V30 31 C -0.253598 -3.454312 -4.905290 0
M  V30 32 C -1.549719 -3.544095 -5.373038 0
M  V30 33 C -1.917102 -3.100444 -6.647492 0
M  V30 34 C -0.943926 -2.554804 -7.460112 0
M  V30 35 C 0.384884 -2.435815 -7.046052 0
M  V30 36 C 0.657229 -2.898200 -5.776728 0
M  V30 37 C 0.088027 -3.499043 0.074599 0
M  V30 38 C -0.231194 -2.604506 1.076668 0
M  V30 39 H 2.001968 -3.881294 2.376528 0
M  V30 40 H 1.157187 -4.055639 3.153835 0
M  V30 41 H 2.819907 -3.575676 7.559293 0
M  V30 42 H 1.795384 -1.454148 7.944547 0
M  V30 43 H 0.817783 -0.146599 6.273049 0
M  V30 44 H -1.200228 2.945533 3.924692 0
M  V30 45 H -3.048911 3.926388 3.725477 0
M  V30 46 H -4.232145 6.133204 3.664800 0
M  V30 47 H -4.097724 7.610582 1.730609 0
M  V30 48 H -1.593924 4.759542 -0.183495 0
M  V30 49 H -1.689779 2.488932 -0.286063 0
M  V30 50 H 2.629920 -0.712932 1.028870 0
M  V30 51 H 3.167248 -2.339204 -0.766955 0
M  V30 52 H 1.230462 -5.328684 -1.570848 0
M  V30 53 H 2.812240 -4.559752 -1.637818 0
M  V30 54 H 2.114609 -3.458255 -3.582264 0
M  V30 55 H -2.378491 -3.957504 -4.804894 0
M  V30 56 H -2.932780 -3.169902 -7.015896 0
M  V30 57 H -1.169276 -2.192219 -8.462714 0
M  V30 58 H 1.170218 -2.009801 -7.666822 0
M  V30 59 H 1.676797 -2.807251 -5.458999 0
M  V30 60 H -0.599450 -4.282126 -0.208349 0
M  V30 61 H -1.163745 -2.638297 1.617247 0
M  V30 END ATOM
M  V30 BEGIN BOND
M  V30 1 1 1 2
M  V30 2 2 2 3
M  V30 3 1 3 4
M  V30 4 2 4 5
M  V30 5 1 5 6
M  V30 6 2 6 7
M  V30 7 1 7 8
M  V30 8 2 8 9
M  V30 9 1 9 10
M  V30 10 2 10 11
M  V30 11 1 11 12
M  V30 12 1 12 13
M  V30 13 2 13 14
M  V30 14 1 14 15
M  V30 15 2 15 16
M  V30 16 1 16 17
M  V30 17 2 17 18
M  V30 18 2 12 19
M  V30 19 1 19 20
M  V30 20 2 20 21
M  V30 21 1 21 22
M  V30 22 1 22 23
M  V30 23 2 23 24
M  V30 24 1 24 25
M  V30 25 2 25 26
M  V30 26 1 26 27
M  V30 27 1 27 28
M  V30 28 1 28 29
M  V30 29 2 29 30
M  V30 30 1 29 31
M  V30 31 2 31 32
M  V30 32 1 32 33
M  V30 33 2 33 34
M  V30 34 1 34 35
M  V30 35 2 35 36
M  V30 36 1 26 37
M  V30 37 2 37 38
M  V30 38 1 7 2
M  V30 39 1 22 8
M  V30 40 1 38 23
M  V30 41 1 21 10
M  V30 42 1 36 31
M  V30 43 1 18 13
M  V30 44 1 1 39
M  V30 45 1 1 40
M  V30 46 1 4 41
M  V30 47 1 5 42
M  V30 48 1 6 43
M  V30 49 1 11 44
M  V30 50 1 14 45
M  V30 51 1 15 46
M  V30 52 1 16 47
M  V30 53 1 18 48
M  V30 54 1 19 49
M  V30 55 1 24 50
M  V30 56 1 25 51
M  V30 57 1 27 52
M  V30 58 1 27 53
M  V30 59 1 28 54
M  V30 60 1 32 55
M  V30 61 1 33 56
M  V30 62 1 34 57
M  V30 63 1 35 58
M  V30 64 1 36 59
M  V30 65 1 37 60
M  V30 66 1 38 61
M  V30 END BOND
M  V30 END CTAB
M  END
>  <Dataset>  (734) 
ChEMBL_Kinases

>  <Ligand_Instance>  (734) 
nan

>  <PDB_ID>  (734) 
nan

>  <Standardized_SMILES>  (734) 
Nc1ncccc1-c1nc2cc(-c3cccnc3)cnc2n1-c1ccc(CNC(=O)c2ccccc2)cc1

>  <Name>  (734) 
nan

>  <Pocket>  (734) 
nan

>  <ATP_Site>  (734) 
nan

>  <Peripheral>  (734) 
nan

>  <Num_H_Atoms_ProtBoundConf>  (734) 
nan

>  <Num_Resolved_Atoms>  (734) 
nan

>  <Num_Not_Resolved_Atoms>  (734) 
nan

$$$$
CHEMBL2207187
     RDKit          3D

  0  0  0  0  0  0  0  0  0  0999 V3000
M  V30 BEGIN CTAB
M  V30 COUNTS 54 57 0 0 0
M  V30 BEGIN ATOM
M  V30 1 O 0.644818 -4.376380 0.604850 0
M  V30 2 C -0.316418 -3.953706 1.286031 0
M  V30 3 N -0.329336 -2.877617 2.206064 0
M  V30 4 C 0.856733 -2.141705 2.455598 0
M  V30 5 C 1.477011 -1.213081 1.529442 0
M  V30 6 C 1.736132 -1.525107 0.114177 0
M  V30 7 N 0.443667 -1.480555 -0.584233 0
M  V30 8 C 0.136190 -0.060651 -0.735636 0
M  V30 9 N 0.901688 0.980801 -0.384302 0
M  V30 10 C 0.649984 2.266118 -0.565955 0
M  V30 11 N 1.663772 3.135815 -0.085195 0
M  V30 12 C 1.759401 3.637505 1.231980 0
M  V30 13 C 2.764915 4.515273 1.608090 0
M  V30 14 C 2.809969 4.967925 2.910484 0
M  V30 15 C 1.893962 4.584919 3.863708 0
M  V30 16 C 0.904132 3.716098 3.478962 0
M  V30 17 F 0.017293 3.360717 4.451963 0
M  V30 18 C 0.833183 3.243836 2.176274 0
M  V30 19 N -0.511922 2.627808 -1.177978 0
M  V30 20 C -1.375848 1.650600 -1.581628 0
M  V30 21 C -1.014081 0.350002 -1.342190 0
M  V30 22 C -2.129994 -0.478749 -1.823367 0
M  V30 23 C -3.470665 -0.274271 -1.129827 0
M  V30 24 C -2.722133 -1.571986 -1.016462 0
M  V30 25 C -1.075098 -5.005279 0.661301 0
M  V30 26 C -0.228055 -5.895669 -0.276280 0
M  V30 27 C -1.601704 -6.233566 -0.915030 0
M  V30 28 C -1.932964 -4.763839 -0.543105 0
M  V30 29 H -1.347704 -2.892123 2.515103 0
M  V30 30 H 1.678750 -2.910533 2.783876 0
M  V30 31 H 0.755998 -1.580606 3.451642 0
M  V30 32 H 0.874225 -0.232181 1.588609 0
M  V30 33 H 2.472117 -0.904223 1.990661 0
M  V30 34 H 2.276677 -2.443966 -0.117812 0
M  V30 35 H 2.359702 -0.693113 -0.326131 0
M  V30 36 H -0.237310 -2.134741 -0.963146 0
M  V30 37 H 2.355466 3.378918 -0.818231 0
M  V30 38 H 3.455065 4.780511 0.815808 0
M  V30 39 H 3.624202 5.656478 3.145485 0
M  V30 40 H 2.009208 4.990095 4.853182 0
M  V30 41 H 0.029175 2.562365 1.938169 0
M  V30 42 H -2.228074 2.095832 -2.038516 0
M  V30 43 H -2.232064 -0.559949 -2.934796 0
M  V30 44 H -4.396297 -0.278770 -1.749666 0
M  V30 45 H -3.512171 0.440567 -0.288864 0
M  V30 46 H -3.203946 -2.448734 -1.553379 0
M  V30 47 H -2.387934 -1.817973 -0.000918 0
M  V30 48 H -1.675147 -5.655142 1.374403 0
M  V30 49 H 0.342669 -5.256592 -0.967875 0
M  V30 50 H 0.268597 -6.735268 0.201947 0
M  V30 51 H -2.137225 -6.899050 -0.240412 0
M  V30 52 H -1.571242 -6.437595 -1.981573 0
M  V30 53 H -3.011021 -4.600925 -0.379224 0
M  V30 54 H -1.455389 -4.131993 -1.307378 0
M  V30 END ATOM
M  V30 BEGIN BOND
M  V30 1 2 1 2
M  V30 2 1 2 3
M  V30 3 1 3 4
M  V30 4 1 4 5
M  V30 5 1 5 6
M  V30 6 1 6 7
M  V30 7 1 7 8
M  V30 8 2 8 9
M  V30 9 1 9 10
M  V30 10 1 10 11
M  V30 11 1 11 12
M  V30 12 2 12 13
M  V30 13 1 13 14
M  V30 14 2 14 15
M  V30 15 1 15 16
M  V30 16 1 16 17
M  V30 17 2 16 18
M  V30 18 2 10 19
M  V30 19 1 19 20
M  V30 20 2 20 21
M  V30 21 1 21 22
M  V30 22 1 22 23
M  V30 23 1 23 24
M  V30 24 1 2 25
M  V30 25 1 25 26
M  V30 26 1 26 27
M  V30 27 1 27 28
M  V30 28 1 21 8
M  V30 29 1 24 22
M  V30 30 1 28 25
M  V30 31 1 18 12
M  V30 32 1 3 29
M  V30 33 1 4 30
M  V30 34 1 4 31
M  V30 35 1 5 32
M  V30 36 1 5 33
M  V30 37 1 6 34
M  V30 38 1 6 35
M  V30 39 1 7 36
M  V30 40 1 11 37
M  V30 41 1 13 38
M  V30 42 1 14 39
M  V30 43 1 15 40
M  V30 44 1 18 41
M  V30 45 1 20 42
M  V30 46 1 22 43
M  V30 47 1 23 44
M  V30 48 1 23 45
M  V30 49 1 24 46
M  V30 50 1 24 47
M  V30 51 1 25 48
M  V30 52 1 26 49
M  V30 53 1 26 50
M  V30 54 1 27 51
M  V30 55 1 27 52
M  V30 56 1 28 53
M  V30 57 1 28 54
M  V30 END BOND
M  V30 END CTAB
M  END
>  <Dataset>  (735) 
ChEMBL_Kinases

>  <Ligand_Instance>  (735) 
nan

>  <PDB_ID>  (735) 
nan

>  <Standardized_SMILES>  (735) 
O=C(NCCCNc1nc(Nc2cccc(F)c2)ncc1C1CC1)C1CCC1

>  <Name>  (735) 
nan

>  <Pocket>  (735) 
nan

>  <ATP_Site>  (735) 
nan

>  <Peripheral>  (735) 
nan

>  <Num_H_Atoms_ProtBoundConf>  (735) 
nan

>  <Num_Resolved_Atoms>  (735) 
nan

>  <Num_Not_Resolved_Atoms>  (735) 
nan

$$$$
CHEMBL2206750
     RDKit          3D

  0  0  0  0  0  0  0  0  0  0999 V3000
M  V30 BEGIN CTAB
M  V30 COUNTS 36 38 0 0 0
M  V30 BEGIN ATOM
M  V30 1 O 0.047986 0.177168 4.673154 0
M  V30 2 C 0.092491 0.132487 3.394232 0
M  V30 3 N 0.657761 -1.017250 2.858366 0
M  V30 4 C 0.718927 -1.099991 1.596121 0
M  V30 5 N 1.239314 -2.144890 0.752927 0
M  V30 6 C 1.306631 -3.500304 1.311651 0
M  V30 7 C 1.874714 -4.338596 0.216607 0
M  V30 8 C 3.200280 -4.652358 -0.049143 0
M  V30 9 C 3.492253 -5.444343 -1.129860 0
M  V30 10 C 2.526258 -5.949491 -1.973576 0
M  V30 11 C 1.189765 -5.663617 -1.748442 0
M  V30 12 C 0.908210 -4.854966 -0.642772 0
M  V30 13 S 0.000742 0.383294 0.881271 0
M  V30 14 C -0.379540 1.143764 2.483112 0
M  V30 15 C -0.917482 2.297744 2.730136 0
M  V30 16 C -1.330901 3.180866 1.614670 0
M  V30 17 C -1.965075 2.546849 0.538209 0
M  V30 18 C -2.349864 3.359930 -0.536897 0
M  V30 19 C -2.110174 4.716054 -0.523778 0
M  V30 20 O -2.458481 5.588917 -1.545923 0
M  V30 21 C -1.483746 5.312648 0.550938 0
M  V30 22 C -1.087785 4.550456 1.631464 0
M  V30 23 H 1.552060 -1.894939 -0.234085 0
M  V30 24 H 0.340507 -3.886649 1.638098 0
M  V30 25 H 1.953624 -3.508244 2.223773 0
M  V30 26 H 3.881802 -4.211985 0.663184 0
M  V30 27 H 4.566762 -5.646737 -1.270151 0
M  V30 28 H 2.798791 -6.574168 -2.820183 0
M  V30 29 H 0.397799 -6.043894 -2.392936 0
M  V30 30 H -0.169189 -4.670150 -0.520688 0
M  V30 31 H -1.028137 2.534699 3.793890 0
M  V30 32 H -2.201800 1.511813 0.430137 0
M  V30 33 H -2.852868 2.928818 -1.416871 0
M  V30 34 H -2.335441 5.364235 -2.525943 0
M  V30 35 H -1.268340 6.373888 0.613713 0
M  V30 36 H -0.594190 4.872071 2.530580 0
M  V30 END ATOM
M  V30 BEGIN BOND
M  V30 1 2 1 2
M  V30 2 1 2 3
M  V30 3 2 3 4
M  V30 4 1 4 5
M  V30 5 1 5 6
M  V30 6 1 6 7
M  V30 7 2 7 8
M  V30 8 1 8 9
M  V30 9 2 9 10
M  V30 10 1 10 11
M  V30 11 2 11 12
M  V30 12 1 4 13
M  V30 13 1 13 14
M  V30 14 2 14 15
M  V30 15 1 15 16
M  V30 16 2 16 17
M  V30 17 1 17 18
M  V30 18 2 18 19
M  V30 19 1 19 20
M  V30 20 1 19 21
M  V30 21 2 21 22
M  V30 22 1 14 2
M  V30 23 1 22 16
M  V30 24 1 12 7
M  V30 25 1 5 23
M  V30 26 1 6 24
M  V30 27 1 6 25
M  V30 28 1 8 26
M  V30 29 1 9 27
M  V30 30 1 10 28
M  V30 31 1 11 29
M  V30 32 1 12 30
M  V30 33 1 15 31
M  V30 34 1 17 32
M  V30 35 1 18 33
M  V30 36 1 20 34
M  V30 37 1 21 35
M  V30 38 1 22 36
M  V30 END BOND
M  V30 END CTAB
M  END
>  <Dataset>  (736) 
ChEMBL_Kinases

>  <Ligand_Instance>  (736) 
nan

>  <PDB_ID>  (736) 
nan

>  <Standardized_SMILES>  (736) 
O=C1N=C(NCc2ccccc2)S/C1=C\c1ccc(O)cc1

>  <Name>  (736) 
nan

>  <Pocket>  (736) 
nan

>  <ATP_Site>  (736) 
nan

>  <Peripheral>  (736) 
nan

>  <Num_H_Atoms_ProtBoundConf>  (736) 
nan

>  <Num_Resolved_Atoms>  (736) 
nan

>  <Num_Not_Resolved_Atoms>  (736) 
nan

$$$$
CHEMBL220653
     RDKit          3D

  0  0  0  0  0  0  0  0  0  0999 V3000
M  V30 BEGIN CTAB
M  V30 COUNTS 61 66 0 0 0
M  V30 BEGIN ATOM
M  V30 1 C 3.997113 0.355558 3.730902 0
M  V30 2 C 4.766564 -0.170158 2.583773 0
M  V30 3 O 5.137576 -1.378976 2.622810 0
M  V30 4 N 5.076841 0.654751 1.478388 0
M  V30 5 C 4.698364 2.040799 1.341508 0
M  V30 6 C 5.025448 2.551788 -0.021055 0
M  V30 7 N 4.717705 1.674416 -1.094335 0
M  V30 8 C 3.632947 2.028801 -1.936885 0
M  V30 9 C 2.309555 2.117291 -1.271452 0
M  V30 10 C 1.731548 3.221854 -0.680426 0
M  V30 11 C 0.485375 3.159676 -0.092735 0
M  V30 12 C -0.256102 1.995765 -0.059885 0
M  V30 13 N -1.461902 1.646709 0.427294 0
M  V30 14 C -1.731263 0.351417 0.193688 0
M  V30 15 C -2.891148 -0.469330 0.528281 0
M  V30 16 C -2.978803 -1.804169 0.183994 0
M  V30 17 C -4.061485 -2.592932 0.490756 0
M  V30 18 C -4.034317 -3.930449 0.087472 0
M  V30 19 C -5.123664 -4.758759 0.384557 0
M  V30 20 C -5.151736 -6.162313 -0.012490 0
M  V30 21 C -4.615380 -6.809186 -1.094031 0
M  V30 22 N -4.910337 -8.139745 -1.032042 0
M  V30 23 N -5.626546 -8.313373 0.084055 0
M  V30 24 C -5.787965 -7.130284 0.721591 0
M  V30 25 C -6.185479 -4.192443 1.074629 0
M  V30 26 C -6.194138 -2.860981 1.466991 0
M  V30 27 C -5.125900 -2.044884 1.176646 0
M  V30 28 N -5.050968 -0.743384 1.517657 0
M  V30 29 C -3.985102 0.018895 1.211567 0
M  V30 30 O -4.030382 1.198741 1.576825 0
M  V30 31 C -0.632166 -0.143280 -0.479193 0
M  V30 32 C 0.290603 0.869766 -0.642166 0
M  V30 33 C 1.539815 0.950137 -1.226095 0
M  V30 34 C 4.898966 0.287254 -0.850758 0
M  V30 35 C 5.833184 0.134931 0.352802 0
M  V30 36 H 4.225831 1.423817 3.841397 0
M  V30 37 H 4.353344 -0.161248 4.644564 0
M  V30 38 H 2.912504 0.141278 3.630869 0
M  V30 39 H 3.633094 2.162732 1.632755 0
M  V30 40 H 5.263432 2.667130 2.075562 0
M  V30 41 H 6.130679 2.730119 -0.042838 0
M  V30 42 H 4.578755 3.548085 -0.196202 0
M  V30 43 H 3.565098 1.241373 -2.732529 0
M  V30 44 H 3.879202 2.964789 -2.482160 0
M  V30 45 H 2.318454 4.121636 -0.715159 0
M  V30 46 H 0.068353 4.048271 0.359377 0
M  V30 47 H -2.090681 2.297925 0.915475 0
M  V30 48 H -2.151609 -2.251304 -0.354469 0
M  V30 49 H -3.182051 -4.324695 -0.448890 0
M  V30 50 H -4.043638 -6.301920 -1.868322 0
M  V30 51 H -6.004069 -9.224269 0.412483 0
M  V30 52 H -6.342569 -7.041766 1.656312 0
M  V30 53 H -7.056382 -4.776665 1.334658 0
M  V30 54 H -7.034615 -2.439960 2.005781 0
M  V30 55 H -5.863494 -0.346698 2.035588 0
M  V30 56 H -0.501205 -1.144040 -0.823532 0
M  V30 57 H 1.882244 0.027498 -1.652883 0
M  V30 58 H 3.976779 -0.246286 -0.536367 0
M  V30 59 H 5.351753 -0.244064 -1.688421 0
M  V30 60 H 6.690802 0.786056 0.179289 0
M  V30 61 H 6.105353 -0.932314 0.510452 0
M  V30 END ATOM
M  V30 BEGIN BOND
M  V30 1 1 1 2
M  V30 2 2 2 3
M  V30 3 1 2 4
M  V30 4 1 4 5
M  V30 5 1 5 6
M  V30 6 1 6 7
M  V30 7 1 7 8
M  V30 8 1 8 9
M  V30 9 2 9 10
M  V30 10 1 10 11
M  V30 11 2 11 12
M  V30 12 1 12 13
M  V30 13 1 13 14
M  V30 14 1 14 15
M  V30 15 2 15 16
M  V30 16 1 16 17
M  V30 17 2 17 18
M  V30 18 1 18 19
M  V30 19 1 19 20
M  V30 20 1 20 21
M  V30 21 2 21 22
M  V30 22 1 22 23
M  V30 23 1 23 24
M  V30 24 2 19 25
M  V30 25 1 25 26
M  V30 26 2 26 27
M  V30 27 1 27 28
M  V30 28 1 28 29
M  V30 29 2 29 30
M  V30 30 2 14 31
M  V30 31 1 31 32
M  V30 32 2 32 33
M  V30 33 1 7 34
M  V30 34 1 34 35
M  V30 35 1 35 4
M  V30 36 1 33 9
M  V30 37 1 32 12
M  V30 38 1 29 15
M  V30 39 1 27 17
M  V30 40 2 24 20
M  V30 41 1 1 36
M  V30 42 1 1 37
M  V30 43 1 1 38
M  V30 44 1 5 39
M  V30 45 1 5 40
M  V30 46 1 6 41
M  V30 47 1 6 42
M  V30 48 1 8 43
M  V30 49 1 8 44
M  V30 50 1 10 45
M  V30 51 1 11 46
M  V30 52 1 13 47
M  V30 53 1 16 48
M  V30 54 1 18 49
M  V30 55 1 21 50
M  V30 56 1 23 51
M  V30 57 1 24 52
M  V30 58 1 25 53
M  V30 59 1 26 54
M  V30 60 1 28 55
M  V30 61 1 31 56
M  V30 62 1 33 57
M  V30 63 1 34 58
M  V30 64 1 34 59
M  V30 65 1 35 60
M  V30 66 1 35 61
M  V30 END BOND
M  V30 END CTAB
M  END
>  <Dataset>  (737) 
ChEMBL_Kinases

>  <Ligand_Instance>  (737) 
nan

>  <PDB_ID>  (737) 
nan

>  <Standardized_SMILES>  (737) 
CC(=O)N1CCN(Cc2ccc3[nH]c(-c4cc5cc(-c6cn[nH]c6)ccc5[nH]c4=O)cc3c2)CC1

>  <Name>  (737) 
nan

>  <Pocket>  (737) 
nan

>  <ATP_Site>  (737) 
nan

>  <Peripheral>  (737) 
nan

>  <Num_H_Atoms_ProtBoundConf>  (737) 
nan

>  <Num_Resolved_Atoms>  (737) 
nan

>  <Num_Not_Resolved_Atoms>  (737) 
nan

$$$$
CHEMBL2206133
     RDKit          3D

  0  0  0  0  0  0  0  0  0  0999 V3000
M  V30 BEGIN CTAB
M  V30 COUNTS 21 22 0 0 0
M  V30 BEGIN ATOM
M  V30 1 C 1.466440 0.569750 5.173915 0
M  V30 2 C 1.093105 0.500544 3.732405 0
M  V30 3 O -0.107517 0.706220 3.464283 0
M  V30 4 N 2.019818 0.217751 2.674288 0
M  V30 5 C 1.417239 0.209626 1.404311 0
M  V30 6 N 0.886648 -0.732748 0.759817 0
M  V30 7 C 0.371837 -0.512176 -0.440432 0
M  V30 8 C -0.226667 -1.529276 -1.190672 0
M  V30 9 C -0.740171 -1.220127 -2.433025 0
M  V30 10 C -0.717448 0.040775 -3.023711 0
M  V30 11 C -0.121522 1.009177 -2.254251 0
M  V30 12 C 0.396606 0.732907 -1.018778 0
M  V30 13 S 1.222551 1.716529 0.229314 0
M  V30 14 H 0.636930 0.224912 5.815176 0
M  V30 15 H 2.363851 -0.055238 5.383397 0
M  V30 16 H 1.755632 1.627683 5.416646 0
M  V30 17 H 3.016063 0.052033 2.947001 0
M  V30 18 H -0.333694 -2.577980 -0.885758 0
M  V30 19 H -1.213674 -1.999609 -3.039351 0
M  V30 20 H -1.116325 0.271891 -3.984146 0
M  V30 21 H -0.021861 2.032519 -2.561876 0
M  V30 END ATOM
M  V30 BEGIN BOND
M  V30 1 1 1 2
M  V30 2 2 2 3
M  V30 3 1 2 4
M  V30 4 1 4 5
M  V30 5 2 5 6
M  V30 6 1 6 7
M  V30 7 2 7 8
M  V30 8 1 8 9
M  V30 9 2 9 10
M  V30 10 1 10 11
M  V30 11 2 11 12
M  V30 12 1 12 13
M  V30 13 1 13 5
M  V30 14 1 12 7
M  V30 15 1 1 14
M  V30 16 1 1 15
M  V30 17 1 1 16
M  V30 18 1 4 17
M  V30 19 1 8 18
M  V30 20 1 9 19
M  V30 21 1 10 20
M  V30 22 1 11 21
M  V30 END BOND
M  V30 END CTAB
M  END
>  <Dataset>  (738) 
ChEMBL_Kinases

>  <Ligand_Instance>  (738) 
nan

>  <PDB_ID>  (738) 
nan

>  <Standardized_SMILES>  (738) 
CC(=O)Nc1nc2ccccc2s1

>  <Name>  (738) 
nan

>  <Pocket>  (738) 
nan

>  <ATP_Site>  (738) 
nan

>  <Peripheral>  (738) 
nan

>  <Num_H_Atoms_ProtBoundConf>  (738) 
nan

>  <Num_Resolved_Atoms>  (738) 
nan

>  <Num_Not_Resolved_Atoms>  (738) 
nan

$$$$
CHEMBL220607
     RDKit          3D

  0  0  0  0  0  0  0  0  0  0999 V3000
M  V30 BEGIN CTAB
M  V30 COUNTS 62 65 0 0 0
M  V30 BEGIN ATOM
M  V30 1 C 4.258699 0.912918 6.542202 0
M  V30 2 S 5.399939 1.305152 5.219100 0
M  V30 3 O 5.894741 2.690797 5.423552 0
M  V30 4 O 6.548965 0.330036 5.292144 0
M  V30 5 C 4.571957 1.179130 3.682703 0
M  V30 6 C 4.582249 -0.009642 2.974893 0
M  V30 7 C 3.914228 -0.141506 1.752725 0
M  V30 8 C 3.219515 0.958492 1.236817 0
M  V30 9 C 2.519529 0.732618 -0.072430 0
M  V30 10 N 1.183908 0.198130 0.186231 0
M  V30 11 C 0.035096 0.894658 0.615829 0
M  V30 12 O 0.159691 2.120964 0.792761 0
M  V30 13 C -1.258772 0.271015 0.859964 0
M  V30 14 C -2.306496 1.039383 1.313524 0
M  V30 15 C -3.513179 0.426062 1.566049 0
M  V30 16 N -4.609530 1.155997 2.032153 0
M  V30 17 C -3.528006 -0.953550 1.322803 0
M  V30 18 C -4.831562 -1.550415 1.606236 0
M  V30 19 N -5.884669 -2.028280 1.844017 0
M  V30 20 C -2.484662 -1.776463 0.860565 0
M  V30 21 C -2.815991 -3.175314 0.707840 0
M  V30 22 C -3.161502 -3.763114 1.893549 0
M  V30 23 C -3.492928 -5.129891 1.925163 0
M  V30 24 S -3.288147 -5.582943 0.127702 0
M  V30 25 C -2.806829 -3.945172 -0.403473 0
M  V30 26 C -2.533610 -3.834367 -1.829572 0
M  V30 27 N -1.224235 -3.864056 -2.313653 0
M  V30 28 C -0.419880 -2.706099 -2.347691 0
M  V30 29 C -1.034352 -1.692098 -3.294050 0
M  V30 30 C -0.627517 -1.797271 -4.632961 0
M  V30 31 C -1.075609 -0.983152 -5.672171 0
M  V30 32 C -1.985359 -0.013321 -5.317281 0
M  V30 33 C -2.396900 0.107137 -4.006226 0
M  V30 34 C -1.937965 -0.713584 -2.991071 0
M  V30 35 N -1.398445 -1.031210 0.666741 0
M  V30 36 C 3.187163 2.160559 1.913501 0
M  V30 37 C 3.867377 2.217994 3.111056 0
M  V30 38 H 3.625586 1.798363 6.776721 0
M  V30 39 H 4.747767 0.524197 7.435197 0
M  V30 40 H 3.607073 0.102421 6.161974 0
M  V30 41 H 5.120825 -0.855375 3.379906 0
M  V30 42 H 3.926565 -1.074557 1.202669 0
M  V30 43 H 2.367614 1.698533 -0.599841 0
M  V30 44 H 3.088326 -0.014201 -0.630396 0
M  V30 45 H 1.018341 -0.829773 0.054728 0
M  V30 46 H -2.213687 2.101327 1.478849 0
M  V30 47 H -5.035139 1.980693 1.576319 0
M  V30 48 H -5.038802 0.836828 2.922139 0
M  V30 49 H -3.258016 -3.429604 2.914109 0
M  V30 50 H -3.796190 -5.886975 2.622202 0
M  V30 51 H -3.143152 -4.604753 -2.398888 0
M  V30 52 H -3.077606 -2.879638 -2.143350 0
M  V30 53 H -1.074603 -4.466035 -3.139498 0
M  V30 54 H 0.605182 -2.949266 -2.774616 0
M  V30 55 H -0.223670 -2.172067 -1.434280 0
M  V30 56 H 0.096907 -2.568022 -4.914919 0
M  V30 57 H -0.703229 -1.146417 -6.673698 0
M  V30 58 H -2.326881 0.607767 -6.130344 0
M  V30 59 H -3.109063 0.876484 -3.765576 0
M  V30 60 H -2.223816 -0.656847 -1.970600 0
M  V30 61 H 2.653676 2.996302 1.497737 0
M  V30 62 H 3.837897 3.178782 3.647923 0
M  V30 END ATOM
M  V30 BEGIN BOND
M  V30 1 1 1 2
M  V30 2 2 2 3
M  V30 3 2 2 4
M  V30 4 1 2 5
M  V30 5 2 5 6
M  V30 6 1 6 7
M  V30 7 2 7 8
M  V30 8 1 8 9
M  V30 9 1 9 10
M  V30 10 1 10 11
M  V30 11 2 11 12
M  V30 12 1 11 13
M  V30 13 2 13 14
M  V30 14 1 14 15
M  V30 15 1 15 16
M  V30 16 2 15 17
M  V30 17 1 17 18
M  V30 18 3 18 19
M  V30 19 1 17 20
M  V30 20 1 20 21
M  V30 21 1 21 22
M  V30 22 2 22 23
M  V30 23 1 23 24
M  V30 24 1 24 25
M  V30 25 1 25 26
M  V30 26 1 26 27
M  V30 27 1 27 28
M  V30 28 1 28 29
M  V30 29 2 29 30
M  V30 30 1 30 31
M  V30 31 2 31 32
M  V30 32 1 32 33
M  V30 33 2 33 34
M  V30 34 2 20 35
M  V30 35 1 8 36
M  V30 36 2 36 37
M  V30 37 1 37 5
M  V30 38 1 35 13
M  V30 39 2 25 21
M  V30 40 1 34 29
M  V30 41 1 1 38
M  V30 42 1 1 39
M  V30 43 1 1 40
M  V30 44 1 6 41
M  V30 45 1 7 42
M  V30 46 1 9 43
M  V30 47 1 9 44
M  V30 48 1 10 45
M  V30 49 1 14 46
M  V30 50 1 16 47
M  V30 51 1 16 48
M  V30 52 1 22 49
M  V30 53 1 23 50
M  V30 54 1 26 51
M  V30 55 1 26 52
M  V30 56 1 27 53
M  V30 57 1 28 54
M  V30 58 1 28 55
M  V30 59 1 30 56
M  V30 60 1 31 57
M  V30 61 1 32 58
M  V30 62 1 33 59
M  V30 63 1 34 60
M  V30 64 1 36 61
M  V30 65 1 37 62
M  V30 END BOND
M  V30 END CTAB
M  END
>  <Dataset>  (739) 
ChEMBL_Kinases

>  <Ligand_Instance>  (739) 
nan

>  <PDB_ID>  (739) 
nan

>  <Standardized_SMILES>  (739) 
CS(=O)(=O)c1ccc(CNC(=O)c2cc(N)c(C#N)c(-c3ccsc3CNCc3ccccc3)n2)cc1

>  <Name>  (739) 
nan

>  <Pocket>  (739) 
nan

>  <ATP_Site>  (739) 
nan

>  <Peripheral>  (739) 
nan

>  <Num_H_Atoms_ProtBoundConf>  (739) 
nan

>  <Num_Resolved_Atoms>  (739) 
nan

>  <Num_Not_Resolved_Atoms>  (739) 
nan

$$$$
CHEMBL2206014
     RDKit          3D

  0  0  0  0  0  0  0  0  0  0999 V3000
M  V30 BEGIN CTAB
M  V30 COUNTS 29 31 0 0 0
M  V30 BEGIN ATOM
M  V30 1 O -0.811944 -1.801342 2.291151 0
M  V30 2 C 0.072146 -2.031768 1.428148 0
M  V30 3 N 0.629423 -3.315713 1.200499 0
M  V30 4 C 1.586268 -3.176255 0.165340 0
M  V30 5 C 2.387060 -4.146487 -0.404327 0
M  V30 6 C 3.270676 -3.827130 -1.414796 0
M  V30 7 C 3.332714 -2.498590 -1.844067 0
M  V30 8 Cl 4.426603 -2.006427 -3.121956 0
M  V30 9 C 2.527417 -1.522940 -1.271003 0
M  V30 10 C 1.652309 -1.867351 -0.263151 0
M  V30 11 C 0.685763 -1.094268 0.530300 0
M  V30 12 C 0.418639 0.195494 0.420138 0
M  V30 13 C -0.578988 0.907941 1.208349 0
M  V30 14 C -0.186579 2.019958 1.928150 0
M  V30 15 C -1.170347 2.690096 2.631330 0
M  V30 16 Br -0.638706 4.241041 3.641402 0
M  V30 17 C -2.482089 2.294170 2.633366 0
M  V30 18 O -3.477891 2.981874 3.352508 0
M  V30 19 C -2.839618 1.166265 1.893245 0
M  V30 20 Br -4.666715 0.599480 1.884539 0
M  V30 21 C -1.875143 0.456826 1.165902 0
M  V30 22 H 0.380506 -4.194499 1.701617 0
M  V30 23 H 2.383348 -5.202930 -0.110785 0
M  V30 24 H 3.945100 -4.493208 -1.936796 0
M  V30 25 H 2.564300 -0.476627 -1.595814 0
M  V30 26 H 0.959676 0.811959 -0.300319 0
M  V30 27 H 0.845265 2.320257 1.918131 0
M  V30 28 H -3.346218 3.302822 4.302345 0
M  V30 29 H -2.270077 -0.385047 0.615247 0
M  V30 END ATOM
M  V30 BEGIN BOND
M  V30 1 2 1 2
M  V30 2 1 2 3
M  V30 3 1 3 4
M  V30 4 2 4 5
M  V30 5 1 5 6
M  V30 6 2 6 7
M  V30 7 1 7 8
M  V30 8 1 7 9
M  V30 9 2 9 10
M  V30 10 1 10 11
M  V30 11 2 11 12
M  V30 12 1 12 13
M  V30 13 2 13 14
M  V30 14 1 14 15
M  V30 15 1 15 16
M  V30 16 2 15 17
M  V30 17 1 17 18
M  V30 18 1 17 19
M  V30 19 1 19 20
M  V30 20 2 19 21
M  V30 21 1 11 2
M  V30 22 1 21 13
M  V30 23 1 10 4
M  V30 24 1 3 22
M  V30 25 1 5 23
M  V30 26 1 6 24
M  V30 27 1 9 25
M  V30 28 1 12 26
M  V30 29 1 14 27
M  V30 30 1 18 28
M  V30 31 1 21 29
M  V30 END BOND
M  V30 END CTAB
M  END
>  <Dataset>  (740) 
ChEMBL_Kinases

>  <Ligand_Instance>  (740) 
nan

>  <PDB_ID>  (740) 
nan

>  <Standardized_SMILES>  (740) 
O=C1Nc2ccc(Cl)cc2/C1=C/c1cc(Br)c(O)c(Br)c1

>  <Name>  (740) 
nan

>  <Pocket>  (740) 
nan

>  <ATP_Site>  (740) 
nan

>  <Peripheral>  (740) 
nan

>  <Num_H_Atoms_ProtBoundConf>  (740) 
nan

>  <Num_Resolved_Atoms>  (740) 
nan

>  <Num_Not_Resolved_Atoms>  (740) 
nan

$$$$
CHEMBL220601
     RDKit          3D

  0  0  0  0  0  0  0  0  0  0999 V3000
M  V30 BEGIN CTAB
M  V30 COUNTS 55 60 0 0 0
M  V30 BEGIN ATOM
M  V30 1 O 2.053291 -2.549926 1.966177 0
M  V30 2 C 2.579624 -1.465002 1.630771 0
M  V30 3 N 3.828914 -1.214081 2.061919 0
M  V30 4 C 4.471201 -0.072461 1.748898 0
M  V30 5 C 5.751613 0.202859 2.181106 0
M  V30 6 C 6.321551 1.401376 1.805314 0
M  V30 7 C 5.699057 2.350630 1.023247 0
M  V30 8 C 6.391752 3.588761 0.681998 0
M  V30 9 C 5.924881 4.869571 0.444896 0
M  V30 10 N 7.007512 5.641509 0.168499 0
M  V30 11 N 8.107014 4.915575 0.221150 0
M  V30 12 C 7.781199 3.641369 0.534374 0
M  V30 13 C 4.418155 2.055031 0.601523 0
M  V30 14 C 3.811329 0.861710 0.957924 0
M  V30 15 C 2.521558 0.572104 0.528928 0
M  V30 16 C 1.856948 -0.594038 0.844817 0
M  V30 17 C 0.505389 -0.826720 0.357499 0
M  V30 18 C -0.311138 -1.914579 0.562705 0
M  V30 19 C -1.521369 -1.740507 -0.075961 0
M  V30 20 C -2.661757 -2.508540 -0.186091 0
M  V30 21 C -3.758703 -2.083232 -0.906382 0
M  V30 22 C -5.013955 -2.834614 -1.077355 0
M  V30 23 N -5.943127 -2.503574 -0.033614 0
M  V30 24 C -7.197388 -3.217430 -0.154682 0
M  V30 25 C -7.074357 -4.663547 0.234851 0
M  V30 26 O -5.870817 -4.985469 0.811488 0
M  V30 27 C -5.472593 -4.091427 1.774570 0
M  V30 28 C -5.436330 -2.648009 1.293113 0
M  V30 29 C -3.646497 -0.844654 -1.509313 0
M  V30 30 C -2.499773 -0.059560 -1.405317 0
M  V30 31 C -1.407190 -0.504243 -0.676788 0
M  V30 32 N -0.199458 0.019560 -0.407554 0
M  V30 33 H 4.331756 -1.924057 2.663676 0
M  V30 34 H 6.269284 -0.524463 2.798691 0
M  V30 35 H 7.333732 1.615735 2.148681 0
M  V30 36 H 4.884624 5.126921 0.489882 0
M  V30 37 H 9.074498 5.308953 0.039583 0
M  V30 38 H 8.565996 2.883102 0.624965 0
M  V30 39 H 3.886027 2.767077 -0.014528 0
M  V30 40 H 2.053426 1.331667 -0.083323 0
M  V30 41 H -0.095752 -2.808046 1.131608 0
M  V30 42 H -2.730596 -3.487606 0.299509 0
M  V30 43 H -4.748253 -3.924105 -0.941271 0
M  V30 44 H -5.489927 -2.680910 -2.053718 0
M  V30 45 H -7.606706 -3.052241 -1.171778 0
M  V30 46 H -7.922070 -2.731181 0.557501 0
M  V30 47 H -7.903061 -5.019221 0.900134 0
M  V30 48 H -7.159572 -5.255985 -0.711475 0
M  V30 49 H -4.405743 -4.359231 2.028963 0
M  V30 50 H -6.013925 -4.187226 2.724877 0
M  V30 51 H -4.462985 -2.177455 1.457860 0
M  V30 52 H -6.146732 -2.073736 1.958589 0
M  V30 53 H -4.449981 -0.426102 -2.093367 0
M  V30 54 H -2.444827 0.912092 -1.893259 0
M  V30 55 H 0.109335 0.946640 -0.757262 0
M  V30 END ATOM
M  V30 BEGIN BOND
M  V30 1 2 1 2
M  V30 2 1 2 3
M  V30 3 1 3 4
M  V30 4 2 4 5
M  V30 5 1 5 6
M  V30 6 2 6 7
M  V30 7 1 7 8
M  V30 8 1 8 9
M  V30 9 2 9 10
M  V30 10 1 10 11
M  V30 11 1 11 12
M  V30 12 1 7 13
M  V30 13 2 13 14
M  V30 14 1 14 15
M  V30 15 2 15 16
M  V30 16 1 16 17
M  V30 17 2 17 18
M  V30 18 1 18 19
M  V30 19 2 19 20
M  V30 20 1 20 21
M  V30 21 1 21 22
M  V30 22 1 22 23
M  V30 23 1 23 24
M  V30 24 1 24 25
M  V30 25 1 25 26
M  V30 26 1 26 27
M  V30 27 1 27 28
M  V30 28 2 21 29
M  V30 29 1 29 30
M  V30 30 2 30 31
M  V30 31 1 31 32
M  V30 32 1 16 2
M  V30 33 1 32 17
M  V30 34 1 14 4
M  V30 35 1 31 19
M  V30 36 2 12 8
M  V30 37 1 28 23
M  V30 38 1 3 33
M  V30 39 1 5 34
M  V30 40 1 6 35
M  V30 41 1 9 36
M  V30 42 1 11 37
M  V30 43 1 12 38
M  V30 44 1 13 39
M  V30 45 1 15 40
M  V30 46 1 18 41
M  V30 47 1 20 42
M  V30 48 1 22 43
M  V30 49 1 22 44
M  V30 50 1 24 45
M  V30 51 1 24 46
M  V30 52 1 25 47
M  V30 53 1 25 48
M  V30 54 1 27 49
M  V30 55 1 27 50
M  V30 56 1 28 51
M  V30 57 1 28 52
M  V30 58 1 29 53
M  V30 59 1 30 54
M  V30 60 1 32 55
M  V30 END BOND
M  V30 END CTAB
M  END
>  <Dataset>  (741) 
ChEMBL_Kinases

>  <Ligand_Instance>  (741) 
nan

>  <PDB_ID>  (741) 
nan

>  <Standardized_SMILES>  (741) 
O=c1[nH]c2ccc(-c3cn[nH]c3)cc2cc1-c1cc2cc(CN3CCOCC3)ccc2[nH]1

>  <Name>  (741) 
nan

>  <Pocket>  (741) 
nan

>  <ATP_Site>  (741) 
nan

>  <Peripheral>  (741) 
nan

>  <Num_H_Atoms_ProtBoundConf>  (741) 
nan

>  <Num_Resolved_Atoms>  (741) 
nan

>  <Num_Not_Resolved_Atoms>  (741) 
nan

$$$$
CHEMBL220598
     RDKit          3D

  0  0  0  0  0  0  0  0  0  0999 V3000
M  V30 BEGIN CTAB
M  V30 COUNTS 66 70 0 0 0
M  V30 BEGIN ATOM
M  V30 1 C 3.842850 -2.644630 2.171429 0
M  V30 2 C 5.060579 -1.774813 2.346998 0
M  V30 3 N 4.781104 -0.647592 3.112845 0
M  V30 4 C 4.505385 -0.716965 4.480852 0
M  V30 5 C 3.193960 -1.358737 4.840727 0
M  V30 6 C 4.638009 0.614102 2.482874 0
M  V30 7 C 3.505355 0.558808 1.524614 0
M  V30 8 C 2.303414 0.873153 2.153473 0
M  V30 9 C 1.107555 0.883821 1.424643 0
M  V30 10 N 1.101352 0.590470 0.105015 0
M  V30 11 C 0.152197 0.509131 -0.871874 0
M  V30 12 C -1.239093 0.784757 -0.528860 0
M  V30 13 C -1.616914 2.046564 -0.063635 0
M  V30 14 C -2.918396 2.371962 0.280497 0
M  V30 15 N -3.879378 1.426501 0.163415 0
M  V30 16 C -3.516805 0.221283 -0.281460 0
M  V30 17 C -4.499503 -0.886665 -0.444961 0 CFG=1
M  V30 18 C -4.119151 -1.822749 -1.561466 0
M  V30 19 C -4.620598 -1.688165 0.801180 0
M  V30 20 C -3.852611 -2.788342 1.094529 0
M  V30 21 C -3.958495 -3.533521 2.242254 0
M  V30 22 C -4.898649 -3.168431 3.183575 0
M  V30 23 C -5.718780 -2.066610 2.966997 0
M  V30 24 C -5.549529 -1.370157 1.788057 0
M  V30 25 N -2.269868 -0.079748 -0.607767 0
M  V30 26 C 0.736000 0.156162 -2.074226 0
M  V30 27 C -0.006761 -0.014715 -3.319137 0
M  V30 28 C -0.988101 -0.924369 -3.595538 0
M  V30 29 C -1.586406 -0.935303 -4.852991 0
M  V30 30 C -1.218252 -0.049296 -5.840254 0
M  V30 31 F -1.868340 -0.151018 -7.025489 0
M  V30 32 C -0.223640 0.872919 -5.560519 0
M  V30 33 C 0.388615 0.898738 -4.303104 0
M  V30 34 N 2.050386 0.027622 -1.800200 0
M  V30 35 C 2.268848 0.288525 -0.491399 0
M  V30 36 C 3.474370 0.263532 0.178711 0
M  V30 37 H 4.002173 -3.413391 1.373115 0
M  V30 38 H 2.961553 -2.009420 1.893088 0
M  V30 39 H 3.609131 -3.137388 3.129773 0
M  V30 40 H 5.830858 -2.441687 2.832634 0
M  V30 41 H 5.429187 -1.449614 1.343199 0
M  V30 42 H 5.295134 -1.342675 4.985160 0
M  V30 43 H 4.610740 0.302010 4.926513 0
M  V30 44 H 2.773472 -0.714084 5.684527 0
M  V30 45 H 3.297242 -2.357200 5.325817 0
M  V30 46 H 2.415114 -1.300036 4.070017 0
M  V30 47 H 4.568807 1.469004 3.158737 0
M  V30 48 H 5.565552 0.776140 1.861680 0
M  V30 49 H 2.167607 1.125011 3.195401 0
M  V30 50 H 0.159404 1.124105 1.886591 0
M  V30 51 H -0.856768 2.831638 0.040461 0
M  V30 52 H -3.166931 3.364028 0.637025 0
M  V30 53 H -5.500437 -0.476981 -0.708874 0
M  V30 54 H -4.253037 -1.282214 -2.521599 0
M  V30 55 H -3.104529 -2.210822 -1.454922 0
M  V30 56 H -4.825500 -2.660785 -1.551699 0
M  V30 57 H -3.105166 -3.104299 0.380550 0
M  V30 58 H -3.311419 -4.396764 2.404307 0
M  V30 59 H -4.986035 -3.755271 4.093980 0
M  V30 60 H -6.451182 -1.772953 3.689028 0
M  V30 61 H -6.211688 -0.514217 1.658180 0
M  V30 62 H -1.200492 -1.565463 -2.765841 0
M  V30 63 H -2.355095 -1.678964 -5.005262 0
M  V30 64 H 0.040372 1.556933 -6.367077 0
M  V30 65 H 1.158121 1.656744 -4.176320 0
M  V30 66 H 4.439883 0.038090 -0.220754 0
M  V30 END ATOM
M  V30 BEGIN BOND
M  V30 1 1 1 2
M  V30 2 1 2 3
M  V30 3 1 3 4
M  V30 4 1 4 5
M  V30 5 1 3 6
M  V30 6 1 6 7
M  V30 7 1 7 8
M  V30 8 2 8 9
M  V30 9 1 9 10
M  V30 10 1 10 11
M  V30 11 1 11 12
M  V30 12 2 12 13
M  V30 13 1 13 14
M  V30 14 2 14 15
M  V30 15 1 15 16
M  V30 16 1 16 17
M  V30 17 1 17 18
M  V30 18 1 17 19
M  V30 19 2 19 20
M  V30 20 1 20 21
M  V30 21 2 21 22
M  V30 22 1 22 23
M  V30 23 2 23 24
M  V30 24 2 16 25
M  V30 25 2 11 26
M  V30 26 1 26 27
M  V30 27 2 27 28
M  V30 28 1 28 29
M  V30 29 2 29 30
M  V30 30 1 30 31
M  V30 31 1 30 32
M  V30 32 2 32 33
M  V30 33 1 26 34
M  V30 34 2 34 35
M  V30 35 1 35 36
M  V30 36 2 36 7
M  V30 37 1 35 10
M  V30 38 1 25 12
M  V30 39 1 33 27
M  V30 40 1 24 19
M  V30 41 1 1 37
M  V30 42 1 1 38
M  V30 43 1 1 39
M  V30 44 1 2 40
M  V30 45 1 2 41
M  V30 46 1 4 42
M  V30 47 1 4 43
M  V30 48 1 5 44
M  V30 49 1 5 45
M  V30 50 1 5 46
M  V30 51 1 6 47
M  V30 52 1 6 48
M  V30 53 1 8 49
M  V30 54 1 9 50
M  V30 55 1 13 51
M  V30 56 1 14 52
M  V30 57 1 17 53 CFG=3
M  V30 58 1 18 54
M  V30 59 1 18 55
M  V30 60 1 18 56
M  V30 61 1 20 57
M  V30 62 1 21 58
M  V30 63 1 22 59
M  V30 64 1 23 60
M  V30 65 1 24 61
M  V30 66 1 28 62
M  V30 67 1 29 63
M  V30 68 1 32 64
M  V30 69 1 33 65
M  V30 70 1 36 66
M  V30 END BOND
M  V30 END CTAB
M  END
>  <Dataset>  (742) 
ChEMBL_Kinases

>  <Ligand_Instance>  (742) 
nan

>  <PDB_ID>  (742) 
nan

>  <Standardized_SMILES>  (742) 
CCN(CC)Cc1ccn2c(-c3ccnc([C@@H](C)c4ccccc4)n3)c(-c3ccc(F)cc3)nc2c1

>  <Name>  (742) 
nan

>  <Pocket>  (742) 
nan

>  <ATP_Site>  (742) 
nan

>  <Peripheral>  (742) 
nan

>  <Num_H_Atoms_ProtBoundConf>  (742) 
nan

>  <Num_Resolved_Atoms>  (742) 
nan

>  <Num_Not_Resolved_Atoms>  (742) 
nan

$$$$
CHEMBL220574
     RDKit          3D

  0  0  0  0  0  0  0  0  0  0999 V3000
M  V30 BEGIN CTAB
M  V30 COUNTS 48 51 0 0 0
M  V30 BEGIN ATOM
M  V30 1 O -0.479856 1.884150 3.223905 0
M  V30 2 C -0.145856 1.169448 2.247750 0
M  V30 3 N 1.212562 1.103294 1.843346 0
M  V30 4 C 2.344723 1.792271 2.439541 0 CFG=1
M  V30 5 C 3.342951 0.744385 2.899650 0
M  V30 6 O 3.732649 0.016969 1.784123 0
M  V30 7 C 3.025266 2.624420 1.413473 0
M  V30 8 C 3.286167 2.131458 0.166518 0
M  V30 9 C 3.917569 2.871645 -0.818634 0
M  V30 10 C 4.298243 4.161747 -0.525610 0
M  V30 11 F 4.918151 4.888977 -1.493222 0
M  V30 12 C 4.065080 4.722425 0.714999 0
M  V30 13 Cl 4.569553 6.350928 1.017233 0
M  V30 14 C 3.430685 3.921593 1.644957 0
M  V30 15 C -1.131179 0.379143 1.488767 0
M  V30 16 C -0.923723 -0.448783 0.395076 0
M  V30 17 C -2.155026 -0.993070 0.007809 0
M  V30 18 C -2.146872 -1.900250 -1.137819 0
M  V30 19 N -1.759890 -1.463286 -2.370892 0
M  V30 20 N -1.830821 -2.447519 -3.252987 0
M  V30 21 C -2.265226 -3.567197 -2.639983 0
M  V30 22 C -2.471935 -3.246825 -1.302301 0
M  V30 23 C -2.928019 -4.030768 -0.178391 0
M  V30 24 C -4.069808 -3.870457 0.579612 0
M  V30 25 C -4.364373 -4.709764 1.631158 0
M  V30 26 C -3.467542 -5.731373 1.906176 0
M  V30 27 C -2.308076 -5.935828 1.176803 0
M  V30 28 Cl -1.273994 -7.265145 1.641577 0
M  V30 29 C -2.057715 -5.068262 0.133209 0
M  V30 30 C -3.077664 -0.470676 0.889893 0
M  V30 31 N -2.448506 0.340836 1.759995 0
M  V30 32 H 1.470340 0.504387 1.031249 0
M  V30 33 H 2.004109 2.413738 3.295822 0
M  V30 34 H 4.260499 1.230247 3.300607 0
M  V30 35 H 2.895175 0.038921 3.638642 0
M  V30 36 H 4.590419 -0.450846 1.916517 0
M  V30 37 H 3.019386 1.132130 -0.140016 0
M  V30 38 H 4.125587 2.477211 -1.813363 0
M  V30 39 H 3.243109 4.351317 2.620594 0
M  V30 40 H 0.078991 -0.573397 -0.005312 0
M  V30 41 H -1.443240 -0.496108 -2.633063 0
M  V30 42 H -2.449241 -4.571016 -3.028815 0
M  V30 43 H -4.692319 -3.043989 0.273915 0
M  V30 44 H -5.268135 -4.500926 2.152098 0
M  V30 45 H -3.713853 -6.384499 2.737835 0
M  V30 46 H -1.123067 -5.297776 -0.391628 0
M  V30 47 H -4.104243 -0.771192 0.759707 0
M  V30 48 H -2.987014 0.820100 2.494206 0
M  V30 END ATOM
M  V30 BEGIN BOND
M  V30 1 2 1 2
M  V30 2 1 2 3
M  V30 3 1 3 4
M  V30 4 1 4 5
M  V30 5 1 5 6
M  V30 6 1 4 7
M  V30 7 2 7 8
M  V30 8 1 8 9
M  V30 9 2 9 10
M  V30 10 1 10 11
M  V30 11 1 10 12
M  V30 12 1 12 13
M  V30 13 2 12 14
M  V30 14 1 2 15
M  V30 15 2 15 16
M  V30 16 1 16 17
M  V30 17 1 17 18
M  V30 18 1 18 19
M  V30 19 1 19 20
M  V30 20 2 20 21
M  V30 21 1 21 22
M  V30 22 1 22 23
M  V30 23 2 23 24
M  V30 24 1 24 25
M  V30 25 2 25 26
M  V30 26 1 26 27
M  V30 27 1 27 28
M  V30 28 2 27 29
M  V30 29 2 17 30
M  V30 30 1 30 31
M  V30 31 1 14 7
M  V30 32 1 31 15
M  V30 33 2 22 18
M  V30 34 1 29 23
M  V30 35 1 3 32
M  V30 36 1 4 33 CFG=1
M  V30 37 1 5 34
M  V30 38 1 5 35
M  V30 39 1 6 36
M  V30 40 1 8 37
M  V30 41 1 9 38
M  V30 42 1 14 39
M  V30 43 1 16 40
M  V30 44 1 19 41
M  V30 45 1 21 42
M  V30 46 1 24 43
M  V30 47 1 25 44
M  V30 48 1 26 45
M  V30 49 1 29 46
M  V30 50 1 30 47
M  V30 51 1 31 48
M  V30 END BOND
M  V30 END CTAB
M  END
>  <Dataset>  (743) 
ChEMBL_Kinases

>  <Ligand_Instance>  (743) 
nan

>  <PDB_ID>  (743) 
nan

>  <Standardized_SMILES>  (743) 
O=C(N[C@@H](CO)c1ccc(F)c(Cl)c1)c1cc(-c2[nH]ncc2-c2cccc(Cl)c2)c[nH]1

>  <Name>  (743) 
nan

>  <Pocket>  (743) 
nan

>  <ATP_Site>  (743) 
nan

>  <Peripheral>  (743) 
nan

>  <Num_H_Atoms_ProtBoundConf>  (743) 
nan

>  <Num_Resolved_Atoms>  (743) 
nan

>  <Num_Not_Resolved_Atoms>  (743) 
nan

$$$$
CHEMBL2205636
     RDKit          3D

  0  0  0  0  0  0  0  0  0  0999 V3000
M  V30 BEGIN CTAB
M  V30 COUNTS 46 49 0 0 0
M  V30 BEGIN ATOM
M  V30 1 C 4.572679 -5.763399 2.058549 0
M  V30 2 C 3.135855 -6.123227 1.713720 0
M  V30 3 C 3.089337 -7.292547 0.750921 0
M  V30 4 O 2.532050 -6.571035 2.887300 0
M  V30 5 C 2.510453 -4.928570 1.144031 0
M  V30 6 C 1.955433 -4.116343 2.104655 0
M  V30 7 C 1.301738 -2.922783 1.795062 0
M  V30 8 C 1.245840 -2.608776 0.477615 0
M  V30 9 C 0.701542 -1.532712 -0.297140 0
M  V30 10 O 0.259559 -0.872591 0.763486 0
M  V30 11 N 0.162997 -0.480926 -0.960974 0
M  V30 12 C -0.524280 0.712019 -0.626912 0
M  V30 13 C -0.062254 1.980062 -0.350984 0
M  V30 14 N -1.154807 2.713161 -0.106576 0
M  V30 15 C -1.260864 4.035565 0.216532 0
M  V30 16 C -2.537583 4.533064 0.414928 0
M  V30 17 N -2.782813 5.906568 0.757443 0
M  V30 18 C -3.384367 6.133296 1.960905 0
M  V30 19 C -3.518707 7.506849 2.075988 0
M  V30 20 N -3.010440 8.072116 0.971285 0
M  V30 21 C -2.554564 7.098960 0.152304 0
M  V30 22 C -3.670389 3.749109 0.297583 0
M  V30 23 C -3.567044 2.416620 -0.028100 0
M  V30 24 C -2.279892 1.967153 -0.215892 0
M  V30 25 N -1.886343 0.702807 -0.544175 0
M  V30 26 C 1.811158 -3.434447 -0.511791 0
M  V30 27 C 2.467316 -4.634005 -0.187423 0
M  V30 28 H 4.740972 -4.668971 2.006519 0
M  V30 29 H 4.844336 -6.171424 3.069452 0
M  V30 30 H 5.199927 -6.223008 1.266682 0
M  V30 31 H 3.745614 -7.123948 -0.133943 0
M  V30 32 H 3.314785 -8.212076 1.303604 0
M  V30 33 H 2.068325 -7.421401 0.337083 0
M  V30 34 H 1.542256 -6.619043 2.831141 0
M  V30 35 H 1.961056 -4.304770 3.191342 0
M  V30 36 H 0.845268 -2.235435 2.471070 0
M  V30 37 H 0.515421 -1.006433 -1.862949 0
M  V30 38 H 0.975538 2.270274 -0.344628 0
M  V30 39 H -0.416655 4.700443 0.323368 0
M  V30 40 H -3.724792 5.478264 2.734397 0
M  V30 41 H -3.943767 8.100626 2.875429 0
M  V30 42 H -2.073017 6.956721 -0.812766 0
M  V30 43 H -4.656236 4.163627 0.457918 0
M  V30 44 H -4.413425 1.747317 -0.135818 0
M  V30 45 H 1.868450 -3.355793 -1.613864 0
M  V30 46 H 2.942629 -5.367425 -0.788477 0
M  V30 END ATOM
M  V30 BEGIN BOND
M  V30 1 1 1 2
M  V30 2 1 2 3
M  V30 3 1 2 4
M  V30 4 1 2 5
M  V30 5 2 5 6
M  V30 6 1 6 7
M  V30 7 2 7 8
M  V30 8 1 8 9
M  V30 9 2 9 10
M  V30 10 1 9 11
M  V30 11 1 11 12
M  V30 12 2 12 13
M  V30 13 1 13 14
M  V30 14 1 14 15
M  V30 15 2 15 16
M  V30 16 1 16 17
M  V30 17 1 17 18
M  V30 18 2 18 19
M  V30 19 1 19 20
M  V30 20 2 20 21
M  V30 21 1 16 22
M  V30 22 2 22 23
M  V30 23 1 23 24
M  V30 24 2 24 25
M  V30 25 1 8 26
M  V30 26 2 26 27
M  V30 27 1 27 5
M  V30 28 1 25 12
M  V30 29 1 24 14
M  V30 30 1 21 17
M  V30 31 1 1 28
M  V30 32 1 1 29
M  V30 33 1 1 30
M  V30 34 1 3 31
M  V30 35 1 3 32
M  V30 36 1 3 33
M  V30 37 1 4 34
M  V30 38 1 6 35
M  V30 39 1 7 36
M  V30 40 1 11 37
M  V30 41 1 13 38
M  V30 42 1 15 39
M  V30 43 1 18 40
M  V30 44 1 19 41
M  V30 45 1 21 42
M  V30 46 1 22 43
M  V30 47 1 23 44
M  V30 48 1 26 45
M  V30 49 1 27 46
M  V30 END BOND
M  V30 END CTAB
M  END
>  <Dataset>  (744) 
ChEMBL_Kinases

>  <Ligand_Instance>  (744) 
nan

>  <PDB_ID>  (744) 
nan

>  <Standardized_SMILES>  (744) 
CC(C)(O)c1ccc(C(=O)Nc2cn3cc(-n4ccnc4)ccc3n2)cc1

>  <Name>  (744) 
nan

>  <Pocket>  (744) 
nan

>  <ATP_Site>  (744) 
nan

>  <Peripheral>  (744) 
nan

>  <Num_H_Atoms_ProtBoundConf>  (744) 
nan

>  <Num_Resolved_Atoms>  (744) 
nan

>  <Num_Not_Resolved_Atoms>  (744) 
nan

$$$$
CHEMBL2205635
     RDKit          3D

  0  0  0  0  0  0  0  0  0  0999 V3000
M  V30 BEGIN CTAB
M  V30 COUNTS 49 52 0 0 0
M  V30 BEGIN ATOM
M  V30 1 C 4.233835 -5.173719 3.084735 0
M  V30 2 C 4.803615 -4.086041 2.193914 0
M  V30 3 C 5.579480 -4.791031 1.104235 0
M  V30 4 C 5.744746 -3.233200 2.975183 0
M  V30 5 O 6.771882 -4.060133 3.447525 0
M  V30 6 C 3.712367 -3.296897 1.562626 0
M  V30 7 C 3.246160 -2.178237 2.239275 0
M  V30 8 C 2.239097 -1.364516 1.760147 0
M  V30 9 C 1.651480 -1.660845 0.546801 0
M  V30 10 C 0.581199 -0.929903 -0.124543 0
M  V30 11 O 0.063443 -1.223068 -1.232427 0
M  V30 12 N 0.044269 0.230001 0.499101 0
M  V30 13 C -0.985518 1.112947 0.070674 0
M  V30 14 C -2.313884 0.855872 0.429712 0
M  V30 15 N -3.119270 1.788019 -0.063149 0
M  V30 16 C -4.426369 2.079305 -0.065293 0
M  V30 17 C -5.009923 3.162529 -0.688741 0
M  V30 18 N -6.428615 3.269570 -0.554509 0
M  V30 19 C -7.105100 3.006643 -1.698742 0
M  V30 20 C -8.454324 3.137845 -1.457893 0
M  V30 21 N -8.570269 3.483997 -0.148468 0
M  V30 22 C -7.353315 3.565066 0.401694 0
M  V30 23 C -4.182838 4.047101 -1.385439 0
M  V30 24 C -2.830641 3.773705 -1.401469 0
M  V30 25 C -2.323950 2.659227 -0.746551 0
M  V30 26 N -1.050376 2.252966 -0.664502 0
M  V30 27 C 2.099432 -2.769181 -0.143890 0
M  V30 28 C 3.116308 -3.591262 0.339384 0
M  V30 29 H 5.067911 -5.839579 3.357333 0
M  V30 30 H 3.430996 -5.736068 2.592317 0
M  V30 31 H 3.805849 -4.751349 4.022543 0
M  V30 32 H 4.963279 -5.622033 0.653250 0
M  V30 33 H 5.885623 -4.054370 0.335948 0
M  V30 34 H 6.476412 -5.292983 1.555107 0
M  V30 35 H 5.279416 -2.809225 3.895494 0
M  V30 36 H 6.195044 -2.456316 2.337492 0
M  V30 37 H 6.511900 -4.580680 4.250664 0
M  V30 38 H 3.624450 -1.831118 3.209719 0
M  V30 39 H 1.854504 -0.497922 2.250258 0
M  V30 40 H 0.358536 0.612478 1.419235 0
M  V30 41 H -2.702837 0.019530 1.031877 0
M  V30 42 H -5.030885 1.354919 0.494767 0
M  V30 43 H -6.850535 2.727277 -2.724048 0
M  V30 44 H -9.382244 3.045032 -1.996704 0
M  V30 45 H -6.916705 3.793285 1.365429 0
M  V30 46 H -4.699567 4.863112 -1.843991 0
M  V30 47 H -2.214110 4.462345 -1.939906 0
M  V30 48 H 1.719450 -3.116794 -1.117401 0
M  V30 49 H 3.483489 -4.463749 -0.183169 0
M  V30 END ATOM
M  V30 BEGIN BOND
M  V30 1 1 1 2
M  V30 2 1 2 3
M  V30 3 1 2 4
M  V30 4 1 4 5
M  V30 5 1 2 6
M  V30 6 2 6 7
M  V30 7 1 7 8
M  V30 8 2 8 9
M  V30 9 1 9 10
M  V30 10 2 10 11
M  V30 11 1 10 12
M  V30 12 1 12 13
M  V30 13 2 13 14
M  V30 14 1 14 15
M  V30 15 1 15 16
M  V30 16 2 16 17
M  V30 17 1 17 18
M  V30 18 1 18 19
M  V30 19 2 19 20
M  V30 20 1 20 21
M  V30 21 2 21 22
M  V30 22 1 17 23
M  V30 23 2 23 24
M  V30 24 1 24 25
M  V30 25 2 25 26
M  V30 26 1 9 27
M  V30 27 2 27 28
M  V30 28 1 28 6
M  V30 29 1 26 13
M  V30 30 1 25 15
M  V30 31 1 22 18
M  V30 32 1 1 29
M  V30 33 1 1 30
M  V30 34 1 1 31
M  V30 35 1 3 32
M  V30 36 1 3 33
M  V30 37 1 3 34
M  V30 38 1 4 35
M  V30 39 1 4 36
M  V30 40 1 5 37
M  V30 41 1 7 38
M  V30 42 1 8 39
M  V30 43 1 12 40
M  V30 44 1 14 41
M  V30 45 1 16 42
M  V30 46 1 19 43
M  V30 47 1 20 44
M  V30 48 1 22 45
M  V30 49 1 23 46
M  V30 50 1 24 47
M  V30 51 1 27 48
M  V30 52 1 28 49
M  V30 END BOND
M  V30 END CTAB
M  END
>  <Dataset>  (745) 
ChEMBL_Kinases

>  <Ligand_Instance>  (745) 
nan

>  <PDB_ID>  (745) 
nan

>  <Standardized_SMILES>  (745) 
CC(C)(CO)c1ccc(C(=O)Nc2cn3cc(-n4ccnc4)ccc3n2)cc1

>  <Name>  (745) 
nan

>  <Pocket>  (745) 
nan

>  <ATP_Site>  (745) 
nan

>  <Peripheral>  (745) 
nan

>  <Num_H_Atoms_ProtBoundConf>  (745) 
nan

>  <Num_Resolved_Atoms>  (745) 
nan

>  <Num_Not_Resolved_Atoms>  (745) 
nan

$$$$
CHEMBL2205634
     RDKit          3D

  0  0  0  0  0  0  0  0  0  0999 V3000
M  V30 BEGIN CTAB
M  V30 COUNTS 49 52 0 0 0
M  V30 BEGIN ATOM
M  V30 1 C 5.636328 -5.222768 1.213402 0
M  V30 2 C 4.195098 -5.414496 1.636405 0
M  V30 3 C 3.691719 -6.676405 1.002233 0
M  V30 4 C 4.154726 -5.616084 3.151204 0
M  V30 5 C 3.340730 -4.269869 1.233207 0
M  V30 6 C 3.176752 -3.197565 2.085156 0
M  V30 7 C 2.390281 -2.100844 1.760960 0
M  V30 8 C 1.745686 -2.089396 0.527974 0
M  V30 9 C 0.882021 -1.021043 0.023692 0
M  V30 10 O 0.324000 -1.068141 -1.105807 0
M  V30 11 N 0.622793 0.142815 0.791354 0
M  V30 12 C -0.200428 1.237381 0.393779 0
M  V30 13 C -1.553413 1.139376 0.742554 0
M  V30 14 N -2.138539 2.278142 0.269375 0
M  V30 15 C -3.441543 2.686819 0.339501 0
M  V30 16 C -3.841116 3.906931 -0.217377 0
M  V30 17 N -5.212464 4.280351 -0.113591 0
M  V30 18 C -5.949728 4.016538 0.989497 0
M  V30 19 C -7.258012 4.487076 0.830893 0
M  V30 20 C -7.292975 5.059050 -0.434387 0
M  V30 21 C -6.032489 4.906623 -0.959940 0
M  V30 22 C -2.888361 4.689573 -0.839998 0
M  V30 23 C -1.572847 4.252690 -0.897969 0
M  V30 24 C -1.213401 3.044246 -0.338445 0
M  V30 25 N -0.032044 2.404198 -0.259625 0
M  V30 26 C 1.934302 -3.184929 -0.301689 0
M  V30 27 C 2.708710 -4.288809 -0.008604 0
M  V30 28 H 5.949645 -4.170432 1.328784 0
M  V30 29 H 6.313306 -5.842624 1.807332 0
M  V30 30 H 5.658639 -5.468849 0.128628 0
M  V30 31 H 2.586946 -6.760835 1.029903 0
M  V30 32 H 4.114166 -6.803747 -0.008319 0
M  V30 33 H 4.085526 -7.533307 1.609627 0
M  V30 34 H 4.651290 -6.599007 3.354294 0
M  V30 35 H 4.664416 -4.795053 3.688186 0
M  V30 36 H 3.109157 -5.696772 3.460015 0
M  V30 37 H 3.646085 -3.135857 3.059248 0
M  V30 38 H 2.228538 -1.239737 2.387022 0
M  V30 39 H 1.034770 0.282642 1.739757 0
M  V30 40 H -2.130076 0.367761 1.276791 0
M  V30 41 H -4.209535 2.087318 0.824810 0
M  V30 42 H -5.595377 3.507530 1.892601 0
M  V30 43 H -8.066619 4.416389 1.547820 0
M  V30 44 H -8.172096 5.511052 -0.847130 0
M  V30 45 H -5.707521 5.241639 -1.939248 0
M  V30 46 H -3.192261 5.620791 -1.265259 0
M  V30 47 H -0.816246 4.844162 -1.376538 0
M  V30 48 H 1.449868 -3.215004 -1.270480 0
M  V30 49 H 2.814495 -5.106972 -0.695996 0
M  V30 END ATOM
M  V30 BEGIN BOND
M  V30 1 1 1 2
M  V30 2 1 2 3
M  V30 3 1 2 4
M  V30 4 1 2 5
M  V30 5 2 5 6
M  V30 6 1 6 7
M  V30 7 2 7 8
M  V30 8 1 8 9
M  V30 9 2 9 10
M  V30 10 1 9 11
M  V30 11 1 11 12
M  V30 12 2 12 13
M  V30 13 1 13 14
M  V30 14 1 14 15
M  V30 15 2 15 16
M  V30 16 1 16 17
M  V30 17 1 17 18
M  V30 18 2 18 19
M  V30 19 1 19 20
M  V30 20 2 20 21
M  V30 21 1 16 22
M  V30 22 2 22 23
M  V30 23 1 23 24
M  V30 24 2 24 25
M  V30 25 1 8 26
M  V30 26 2 26 27
M  V30 27 1 27 5
M  V30 28 1 25 12
M  V30 29 1 24 14
M  V30 30 1 21 17
M  V30 31 1 1 28
M  V30 32 1 1 29
M  V30 33 1 1 30
M  V30 34 1 3 31
M  V30 35 1 3 32
M  V30 36 1 3 33
M  V30 37 1 4 34
M  V30 38 1 4 35
M  V30 39 1 4 36
M  V30 40 1 6 37
M  V30 41 1 7 38
M  V30 42 1 11 39
M  V30 43 1 13 40
M  V30 44 1 15 41
M  V30 45 1 18 42
M  V30 46 1 19 43
M  V30 47 1 20 44
M  V30 48 1 21 45
M  V30 49 1 22 46
M  V30 50 1 23 47
M  V30 51 1 26 48
M  V30 52 1 27 49
M  V30 END BOND
M  V30 END CTAB
M  END
>  <Dataset>  (746) 
ChEMBL_Kinases

>  <Ligand_Instance>  (746) 
nan

>  <PDB_ID>  (746) 
nan

>  <Standardized_SMILES>  (746) 
CC(C)(C)c1ccc(C(=O)Nc2cn3cc(-n4cccc4)ccc3n2)cc1

>  <Name>  (746) 
nan

>  <Pocket>  (746) 
nan

>  <ATP_Site>  (746) 
nan

>  <Peripheral>  (746) 
nan

>  <Num_H_Atoms_ProtBoundConf>  (746) 
nan

>  <Num_Resolved_Atoms>  (746) 
nan

>  <Num_Not_Resolved_Atoms>  (746) 
nan

$$$$
CHEMBL2205633
     RDKit          3D

  0  0  0  0  0  0  0  0  0  0999 V3000
M  V30 BEGIN CTAB
M  V30 COUNTS 50 53 0 0 0
M  V30 BEGIN ATOM
M  V30 1 C 0.304638 -2.649028 2.656838 0
M  V30 2 C 1.763715 -3.142234 3.017047 0
M  V30 3 C 1.944791 -2.843561 4.445162 0
M  V30 4 C 1.734909 -4.566562 2.684646 0
M  V30 5 C 2.622042 -2.300655 2.069732 0
M  V30 6 C 2.800090 -0.974104 2.518079 0
M  V30 7 C 3.327498 -0.050225 1.561253 0
M  V30 8 C 3.539677 -0.711215 0.368621 0
M  V30 9 C 3.370272 0.641102 -0.424361 0
M  V30 10 O 2.431538 0.241250 -1.235804 0
M  V30 11 N 3.234852 1.907012 -1.141513 0
M  V30 12 C 2.096065 1.714492 -2.023130 0
M  V30 13 C 1.125861 1.833636 -0.978344 0
M  V30 14 N -0.148984 1.666995 -1.328244 0
M  V30 15 C -1.387147 1.531348 -0.999120 0
M  V30 16 C -2.584006 1.255954 -1.441042 0
M  V30 17 C -3.696042 1.085596 -0.595051 0
M  V30 18 C -5.000702 1.330726 -0.661174 0
M  V30 19 C -5.860440 0.839798 0.316685 0
M  V30 20 C -5.490285 0.068650 1.444572 0
M  V30 21 N -4.170769 -0.173685 1.519940 0
M  V30 22 C -3.326469 0.310061 0.542054 0
M  V30 23 C -2.376538 1.023831 -2.856183 0
M  V30 24 C -1.134455 1.118441 -3.459300 0
M  V30 25 C 0.010577 1.438585 -2.681149 0
M  V30 26 N 1.301748 1.467486 -3.094118 0
M  V30 27 C 3.436341 -1.906225 -0.189737 0
M  V30 28 C 2.929044 -2.742976 0.811139 0
M  V30 29 H 0.099184 -1.664229 3.113449 0
M  V30 30 H -0.351674 -3.478359 2.965848 0
M  V30 31 H 0.319738 -2.582438 1.538949 0
M  V30 32 H 1.108389 -2.178961 4.874019 0
M  V30 33 H 1.910115 -3.782574 5.066268 0
M  V30 34 H 2.895809 -2.301434 4.669951 0
M  V30 35 H 1.471872 -4.756265 1.629745 0
M  V30 36 H 0.828352 -5.020205 3.250171 0
M  V30 37 H 2.640791 -5.120305 2.988665 0
M  V30 38 H 2.572318 -0.753670 3.539746 0
M  V30 39 H 3.418017 0.908641 2.055672 0
M  V30 40 H 4.020521 2.210372 -0.635437 0
M  V30 41 H 1.118880 2.014467 0.154014 0
M  V30 42 H -1.394761 1.736477 0.098029 0
M  V30 43 H -5.302765 1.955068 -1.465961 0
M  V30 44 H -6.903977 1.114232 0.215847 0
M  V30 45 H -6.309889 -0.258094 2.057647 0
M  V30 46 H -2.344928 -0.007439 0.806198 0
M  V30 47 H -3.241060 0.707590 -3.420968 0
M  V30 48 H -0.952133 0.981503 -4.495869 0
M  V30 49 H 3.690470 -2.011781 -1.221655 0
M  V30 50 H 2.810433 -3.768526 0.537440 0
M  V30 END ATOM
M  V30 BEGIN BOND
M  V30 1 1 1 2
M  V30 2 1 2 3
M  V30 3 1 2 4
M  V30 4 1 2 5
M  V30 5 2 5 6
M  V30 6 1 6 7
M  V30 7 2 7 8
M  V30 8 1 8 9
M  V30 9 2 9 10
M  V30 10 1 9 11
M  V30 11 1 11 12
M  V30 12 2 12 13
M  V30 13 1 13 14
M  V30 14 1 14 15
M  V30 15 2 15 16
M  V30 16 1 16 17
M  V30 17 2 17 18
M  V30 18 1 18 19
M  V30 19 2 19 20
M  V30 20 1 20 21
M  V30 21 2 21 22
M  V30 22 1 16 23
M  V30 23 2 23 24
M  V30 24 1 24 25
M  V30 25 2 25 26
M  V30 26 1 8 27
M  V30 27 2 27 28
M  V30 28 1 28 5
M  V30 29 1 26 12
M  V30 30 1 25 14
M  V30 31 1 22 17
M  V30 32 1 1 29
M  V30 33 1 1 30
M  V30 34 1 1 31
M  V30 35 1 3 32
M  V30 36 1 3 33
M  V30 37 1 3 34
M  V30 38 1 4 35
M  V30 39 1 4 36
M  V30 40 1 4 37
M  V30 41 1 6 38
M  V30 42 1 7 39
M  V30 43 1 11 40
M  V30 44 1 13 41
M  V30 45 1 15 42
M  V30 46 1 18 43
M  V30 47 1 19 44
M  V30 48 1 20 45
M  V30 49 1 22 46
M  V30 50 1 23 47
M  V30 51 1 24 48
M  V30 52 1 27 49
M  V30 53 1 28 50
M  V30 END BOND
M  V30 END CTAB
M  END
>  <Dataset>  (747) 
ChEMBL_Kinases

>  <Ligand_Instance>  (747) 
nan

>  <PDB_ID>  (747) 
nan

>  <Standardized_SMILES>  (747) 
CC(C)(C)c1ccc(C(=O)Nc2cn3cc(-c4cccnc4)ccc3n2)cc1

>  <Name>  (747) 
nan

>  <Pocket>  (747) 
nan

>  <ATP_Site>  (747) 
nan

>  <Peripheral>  (747) 
nan

>  <Num_H_Atoms_ProtBoundConf>  (747) 
nan

>  <Num_Resolved_Atoms>  (747) 
nan

>  <Num_Not_Resolved_Atoms>  (747) 
nan

$$$$
CHEMBL2205632
     RDKit          3D

  0  0  0  0  0  0  0  0  0  0999 V3000
M  V30 BEGIN CTAB
M  V30 COUNTS 51 54 0 0 0
M  V30 BEGIN ATOM
M  V30 1 C 4.801513 -4.482156 4.926401 0
M  V30 2 C 4.244885 -3.103021 5.310271 0
M  V30 3 C 3.664502 -3.139621 6.673305 0
M  V30 4 C 5.455240 -2.179741 5.307621 0
M  V30 5 C 3.324927 -2.669842 4.230096 0
M  V30 6 C 1.973781 -2.951960 4.143395 0
M  V30 7 C 1.199759 -2.498510 3.090523 0
M  V30 8 C 1.781393 -1.743198 2.094466 0
M  V30 9 C 0.908690 -1.295973 0.994293 0
M  V30 10 O -0.289357 -1.676135 0.994710 0
M  V30 11 N 1.333698 -0.463584 -0.063958 0
M  V30 12 C 0.233072 -0.228614 -0.948935 0
M  V30 13 C -0.643294 0.844660 -0.777139 0
M  V30 14 N -1.564531 0.775527 -1.782241 0
M  V30 15 C -2.629059 1.564051 -2.081210 0
M  V30 16 C -3.401562 1.244734 -3.179929 0
M  V30 17 C -4.550951 2.096856 -3.496922 0
M  V30 18 C -4.628763 3.465613 -3.257238 0
M  V30 19 C -5.777946 4.154589 -3.603996 0
M  V30 20 C -6.864380 3.555231 -4.180659 0
M  V30 21 C -6.763966 2.200395 -4.408125 0
M  V30 22 C -5.641705 1.484916 -4.078103 0
M  V30 23 C -3.129892 0.150547 -3.987375 0
M  V30 24 C -2.031612 -0.650475 -3.667234 0
M  V30 25 C -1.279735 -0.301558 -2.559049 0
M  V30 26 N -0.182892 -0.903838 -2.040575 0
M  V30 27 C 3.121442 -1.426661 2.120801 0
M  V30 28 C 3.849589 -1.904729 3.194881 0
M  V30 29 H 4.049488 -5.286602 5.070556 0
M  V30 30 H 5.699741 -4.686552 5.521936 0
M  V30 31 H 5.135881 -4.407065 3.857602 0
M  V30 32 H 4.238211 -3.798674 7.361536 0
M  V30 33 H 2.639940 -3.563982 6.620712 0
M  V30 34 H 3.577736 -2.175902 7.176155 0
M  V30 35 H 5.145568 -1.133172 5.262089 0
M  V30 36 H 6.176255 -2.488308 4.504554 0
M  V30 37 H 6.002537 -2.352621 6.261918 0
M  V30 38 H 1.545649 -3.534403 4.918083 0
M  V30 39 H 0.168526 -2.750137 3.084196 0
M  V30 40 H 2.318241 -0.137261 -0.087322 0
M  V30 41 H -0.590583 1.596602 0.018659 0
M  V30 42 H -2.855718 2.435365 -1.450677 0
M  V30 43 H -3.746174 3.894059 -2.799526 0
M  V30 44 H -5.764775 5.230339 -3.383929 0
M  V30 45 H -7.754576 4.112706 -4.444274 0
M  V30 46 H -7.601795 1.673265 -4.864784 0
M  V30 47 H -5.642618 0.412067 -4.291057 0
M  V30 48 H -3.734117 -0.099131 -4.848031 0
M  V30 49 H -1.752918 -1.521412 -4.245883 0
M  V30 50 H 3.576822 -0.835737 1.343639 0
M  V30 51 H 4.903537 -1.627654 3.170432 0
M  V30 END ATOM
M  V30 BEGIN BOND
M  V30 1 1 1 2
M  V30 2 1 2 3
M  V30 3 1 2 4
M  V30 4 1 2 5
M  V30 5 2 5 6
M  V30 6 1 6 7
M  V30 7 2 7 8
M  V30 8 1 8 9
M  V30 9 2 9 10
M  V30 10 1 9 11
M  V30 11 1 11 12
M  V30 12 2 12 13
M  V30 13 1 13 14
M  V30 14 1 14 15
M  V30 15 2 15 16
M  V30 16 1 16 17
M  V30 17 2 17 18
M  V30 18 1 18 19
M  V30 19 2 19 20
M  V30 20 1 20 21
M  V30 21 2 21 22
M  V30 22 1 16 23
M  V30 23 2 23 24
M  V30 24 1 24 25
M  V30 25 2 25 26
M  V30 26 1 8 27
M  V30 27 2 27 28
M  V30 28 1 28 5
M  V30 29 1 26 12
M  V30 30 1 25 14
M  V30 31 1 22 17
M  V30 32 1 1 29
M  V30 33 1 1 30
M  V30 34 1 1 31
M  V30 35 1 3 32
M  V30 36 1 3 33
M  V30 37 1 3 34
M  V30 38 1 4 35
M  V30 39 1 4 36
M  V30 40 1 4 37
M  V30 41 1 6 38
M  V30 42 1 7 39
M  V30 43 1 11 40
M  V30 44 1 13 41
M  V30 45 1 15 42
M  V30 46 1 18 43
M  V30 47 1 19 44
M  V30 48 1 20 45
M  V30 49 1 21 46
M  V30 50 1 22 47
M  V30 51 1 23 48
M  V30 52 1 24 49
M  V30 53 1 27 50
M  V30 54 1 28 51
M  V30 END BOND
M  V30 END CTAB
M  END
>  <Dataset>  (748) 
ChEMBL_Kinases

>  <Ligand_Instance>  (748) 
nan

>  <PDB_ID>  (748) 
nan

>  <Standardized_SMILES>  (748) 
CC(C)(C)c1ccc(C(=O)Nc2cn3cc(-c4ccccc4)ccc3n2)cc1

>  <Name>  (748) 
nan

>  <Pocket>  (748) 
nan

>  <ATP_Site>  (748) 
nan

>  <Peripheral>  (748) 
nan

>  <Num_H_Atoms_ProtBoundConf>  (748) 
nan

>  <Num_Resolved_Atoms>  (748) 
nan

>  <Num_Not_Resolved_Atoms>  (748) 
nan

$$$$
CHEMBL2205631
     RDKit          3D

  0  0  0  0  0  0  0  0  0  0999 V3000
M  V30 BEGIN CTAB
M  V30 COUNTS 49 51 0 0 0
M  V30 BEGIN ATOM
M  V30 1 C 1.315073 -7.574303 -3.767224 0
M  V30 2 N -0.108912 -7.323621 -3.642996 0
M  V30 3 C -0.398106 -6.028821 -4.233742 0
M  V30 4 C 0.343054 -4.943168 -3.555581 0
M  V30 5 C 1.598506 -4.506366 -3.922838 0
M  V30 6 C 2.202986 -3.475496 -3.212334 0
M  V30 7 C 1.508459 -2.917193 -2.144141 0
M  V30 8 N 1.894137 -1.920743 -1.324556 0
M  V30 9 C 0.906851 -1.689404 -0.414077 0
M  V30 10 N 0.684084 -0.811596 0.684027 0
M  V30 11 C 0.075527 0.453111 0.555592 0
M  V30 12 O -0.258673 0.749503 -0.614474 0
M  V30 13 C -0.138272 1.329795 1.704723 0
M  V30 14 C 0.218640 1.031878 3.004309 0
M  V30 15 C -0.013625 1.909147 4.046819 0
M  V30 16 C -0.628269 3.140101 3.792386 0
M  V30 17 C -0.860178 4.051770 4.932075 0
M  V30 18 C 0.370068 4.926937 5.054195 0
M  V30 19 C -0.984972 3.310314 6.243155 0
M  V30 20 C -2.114659 4.888468 4.783759 0
M  V30 21 C -0.998147 3.468904 2.501027 0
M  V30 22 C -0.749283 2.560092 1.470050 0
M  V30 23 C -0.122668 -2.593791 -0.703525 0
M  V30 24 N 0.265107 -3.339828 -1.769630 0
M  V30 25 C -0.300822 -4.351893 -2.485559 0
M  V30 26 H 1.571999 -8.571556 -3.353585 0
M  V30 27 H 1.676415 -7.587018 -4.811614 0
M  V30 28 H 1.844404 -6.834992 -3.118373 0
M  V30 29 H -0.580060 -8.097536 -4.155515 0
M  V30 30 H -1.481447 -5.871269 -4.158533 0
M  V30 31 H -0.103342 -6.000438 -5.307996 0
M  V30 32 H 2.083469 -4.998229 -4.779013 0
M  V30 33 H 3.171046 -3.128563 -3.484435 0
M  V30 34 H 1.007743 -1.173965 1.609051 0
M  V30 35 H 0.691756 0.079960 3.187764 0
M  V30 36 H 0.291739 1.609148 5.034106 0
M  V30 37 H 0.223789 5.791935 5.736499 0
M  V30 38 H 0.624632 5.373888 4.071662 0
M  V30 39 H 1.200551 4.296543 5.399813 0
M  V30 40 H -1.604182 2.413639 6.206457 0
M  V30 41 H 0.048256 3.085036 6.592434 0
M  V30 42 H -1.462046 4.006173 6.984972 0
M  V30 43 H -2.809660 4.786405 5.656313 0
M  V30 44 H -2.722270 4.598335 3.885762 0
M  V30 45 H -1.873953 5.978309 4.749287 0
M  V30 46 H -1.474640 4.414961 2.281563 0
M  V30 47 H -1.045297 2.831095 0.458641 0
M  V30 48 H -1.088782 -2.772535 -0.250530 0
M  V30 49 H -1.303127 -4.680571 -2.170573 0
M  V30 END ATOM
M  V30 BEGIN BOND
M  V30 1 1 1 2
M  V30 2 1 2 3
M  V30 3 1 3 4
M  V30 4 1 4 5
M  V30 5 2 5 6
M  V30 6 1 6 7
M  V30 7 2 7 8
M  V30 8 1 8 9
M  V30 9 1 9 10
M  V30 10 1 10 11
M  V30 11 2 11 12
M  V30 12 1 11 13
M  V30 13 2 13 14
M  V30 14 1 14 15
M  V30 15 2 15 16
M  V30 16 1 16 17
M  V30 17 1 17 18
M  V30 18 1 17 19
M  V30 19 1 17 20
M  V30 20 1 16 21
M  V30 21 2 21 22
M  V30 22 2 9 23
M  V30 23 1 23 24
M  V30 24 1 24 25
M  V30 25 2 25 4
M  V30 26 1 24 7
M  V30 27 1 22 13
M  V30 28 1 1 26
M  V30 29 1 1 27
M  V30 30 1 1 28
M  V30 31 1 2 29
M  V30 32 1 3 30
M  V30 33 1 3 31
M  V30 34 1 5 32
M  V30 35 1 6 33
M  V30 36 1 10 34
M  V30 37 1 14 35
M  V30 38 1 15 36
M  V30 39 1 18 37
M  V30 40 1 18 38
M  V30 41 1 18 39
M  V30 42 1 19 40
M  V30 43 1 19 41
M  V30 44 1 19 42
M  V30 45 1 20 43
M  V30 46 1 20 44
M  V30 47 1 20 45
M  V30 48 1 21 46
M  V30 49 1 22 47
M  V30 50 1 23 48
M  V30 51 1 25 49
M  V30 END BOND
M  V30 END CTAB
M  END
>  <Dataset>  (749) 
ChEMBL_Kinases

>  <Ligand_Instance>  (749) 
nan

>  <PDB_ID>  (749) 
nan

>  <Standardized_SMILES>  (749) 
CNCc1ccc2nc(NC(=O)c3ccc(C(C)(C)C)cc3)cn2c1

>  <Name>  (749) 
nan

>  <Pocket>  (749) 
nan

>  <ATP_Site>  (749) 
nan

>  <Peripheral>  (749) 
nan

>  <Num_H_Atoms_ProtBoundConf>  (749) 
nan

>  <Num_Resolved_Atoms>  (749) 
nan

>  <Num_Not_Resolved_Atoms>  (749) 
nan

$$$$
CHEMBL2203527
     RDKit          3D

  0  0  0  0  0  0  0  0  0  0999 V3000
M  V30 BEGIN CTAB
M  V30 COUNTS 37 40 0 0 0
M  V30 BEGIN ATOM
M  V30 1 O 1.617956 -2.424483 2.196377 0
M  V30 2 C 0.899346 -3.114788 1.441257 0
M  V30 3 N 1.082049 -2.813271 0.030923 0
M  V30 4 C 2.054730 -1.797373 0.016238 0
M  V30 5 C 3.305063 -2.364917 0.010594 0
M  V30 6 C 4.419604 -1.558745 0.028032 0
M  V30 7 C 4.212093 -0.209798 0.050778 0
M  V30 8 C 2.941721 0.284076 0.054381 0
M  V30 9 C 1.789363 -0.470408 0.036384 0
M  V30 10 C 0.534997 0.209593 -0.020825 0
M  V30 11 N 0.560031 1.544054 0.041219 0
M  V30 12 C -0.484475 2.365537 -0.018421 0
M  V30 13 C -0.207606 3.712750 0.068704 0
M  V30 14 C -1.316607 4.525643 0.003768 0
M  V30 15 C -2.624154 4.117188 -0.135344 0
M  V30 16 C -2.779884 2.749780 -0.212230 0
M  V30 17 C -1.750682 1.856699 -0.158276 0
M  V30 18 N -1.860859 0.521576 -0.228845 0
M  V30 19 C -0.747635 -0.197774 -0.158546 0
M  V30 20 O -0.992291 -1.400578 -0.239699 0
M  V30 21 C -0.105924 -4.194325 1.832733 0
M  V30 22 N -0.871890 -4.972566 1.567548 0
M  V30 23 C -1.560478 -5.754967 2.381715 0
M  V30 24 C -1.331513 -5.622627 3.736257 0
M  V30 25 S -0.061810 -4.297413 3.728688 0
M  V30 26 H 0.486252 -3.422013 -0.616031 0
M  V30 27 H 3.529036 -3.426363 -0.007344 0
M  V30 28 H 5.435427 -1.916835 0.024625 0
M  V30 29 H 5.048170 0.446740 0.064864 0
M  V30 30 H 2.893344 1.373845 0.073591 0
M  V30 31 H 0.802100 4.080895 0.178542 0
M  V30 32 H -1.131551 5.602516 0.070177 0
M  V30 33 H -3.448805 4.810502 -0.179582 0
M  V30 34 H -3.793941 2.343481 -0.324214 0
M  V30 35 H -2.813140 0.152715 -0.333644 0
M  V30 36 H -2.279903 -6.471635 1.951027 0
M  V30 37 H -1.850488 -6.223134 4.487552 0
M  V30 END ATOM
M  V30 BEGIN BOND
M  V30 1 2 1 2
M  V30 2 1 2 3
M  V30 3 1 3 4
M  V30 4 2 4 5
M  V30 5 1 5 6
M  V30 6 2 6 7
M  V30 7 1 7 8
M  V30 8 2 8 9
M  V30 9 1 9 10
M  V30 10 2 10 11
M  V30 11 1 11 12
M  V30 12 2 12 13
M  V30 13 1 13 14
M  V30 14 2 14 15
M  V30 15 1 15 16
M  V30 16 2 16 17
M  V30 17 1 17 18
M  V30 18 1 18 19
M  V30 19 2 19 20
M  V30 20 1 2 21
M  V30 21 2 21 22
M  V30 22 1 22 23
M  V30 23 2 23 24
M  V30 24 1 24 25
M  V30 25 1 9 4
M  V30 26 1 19 10
M  V30 27 1 25 21
M  V30 28 1 17 12
M  V30 29 1 3 26
M  V30 30 1 5 27
M  V30 31 1 6 28
M  V30 32 1 7 29
M  V30 33 1 8 30
M  V30 34 1 13 31
M  V30 35 1 14 32
M  V30 36 1 15 33
M  V30 37 1 16 34
M  V30 38 1 18 35
M  V30 39 1 23 36
M  V30 40 1 24 37
M  V30 END BOND
M  V30 END CTAB
M  END
>  <Dataset>  (750) 
ChEMBL_Kinases

>  <Ligand_Instance>  (750) 
nan

>  <PDB_ID>  (750) 
nan

>  <Standardized_SMILES>  (750) 
O=C(Nc1ccccc1-c1nc2ccccc2[nH]c1=O)c1nccs1

>  <Name>  (750) 
nan

>  <Pocket>  (750) 
nan

>  <ATP_Site>  (750) 
nan

>  <Peripheral>  (750) 
nan

>  <Num_H_Atoms_ProtBoundConf>  (750) 
nan

>  <Num_Resolved_Atoms>  (750) 
nan

>  <Num_Not_Resolved_Atoms>  (750) 
nan

$$$$
CHEMBL2205422
     RDKit          3D

  0  0  0  0  0  0  0  0  0  0999 V3000
M  V30 BEGIN CTAB
M  V30 COUNTS 55 58 0 0 0
M  V30 BEGIN ATOM
M  V30 1 C 4.388970 -4.137140 6.222118 0
M  V30 2 C 3.638906 -3.288202 5.259186 0
M  V30 3 O 2.399180 -3.443082 5.214927 0
M  V30 4 N 4.316374 -2.351753 4.437303 0
M  V30 5 C 5.745942 -2.118269 4.435273 0
M  V30 6 C 5.995323 -1.051019 3.423062 0
M  V30 7 C 4.666251 -0.711398 2.867992 0
M  V30 8 C 4.332619 0.207172 1.901404 0
M  V30 9 C 3.026496 0.395284 1.499463 0
M  V30 10 N 2.709817 1.348933 0.500051 0
M  V30 11 C 1.441088 1.682154 -0.039320 0
M  V30 12 N 1.342115 2.620828 -0.993156 0
M  V30 13 C 0.184916 2.993570 -1.553229 0
M  V30 14 C -0.989127 2.403476 -1.154097 0
M  V30 15 C -0.929403 1.435346 -0.177159 0
M  V30 16 N -2.054729 0.734891 0.340465 0
M  V30 17 C -2.526224 -0.501695 -0.232103 0
M  V30 18 C -3.474015 -0.645447 -1.252584 0
M  V30 19 N -4.340364 0.036415 -2.138799 0
M  V30 20 C -5.251517 -0.462992 -3.142063 0
M  V30 21 C -5.947963 0.708361 -3.802449 0
M  V30 22 C -4.549373 -1.206887 -4.253857 0
M  V30 23 C -6.313670 -1.358751 -2.572763 0
M  V30 24 C -3.320585 -2.020460 -1.165379 0
M  V30 25 O -3.646831 -3.181043 -1.578642 0
M  V30 26 C -2.386453 -1.869375 -0.159205 0
M  V30 27 O -1.609221 -2.464074 0.637800 0
M  V30 28 N 0.265634 1.144364 0.307341 0
M  V30 29 C 2.109795 -0.405090 2.142759 0
M  V30 30 C 2.395842 -1.338185 3.115933 0
M  V30 31 C 3.714644 -1.490091 3.483945 0
M  V30 32 H 3.757604 -4.486470 7.057209 0
M  V30 33 H 4.785407 -5.017671 5.652987 0
M  V30 34 H 5.236349 -3.579509 6.700800 0
M  V30 35 H 6.201660 -3.075161 4.052545 0
M  V30 36 H 6.144362 -1.869215 5.432492 0
M  V30 37 H 6.615887 -1.415938 2.554867 0
M  V30 38 H 6.487045 -0.157898 3.872668 0
M  V30 39 H 5.119900 0.803538 1.439786 0
M  V30 40 H 3.533535 1.885476 0.103094 0
M  V30 41 H 0.165792 3.757048 -2.319235 0
M  V30 42 H -1.951590 2.658273 -1.564878 0
M  V30 43 H -2.539821 1.152710 1.166310 0
M  V30 44 H -4.243677 1.083695 -1.974331 0
M  V30 45 H -6.688342 1.130516 -3.120975 0
M  V30 46 H -6.406014 0.333258 -4.742776 0
M  V30 47 H -5.169062 1.446097 -4.109038 0
M  V30 48 H -3.679435 -1.784927 -3.944979 0
M  V30 49 H -4.312423 -0.508204 -5.108907 0
M  V30 50 H -5.289339 -1.911301 -4.693530 0
M  V30 51 H -6.593316 -1.118834 -1.526028 0
M  V30 52 H -6.036179 -2.425877 -2.703190 0
M  V30 53 H -7.230052 -1.228285 -3.183666 0
M  V30 54 H 1.066381 -0.335020 1.901176 0
M  V30 55 H 1.635974 -1.943077 3.590635 0
M  V30 END ATOM
M  V30 BEGIN BOND
M  V30 1 1 1 2
M  V30 2 2 2 3
M  V30 3 1 2 4
M  V30 4 1 4 5
M  V30 5 1 5 6
M  V30 6 1 6 7
M  V30 7 2 7 8
M  V30 8 1 8 9
M  V30 9 1 9 10
M  V30 10 1 10 11
M  V30 11 2 11 12
M  V30 12 1 12 13
M  V30 13 2 13 14
M  V30 14 1 14 15
M  V30 15 1 15 16
M  V30 16 1 16 17
M  V30 17 2 17 18
M  V30 18 1 18 19
M  V30 19 1 19 20
M  V30 20 1 20 21
M  V30 21 1 20 22
M  V30 22 1 20 23
M  V30 23 1 18 24
M  V30 24 2 24 25
M  V30 25 1 24 26
M  V30 26 2 26 27
M  V30 27 2 15 28
M  V30 28 2 9 29
M  V30 29 1 29 30
M  V30 30 2 30 31
M  V30 31 1 31 4
M  V30 32 1 31 7
M  V30 33 1 28 11
M  V30 34 1 26 17
M  V30 35 1 1 32
M  V30 36 1 1 33
M  V30 37 1 1 34
M  V30 38 1 5 35
M  V30 39 1 5 36
M  V30 40 1 6 37
M  V30 41 1 6 38
M  V30 42 1 8 39
M  V30 43 1 10 40
M  V30 44 1 13 41
M  V30 45 1 14 42
M  V30 46 1 16 43
M  V30 47 1 19 44
M  V30 48 1 21 45
M  V30 49 1 21 46
M  V30 50 1 21 47
M  V30 51 1 22 48
M  V30 52 1 22 49
M  V30 53 1 22 50
M  V30 54 1 23 51
M  V30 55 1 23 52
M  V30 56 1 23 53
M  V30 57 1 29 54
M  V30 58 1 30 55
M  V30 END BOND
M  V30 END CTAB
M  END
>  <Dataset>  (751) 
ChEMBL_Kinases

>  <Ligand_Instance>  (751) 
nan

>  <PDB_ID>  (751) 
nan

>  <Standardized_SMILES>  (751) 
CC(=O)N1CCc2cc(Nc3nccc(Nc4c(NC(C)(C)C)c(=O)c4=O)n3)ccc21

>  <Name>  (751) 
nan

>  <Pocket>  (751) 
nan

>  <ATP_Site>  (751) 
nan

>  <Peripheral>  (751) 
nan

>  <Num_H_Atoms_ProtBoundConf>  (751) 
nan

>  <Num_Resolved_Atoms>  (751) 
nan

>  <Num_Not_Resolved_Atoms>  (751) 
nan

$$$$
CHEMBL2205423
     RDKit          3D

  0  0  0  0  0  0  0  0  0  0999 V3000
M  V30 BEGIN CTAB
M  V30 COUNTS 51 54 0 0 0
M  V30 BEGIN ATOM
M  V30 1 C 1.641036 1.057439 2.040660 0
M  V30 2 C 2.097731 -0.160994 2.827485 0
M  V30 3 C 2.763100 0.392830 4.090892 0
M  V30 4 C 0.897824 -0.949195 3.253806 0
M  V30 5 N 3.094419 -0.921011 2.126634 0
M  V30 6 C 2.908279 -1.525978 0.853856 0
M  V30 7 C 2.954198 -1.518065 -0.543725 0
M  V30 8 N 3.424965 -0.303186 -1.150191 0
M  V30 9 C 2.552674 0.774322 -1.516553 0
M  V30 10 C 3.030030 1.927882 -2.094052 0
M  V30 11 C 2.120504 2.910450 -2.413060 0
M  V30 12 N 0.819412 2.723887 -2.158977 0
M  V30 13 C 0.319675 1.609978 -1.596249 0
M  V30 14 N -1.056422 1.500922 -1.366746 0
M  V30 15 C -1.791045 0.430565 -0.795619 0
M  V30 16 C -3.161470 0.499276 -0.639267 0
M  V30 17 C -3.913806 -0.513497 -0.091829 0
M  V30 18 C -3.308421 -1.672544 0.335086 0
M  V30 19 C -4.170791 -2.698333 0.904730 0
M  V30 20 C -5.327329 -2.448544 1.612743 0
M  V30 21 N -5.898688 -3.617922 2.007312 0
M  V30 22 N -5.128053 -4.616764 1.564444 0
M  V30 23 C -4.070315 -4.093365 0.890837 0
M  V30 24 C -1.941485 -1.801503 0.205649 0
M  V30 25 C -1.241289 -0.751679 -0.351015 0
M  V30 26 N 1.235474 0.677759 -1.300496 0
M  V30 27 C 2.470210 -2.823904 -0.615022 0
M  V30 28 O 2.297013 -3.381366 -1.734172 0
M  V30 29 C 2.425220 -2.830241 0.771929 0
M  V30 30 O 2.016407 -3.882632 1.323624 0
M  V30 31 H 2.466668 1.282006 1.338478 0
M  V30 32 H 1.510594 1.930487 2.698699 0
M  V30 33 H 0.680111 0.804954 1.546238 0
M  V30 34 H 3.528890 1.158171 3.773315 0
M  V30 35 H 3.334519 -0.383695 4.630808 0
M  V30 36 H 1.992699 0.869737 4.729044 0
M  V30 37 H 0.457929 -1.552463 2.442497 0
M  V30 38 H 0.117966 -0.204024 3.556783 0
M  V30 39 H 1.171779 -1.550464 4.147181 0
M  V30 40 H 4.069441 -1.093952 2.513501 0
M  V30 41 H 4.460968 -0.172588 -1.346346 0
M  V30 42 H 4.087659 1.976759 -2.254781 0
M  V30 43 H 2.484832 3.817563 -2.865855 0
M  V30 44 H -1.657268 2.332024 -1.655751 0
M  V30 45 H -3.695921 1.391392 -0.958685 0
M  V30 46 H -4.989829 -0.393291 0.001764 0
M  V30 47 H -5.750640 -1.462969 1.841005 0
M  V30 48 H -5.173065 -5.662756 1.628718 0
M  V30 49 H -3.238650 -4.573851 0.391890 0
M  V30 50 H -1.473214 -2.711950 0.541971 0
M  V30 51 H -0.196822 -0.922386 -0.418527 0
M  V30 END ATOM
M  V30 BEGIN BOND
M  V30 1 1 1 2
M  V30 2 1 2 3
M  V30 3 1 2 4
M  V30 4 1 2 5
M  V30 5 1 5 6
M  V30 6 2 6 7
M  V30 7 1 7 8
M  V30 8 1 8 9
M  V30 9 2 9 10
M  V30 10 1 10 11
M  V30 11 2 11 12
M  V30 12 1 12 13
M  V30 13 1 13 14
M  V30 14 1 14 15
M  V30 15 2 15 16
M  V30 16 1 16 17
M  V30 17 2 17 18
M  V30 18 1 18 19
M  V30 19 1 19 20
M  V30 20 2 20 21
M  V30 21 1 21 22
M  V30 22 1 22 23
M  V30 23 1 18 24
M  V30 24 2 24 25
M  V30 25 2 13 26
M  V30 26 1 7 27
M  V30 27 2 27 28
M  V30 28 1 27 29
M  V30 29 2 29 30
M  V30 30 1 29 6
M  V30 31 1 26 9
M  V30 32 1 25 15
M  V30 33 2 23 19
M  V30 34 1 1 31
M  V30 35 1 1 32
M  V30 36 1 1 33
M  V30 37 1 3 34
M  V30 38 1 3 35
M  V30 39 1 3 36
M  V30 40 1 4 37
M  V30 41 1 4 38
M  V30 42 1 4 39
M  V30 43 1 5 40
M  V30 44 1 8 41
M  V30 45 1 10 42
M  V30 46 1 11 43
M  V30 47 1 14 44
M  V30 48 1 16 45
M  V30 49 1 17 46
M  V30 50 1 20 47
M  V30 51 1 22 48
M  V30 52 1 23 49
M  V30 53 1 24 50
M  V30 54 1 25 51
M  V30 END BOND
M  V30 END CTAB
M  END
>  <Dataset>  (752) 
ChEMBL_Kinases

>  <Ligand_Instance>  (752) 
nan

>  <PDB_ID>  (752) 
nan

>  <Standardized_SMILES>  (752) 
CC(C)(C)Nc1c(Nc2ccnc(Nc3ccc(-c4cn[nH]c4)cc3)n2)c(=O)c1=O

>  <Name>  (752) 
nan

>  <Pocket>  (752) 
nan

>  <ATP_Site>  (752) 
nan

>  <Peripheral>  (752) 
nan

>  <Num_H_Atoms_ProtBoundConf>  (752) 
nan

>  <Num_Resolved_Atoms>  (752) 
nan

>  <Num_Not_Resolved_Atoms>  (752) 
nan

$$$$
CHEMBL2205424
     RDKit          3D

  0  0  0  0  0  0  0  0  0  0999 V3000
M  V30 BEGIN CTAB
M  V30 COUNTS 53 56 0 0 0
M  V30 BEGIN ATOM
M  V30 1 C 0.575837 -1.052985 3.054272 0
M  V30 2 C 1.408323 0.202631 3.189286 0
M  V30 3 C 1.567692 0.597244 4.652470 0
M  V30 4 C 0.750897 1.385625 2.508500 0
M  V30 5 N 2.740348 -0.034376 2.670859 0
M  V30 6 C 3.020881 -0.416614 1.329697 0
M  V30 7 C 3.312256 -0.173747 -0.017366 0
M  V30 8 N 3.430696 1.167430 -0.476205 0
M  V30 9 C 2.385302 1.983748 -0.988516 0
M  V30 10 C 2.597770 3.276871 -1.410202 0
M  V30 11 C 1.498077 3.950934 -1.882623 0
M  V30 12 N 0.306627 3.371240 -1.922352 0
M  V30 13 C 0.064748 2.122212 -1.522689 0
M  V30 14 N -1.225114 1.581815 -1.597065 0
M  V30 15 C -1.676741 0.289824 -1.226097 0
M  V30 16 C -0.894880 -0.715016 -0.701833 0
M  V30 17 C -1.332372 -1.971868 -0.340591 0
M  V30 18 C -2.669128 -2.265964 -0.512895 0
M  V30 19 C -3.132018 -3.594805 -0.131046 0
M  V30 20 C -4.431611 -4.038391 -0.241911 0
M  V30 21 C -4.840028 -5.298804 0.126599 0
M  V30 22 C -3.864952 -6.140011 0.632209 0
M  V30 23 C -2.554056 -5.721591 0.754484 0
M  V30 24 N -2.241351 -4.468684 0.368754 0
M  V30 25 C -3.500230 -1.297924 -1.034166 0
M  V30 26 C -3.001564 -0.059241 -1.376141 0
M  V30 27 N 1.143751 1.489088 -1.069342 0
M  V30 28 C 3.353833 -1.537555 -0.309550 0
M  V30 29 O 3.595540 -1.976242 -1.472747 0
M  V30 30 C 3.062652 -1.783473 1.036379 0
M  V30 31 O 2.960138 -2.994738 1.429820 0
M  V30 32 H -0.509702 -0.797682 3.184386 0
M  V30 33 H 0.737253 -1.504426 2.062235 0
M  V30 34 H 0.815110 -1.775500 3.861075 0
M  V30 35 H 1.745034 -0.267425 5.313091 0
M  V30 36 H 2.409976 1.323905 4.664530 0
M  V30 37 H 0.651617 1.172889 4.919583 0
M  V30 38 H 1.541690 2.162122 2.411069 0
M  V30 39 H 0.015302 1.810036 3.247006 0
M  V30 40 H 0.262533 1.108794 1.560978 0
M  V30 41 H 3.611853 0.060504 3.258304 0
M  V30 42 H 4.395829 1.596266 -0.429537 0
M  V30 43 H 3.612236 3.637799 -1.328575 0
M  V30 44 H 1.664886 4.970877 -2.215389 0
M  V30 45 H -1.981996 2.223101 -1.985735 0
M  V30 46 H 0.149360 -0.541430 -0.547036 0
M  V30 47 H -0.646085 -2.713171 0.068933 0
M  V30 48 H -5.173066 -3.360908 -0.639995 0
M  V30 49 H -5.882602 -5.593683 0.015716 0
M  V30 50 H -4.155108 -7.139520 0.931449 0
M  V30 51 H -1.829676 -6.420424 1.156694 0
M  V30 52 H -4.544198 -1.503821 -1.177295 0
M  V30 53 H -3.715504 0.661079 -1.783877 0
M  V30 END ATOM
M  V30 BEGIN BOND
M  V30 1 1 1 2
M  V30 2 1 2 3
M  V30 3 1 2 4
M  V30 4 1 2 5
M  V30 5 1 5 6
M  V30 6 2 6 7
M  V30 7 1 7 8
M  V30 8 1 8 9
M  V30 9 2 9 10
M  V30 10 1 10 11
M  V30 11 2 11 12
M  V30 12 1 12 13
M  V30 13 1 13 14
M  V30 14 1 14 15
M  V30 15 2 15 16
M  V30 16 1 16 17
M  V30 17 2 17 18
M  V30 18 1 18 19
M  V30 19 2 19 20
M  V30 20 1 20 21
M  V30 21 2 21 22
M  V30 22 1 22 23
M  V30 23 2 23 24
M  V30 24 1 18 25
M  V30 25 2 25 26
M  V30 26 2 13 27
M  V30 27 1 7 28
M  V30 28 2 28 29
M  V30 29 1 28 30
M  V30 30 2 30 31
M  V30 31 1 30 6
M  V30 32 1 27 9
M  V30 33 1 26 15
M  V30 34 1 24 19
M  V30 35 1 1 32
M  V30 36 1 1 33
M  V30 37 1 1 34
M  V30 38 1 3 35
M  V30 39 1 3 36
M  V30 40 1 3 37
M  V30 41 1 4 38
M  V30 42 1 4 39
M  V30 43 1 4 40
M  V30 44 1 5 41
M  V30 45 1 8 42
M  V30 46 1 10 43
M  V30 47 1 11 44
M  V30 48 1 14 45
M  V30 49 1 16 46
M  V30 50 1 17 47
M  V30 51 1 20 48
M  V30 52 1 21 49
M  V30 53 1 22 50
M  V30 54 1 23 51
M  V30 55 1 25 52
M  V30 56 1 26 53
M  V30 END BOND
M  V30 END CTAB
M  END
>  <Dataset>  (753) 
ChEMBL_Kinases

>  <Ligand_Instance>  (753) 
nan

>  <PDB_ID>  (753) 
nan

>  <Standardized_SMILES>  (753) 
CC(C)(C)Nc1c(Nc2ccnc(Nc3ccc(-c4ccccn4)cc3)n2)c(=O)c1=O

>  <Name>  (753) 
nan

>  <Pocket>  (753) 
nan

>  <ATP_Site>  (753) 
nan

>  <Peripheral>  (753) 
nan

>  <Num_H_Atoms_ProtBoundConf>  (753) 
nan

>  <Num_Resolved_Atoms>  (753) 
nan

>  <Num_Not_Resolved_Atoms>  (753) 
nan

$$$$
CHEMBL2205425
     RDKit          3D

  0  0  0  0  0  0  0  0  0  0999 V3000
M  V30 BEGIN CTAB
M  V30 COUNTS 53 56 0 0 0
M  V30 BEGIN ATOM
M  V30 1 C 2.474053 -0.846086 4.084706 0
M  V30 2 C 3.109689 0.427291 3.612719 0
M  V30 3 C 3.950537 0.939694 4.788999 0
M  V30 4 C 2.052855 1.437301 3.333121 0
M  V30 5 N 4.049608 0.251147 2.526627 0
M  V30 6 C 3.696268 -0.308644 1.245774 0
M  V30 7 C 3.237198 0.128752 0.006483 0
M  V30 8 N 2.927878 1.462968 -0.443243 0
M  V30 9 C 1.572009 1.919380 -0.273185 0
M  V30 10 C 1.172014 3.178330 -0.665326 0
M  V30 11 C -0.162324 3.552377 -0.470593 0
M  V30 12 N -1.035626 2.696919 0.089002 0
M  V30 13 C -0.640481 1.458307 0.474393 0
M  V30 14 N -1.427354 0.440285 1.074101 0
M  V30 15 C -2.153604 -0.589783 0.403825 0
M  V30 16 C -2.894260 -1.529689 1.089905 0
M  V30 17 C -3.575684 -2.504093 0.387209 0
M  V30 18 C -3.517830 -2.540767 -1.007648 0
M  V30 19 C -4.234703 -3.568029 -1.754601 0
M  V30 20 C -3.796832 -4.077816 -2.961993 0
M  V30 21 C -4.504303 -5.052278 -3.641997 0
M  V30 22 C -5.686091 -5.500788 -3.052553 0
M  V30 23 N -6.163531 -5.039119 -1.873968 0
M  V30 24 C -5.426104 -4.080346 -1.248482 0
M  V30 25 C -2.777829 -1.601018 -1.686683 0
M  V30 26 C -2.090804 -0.619133 -0.982814 0
M  V30 27 N 0.629952 1.131084 0.277698 0
M  V30 28 C 3.243808 -1.172947 -0.451969 0
M  V30 29 O 2.934563 -1.671527 -1.578455 0
M  V30 30 C 3.692174 -1.617893 0.752139 0
M  V30 31 O 3.995822 -2.721251 1.272694 0
M  V30 32 H 1.530292 -1.087628 3.524853 0
M  V30 33 H 3.208735 -1.664966 4.017375 0
M  V30 34 H 2.204561 -0.691420 5.165400 0
M  V30 35 H 3.316734 1.308741 5.611750 0
M  V30 36 H 4.619513 1.771731 4.474164 0
M  V30 37 H 4.600438 0.153575 5.214073 0
M  V30 38 H 2.419815 2.184333 2.605322 0
M  V30 39 H 1.833287 1.981382 4.275069 0
M  V30 40 H 1.087038 0.975090 3.035263 0
M  V30 41 H 5.080958 0.514135 2.566217 0
M  V30 42 H 3.595250 2.113461 -0.874185 0
M  V30 43 H 1.870761 3.862947 -1.113086 0
M  V30 44 H -0.520779 4.535760 -0.764817 0
M  V30 45 H -1.440975 0.500260 2.127585 0
M  V30 46 H -2.948962 -1.513626 2.170133 0
M  V30 47 H -4.159174 -3.243943 0.936848 0
M  V30 48 H -2.881171 -3.708641 -3.387180 0
M  V30 49 H -4.145778 -5.430327 -4.573625 0
M  V30 50 H -6.247581 -6.263475 -3.576595 0
M  V30 51 H -5.783612 -3.692958 -0.304969 0
M  V30 52 H -2.766128 -1.674088 -2.781848 0
M  V30 53 H -1.538227 0.073044 -1.606028 0
M  V30 END ATOM
M  V30 BEGIN BOND
M  V30 1 1 1 2
M  V30 2 1 2 3
M  V30 3 1 2 4
M  V30 4 1 2 5
M  V30 5 1 5 6
M  V30 6 2 6 7
M  V30 7 1 7 8
M  V30 8 1 8 9
M  V30 9 2 9 10
M  V30 10 1 10 11
M  V30 11 2 11 12
M  V30 12 1 12 13
M  V30 13 1 13 14
M  V30 14 1 14 15
M  V30 15 2 15 16
M  V30 16 1 16 17
M  V30 17 2 17 18
M  V30 18 1 18 19
M  V30 19 2 19 20
M  V30 20 1 20 21
M  V30 21 2 21 22
M  V30 22 1 22 23
M  V30 23 2 23 24
M  V30 24 1 18 25
M  V30 25 2 25 26
M  V30 26 2 13 27
M  V30 27 1 7 28
M  V30 28 2 28 29
M  V30 29 1 28 30
M  V30 30 2 30 31
M  V30 31 1 30 6
M  V30 32 1 27 9
M  V30 33 1 26 15
M  V30 34 1 24 19
M  V30 35 1 1 32
M  V30 36 1 1 33
M  V30 37 1 1 34
M  V30 38 1 3 35
M  V30 39 1 3 36
M  V30 40 1 3 37
M  V30 41 1 4 38
M  V30 42 1 4 39
M  V30 43 1 4 40
M  V30 44 1 5 41
M  V30 45 1 8 42
M  V30 46 1 10 43
M  V30 47 1 11 44
M  V30 48 1 14 45
M  V30 49 1 16 46
M  V30 50 1 17 47
M  V30 51 1 20 48
M  V30 52 1 21 49
M  V30 53 1 22 50
M  V30 54 1 24 51
M  V30 55 1 25 52
M  V30 56 1 26 53
M  V30 END BOND
M  V30 END CTAB
M  END
>  <Dataset>  (754) 
ChEMBL_Kinases

>  <Ligand_Instance>  (754) 
nan

>  <PDB_ID>  (754) 
nan

>  <Standardized_SMILES>  (754) 
CC(C)(C)Nc1c(Nc2ccnc(Nc3ccc(-c4cccnc4)cc3)n2)c(=O)c1=O

>  <Name>  (754) 
nan

>  <Pocket>  (754) 
nan

>  <ATP_Site>  (754) 
nan

>  <Peripheral>  (754) 
nan

>  <Num_H_Atoms_ProtBoundConf>  (754) 
nan

>  <Num_Resolved_Atoms>  (754) 
nan

>  <Num_Not_Resolved_Atoms>  (754) 
nan

$$$$
CHEMBL2205426
     RDKit          3D

  0  0  0  0  0  0  0  0  0  0999 V3000
M  V30 BEGIN CTAB
M  V30 COUNTS 53 56 0 0 0
M  V30 BEGIN ATOM
M  V30 1 C 2.572995 0.950465 5.375204 0
M  V30 2 C 1.881146 0.415477 4.118588 0
M  V30 3 C 0.727843 -0.421511 4.557989 0
M  V30 4 C 1.457088 1.624343 3.297211 0
M  V30 5 N 2.769075 -0.370910 3.295748 0
M  V30 6 C 2.495715 -1.048017 2.083171 0
M  V30 7 C 2.628113 -0.446529 0.849389 0
M  V30 8 N 2.947499 0.725527 0.070753 0
M  V30 9 C 1.865272 1.587820 -0.335549 0
M  V30 10 C 2.011364 2.773596 -1.072716 0
M  V30 11 C 0.849158 3.485164 -1.398047 0
M  V30 12 N -0.326770 2.996058 -0.988420 0
M  V30 13 C -0.498989 1.869757 -0.286904 0
M  V30 14 N -1.879201 1.640716 -0.058577 0
M  V30 15 C -2.192922 0.293677 -0.495170 0
M  V30 16 C -1.355159 -0.755108 -0.130965 0
M  V30 17 C -1.600118 -2.052995 -0.596541 0
M  V30 18 C -2.666965 -2.338858 -1.425454 0
M  V30 19 C -2.865575 -3.711701 -1.873891 0
M  V30 20 C -3.414126 -3.869583 -3.155659 0
M  V30 21 C -3.606302 -5.166324 -3.574361 0
M  V30 22 N -3.293427 -6.241646 -2.815432 0
M  V30 23 C -2.765836 -6.109731 -1.579490 0
M  V30 24 C -2.548904 -4.808667 -1.103089 0
M  V30 25 C -3.493193 -1.287872 -1.779807 0
M  V30 26 C -3.276632 -0.002435 -1.335110 0
M  V30 27 N 0.627808 1.231965 -0.003795 0
M  V30 28 C 2.222950 -1.633131 0.236137 0
M  V30 29 O 2.006508 -2.148783 -0.903903 0
M  V30 30 C 2.093824 -2.219929 1.470225 0
M  V30 31 O 1.769947 -3.307920 1.982187 0
M  V30 32 H 1.840178 1.684446 5.818177 0
M  V30 33 H 2.773851 0.165687 6.109045 0
M  V30 34 H 3.471776 1.566245 5.112741 0
M  V30 35 H 0.848007 -0.778229 5.611382 0
M  V30 36 H -0.235938 0.153161 4.549188 0
M  V30 37 H 0.556033 -1.343616 3.945374 0
M  V30 38 H 2.205057 1.824016 2.512522 0
M  V30 39 H 1.454327 2.545085 3.931171 0
M  V30 40 H 0.433719 1.483841 2.865257 0
M  V30 41 H 3.766926 -0.462265 3.628387 0
M  V30 42 H 3.893567 1.015439 -0.232255 0
M  V30 43 H 3.031582 3.026533 -1.324416 0
M  V30 44 H 1.043805 4.383568 -1.966407 0
M  V30 45 H -2.615003 2.225996 0.332888 0
M  V30 46 H -0.494104 -0.697546 0.515339 0
M  V30 47 H -0.952662 -2.889204 -0.310894 0
M  V30 48 H -3.669421 -3.011028 -3.785532 0
M  V30 49 H -4.024464 -5.260771 -4.570053 0
M  V30 50 H -2.505078 -6.948731 -0.956195 0
M  V30 51 H -2.120930 -4.664446 -0.103668 0
M  V30 52 H -4.318126 -1.504700 -2.420205 0
M  V30 53 H -3.939224 0.819622 -1.617966 0
M  V30 END ATOM
M  V30 BEGIN BOND
M  V30 1 1 1 2
M  V30 2 1 2 3
M  V30 3 1 2 4
M  V30 4 1 2 5
M  V30 5 1 5 6
M  V30 6 2 6 7
M  V30 7 1 7 8
M  V30 8 1 8 9
M  V30 9 2 9 10
M  V30 10 1 10 11
M  V30 11 2 11 12
M  V30 12 1 12 13
M  V30 13 1 13 14
M  V30 14 1 14 15
M  V30 15 2 15 16
M  V30 16 1 16 17
M  V30 17 2 17 18
M  V30 18 1 18 19
M  V30 19 2 19 20
M  V30 20 1 20 21
M  V30 21 2 21 22
M  V30 22 1 22 23
M  V30 23 2 23 24
M  V30 24 1 18 25
M  V30 25 2 25 26
M  V30 26 2 13 27
M  V30 27 1 7 28
M  V30 28 2 28 29
M  V30 29 1 28 30
M  V30 30 2 30 31
M  V30 31 1 30 6
M  V30 32 1 27 9
M  V30 33 1 26 15
M  V30 34 1 24 19
M  V30 35 1 1 32
M  V30 36 1 1 33
M  V30 37 1 1 34
M  V30 38 1 3 35
M  V30 39 1 3 36
M  V30 40 1 3 37
M  V30 41 1 4 38
M  V30 42 1 4 39
M  V30 43 1 4 40
M  V30 44 1 5 41
M  V30 45 1 8 42
M  V30 46 1 10 43
M  V30 47 1 11 44
M  V30 48 1 14 45
M  V30 49 1 16 46
M  V30 50 1 17 47
M  V30 51 1 20 48
M  V30 52 1 21 49
M  V30 53 1 23 50
M  V30 54 1 24 51
M  V30 55 1 25 52
M  V30 56 1 26 53
M  V30 END BOND
M  V30 END CTAB
M  END
>  <Dataset>  (755) 
ChEMBL_Kinases

>  <Ligand_Instance>  (755) 
nan

>  <PDB_ID>  (755) 
nan

>  <Standardized_SMILES>  (755) 
CC(C)(C)Nc1c(Nc2ccnc(Nc3ccc(-c4ccncc4)cc3)n2)c(=O)c1=O

>  <Name>  (755) 
nan

>  <Pocket>  (755) 
nan

>  <ATP_Site>  (755) 
nan

>  <Peripheral>  (755) 
nan

>  <Num_H_Atoms_ProtBoundConf>  (755) 
nan

>  <Num_Resolved_Atoms>  (755) 
nan

>  <Num_Not_Resolved_Atoms>  (755) 
nan

$$$$
CHEMBL2205461
     RDKit          3D

  0  0  0  0  0  0  0  0  0  0999 V3000
M  V30 BEGIN CTAB
M  V30 COUNTS 49 52 0 0 0
M  V30 BEGIN ATOM
M  V30 1 C 1.717271 1.862116 4.140231 0
M  V30 2 C 2.236552 0.480314 3.721520 0
M  V30 3 C 3.636257 0.716422 3.161119 0
M  V30 4 C 2.379318 -0.315047 4.992030 0
M  V30 5 N 1.344098 -0.100327 2.768360 0
M  V30 6 C 1.485546 -1.362434 2.152997 0
M  V30 7 C 2.167467 -1.556843 0.954586 0
M  V30 8 N 2.916963 -1.053871 -0.147447 0
M  V30 9 C 2.392643 -0.575814 -1.394632 0
M  V30 10 C 3.206680 -0.107962 -2.400903 0
M  V30 11 C 2.606003 0.324146 -3.548693 0
M  V30 12 N 1.282024 0.265404 -3.619626 0
M  V30 13 C 0.437135 -0.172605 -2.690903 0
M  V30 14 N -0.938609 -0.164750 -2.932143 0
M  V30 15 C -1.984821 -0.585608 -2.077358 0
M  V30 16 C -1.780621 -1.091115 -0.814833 0
M  V30 17 C -2.785106 -1.504969 0.029729 0
M  V30 18 C -4.099140 -1.424291 -0.378531 0
M  V30 19 C -5.175102 -1.855967 0.497889 0
M  V30 20 C -6.516184 -1.775098 0.084823 0
M  V30 21 S -7.475396 -2.447395 1.565407 0
M  V30 22 N -5.841389 -2.701194 2.446366 0
M  V30 23 N -5.118201 -2.348977 1.706286 0
M  V30 24 C -4.329090 -0.920799 -1.640308 0
M  V30 25 C -3.303290 -0.513300 -2.465976 0
M  V30 26 N 1.071068 -0.576480 -1.606410 0
M  V30 27 C 1.900011 -2.912523 0.994761 0
M  V30 28 O 1.981725 -4.081566 0.507213 0
M  V30 29 C 1.218379 -2.730070 2.189096 0
M  V30 30 O 0.554373 -3.237561 3.146850 0
M  V30 31 H 0.701382 1.749359 4.591073 0
M  V30 32 H 1.559635 2.435977 3.203785 0
M  V30 33 H 2.425003 2.404078 4.765776 0
M  V30 34 H 3.602032 1.517006 2.412163 0
M  V30 35 H 4.256325 1.086242 4.009403 0
M  V30 36 H 4.113978 -0.195610 2.802122 0
M  V30 37 H 1.447225 -0.841851 5.260997 0
M  V30 38 H 2.599319 0.382702 5.842848 0
M  V30 39 H 3.264645 -0.950633 4.886367 0
M  V30 40 H 0.475783 0.429980 2.460886 0
M  V30 41 H 3.964561 -1.032197 -0.030949 0
M  V30 42 H 4.260502 -0.118635 -2.204778 0
M  V30 43 H 3.235180 0.695212 -4.349433 0
M  V30 44 H -1.260394 0.200487 -3.872544 0
M  V30 45 H -0.798484 -1.200569 -0.390130 0
M  V30 46 H -2.614649 -1.899301 1.016393 0
M  V30 47 H -6.973621 -1.354925 -1.011027 0
M  V30 48 H -5.317439 -0.824987 -2.032833 0
M  V30 49 H -3.534648 -0.121617 -3.456021 0
M  V30 END ATOM
M  V30 BEGIN BOND
M  V30 1 1 1 2
M  V30 2 1 2 3
M  V30 3 1 2 4
M  V30 4 1 2 5
M  V30 5 1 5 6
M  V30 6 2 6 7
M  V30 7 1 7 8
M  V30 8 1 8 9
M  V30 9 2 9 10
M  V30 10 1 10 11
M  V30 11 2 11 12
M  V30 12 1 12 13
M  V30 13 1 13 14
M  V30 14 1 14 15
M  V30 15 2 15 16
M  V30 16 1 16 17
M  V30 17 2 17 18
M  V30 18 1 18 19
M  V30 19 2 19 20
M  V30 20 1 20 21
M  V30 21 1 21 22
M  V30 22 2 22 23
M  V30 23 1 18 24
M  V30 24 2 24 25
M  V30 25 2 13 26
M  V30 26 1 7 27
M  V30 27 2 27 28
M  V30 28 1 27 29
M  V30 29 2 29 30
M  V30 30 1 29 6
M  V30 31 1 26 9
M  V30 32 1 25 15
M  V30 33 1 23 19
M  V30 34 1 1 31
M  V30 35 1 1 32
M  V30 36 1 1 33
M  V30 37 1 3 34
M  V30 38 1 3 35
M  V30 39 1 3 36
M  V30 40 1 4 37
M  V30 41 1 4 38
M  V30 42 1 4 39
M  V30 43 1 5 40
M  V30 44 1 8 41
M  V30 45 1 10 42
M  V30 46 1 11 43
M  V30 47 1 14 44
M  V30 48 1 16 45
M  V30 49 1 17 46
M  V30 50 1 20 47
M  V30 51 1 24 48
M  V30 52 1 25 49
M  V30 END BOND
M  V30 END CTAB
M  END
>  <Dataset>  (756) 
ChEMBL_Kinases

>  <Ligand_Instance>  (756) 
nan

>  <PDB_ID>  (756) 
nan

>  <Standardized_SMILES>  (756) 
CC(C)(C)Nc1c(Nc2ccnc(Nc3ccc(-c4csnn4)cc3)n2)c(=O)c1=O

>  <Name>  (756) 
nan

>  <Pocket>  (756) 
nan

>  <ATP_Site>  (756) 
nan

>  <Peripheral>  (756) 
nan

>  <Num_H_Atoms_ProtBoundConf>  (756) 
nan

>  <Num_Resolved_Atoms>  (756) 
nan

>  <Num_Not_Resolved_Atoms>  (756) 
nan

$$$$
CHEMBL2205462
     RDKit          3D

  0  0  0  0  0  0  0  0  0  0999 V3000
M  V30 BEGIN CTAB
M  V30 COUNTS 54 58 0 0 0
M  V30 BEGIN ATOM
M  V30 1 C 1.198616 -0.285136 2.274106 0
M  V30 2 C 2.418408 -1.201803 2.365748 0
M  V30 3 C 2.125961 -2.403295 1.481164 0
M  V30 4 C 2.639709 -1.682824 3.766046 0
M  V30 5 N 3.549697 -0.447456 1.882172 0
M  V30 6 C 3.724258 0.104603 0.606374 0
M  V30 7 C 3.587171 1.140798 -0.290391 0
M  V30 8 N 2.986967 2.390602 -0.004189 0
M  V30 9 C 1.609770 2.578195 -0.290243 0
M  V30 10 C 1.440315 3.127874 -1.564713 0
M  V30 11 C 0.180418 3.403208 -2.076046 0
M  V30 12 N -0.900324 3.124714 -1.304434 0
M  V30 13 C -0.736410 2.590635 -0.066694 0
M  V30 14 N -1.766668 2.245608 0.850340 0
M  V30 15 C -2.314939 0.915499 0.744313 0
M  V30 16 C -3.305753 0.446221 1.580973 0
M  V30 17 C -3.857019 -0.800492 1.517697 0
M  V30 18 C -3.393949 -1.672096 0.541360 0
M  V30 19 C -2.404251 -1.261395 -0.325482 0
M  V30 20 C -1.863894 0.018762 -0.232264 0
M  V30 21 N -2.082844 -2.231821 -1.200546 0
M  V30 22 C -2.864566 -3.314521 -0.923653 0
M  V30 23 C -2.970865 -4.588510 -1.492751 0
M  V30 24 C -3.890508 -5.487459 -0.966279 0
M  V30 25 C -4.697641 -5.144633 0.105139 0
M  V30 26 C -4.584213 -3.869079 0.667375 0
M  V30 27 C -3.665680 -2.973656 0.140101 0
M  V30 28 N 0.490654 2.336371 0.398616 0
M  V30 29 C 4.201405 0.408978 -1.298957 0
M  V30 30 O 4.420357 0.796681 -2.491731 0
M  V30 31 C 4.334584 -0.620892 -0.398517 0
M  V30 32 O 4.884853 -1.720253 -0.733453 0
M  V30 33 H 0.874033 -0.329810 1.226998 0
M  V30 34 H 0.434392 -0.514708 3.027109 0
M  V30 35 H 1.525127 0.772057 2.471720 0
M  V30 36 H 3.076652 -2.772697 1.063482 0
M  V30 37 H 1.686859 -3.181670 2.125759 0
M  V30 38 H 1.392785 -2.147968 0.688913 0
M  V30 39 H 2.360292 -0.939366 4.547787 0
M  V30 40 H 3.723002 -1.911737 3.935527 0
M  V30 41 H 2.097981 -2.623259 4.004954 0
M  V30 42 H 4.350588 -0.279430 2.548588 0
M  V30 43 H 3.475098 3.203856 0.406497 0
M  V30 44 H 2.237926 3.391740 -2.270981 0
M  V30 45 H 0.011560 3.828093 -3.056017 0
M  V30 46 H -2.172186 2.837653 1.588680 0
M  V30 47 H -3.637030 1.157752 2.327178 0
M  V30 48 H -4.624220 -1.149125 2.173180 0
M  V30 49 H -1.086504 0.358836 -0.904267 0
M  V30 50 H -1.402118 -2.290656 -1.980893 0
M  V30 51 H -2.355982 -4.874501 -2.322481 0
M  V30 52 H -3.938093 -6.477333 -1.446915 0
M  V30 53 H -5.401427 -5.880964 0.481693 0
M  V30 54 H -5.231396 -3.623647 1.511008 0
M  V30 END ATOM
M  V30 BEGIN BOND
M  V30 1 1 1 2
M  V30 2 1 2 3
M  V30 3 1 2 4
M  V30 4 1 2 5
M  V30 5 1 5 6
M  V30 6 2 6 7
M  V30 7 1 7 8
M  V30 8 1 8 9
M  V30 9 2 9 10
M  V30 10 1 10 11
M  V30 11 2 11 12
M  V30 12 1 12 13
M  V30 13 1 13 14
M  V30 14 1 14 15
M  V30 15 2 15 16
M  V30 16 1 16 17
M  V30 17 2 17 18
M  V30 18 1 18 19
M  V30 19 2 19 20
M  V30 20 1 19 21
M  V30 21 1 21 22
M  V30 22 2 22 23
M  V30 23 1 23 24
M  V30 24 2 24 25
M  V30 25 1 25 26
M  V30 26 2 26 27
M  V30 27 2 13 28
M  V30 28 1 7 29
M  V30 29 2 29 30
M  V30 30 1 29 31
M  V30 31 2 31 32
M  V30 32 1 31 6
M  V30 33 1 28 9
M  V30 34 1 20 15
M  V30 35 1 27 22
M  V30 36 1 27 18
M  V30 37 1 1 33
M  V30 38 1 1 34
M  V30 39 1 1 35
M  V30 40 1 3 36
M  V30 41 1 3 37
M  V30 42 1 3 38
M  V30 43 1 4 39
M  V30 44 1 4 40
M  V30 45 1 4 41
M  V30 46 1 5 42
M  V30 47 1 8 43
M  V30 48 1 10 44
M  V30 49 1 11 45
M  V30 50 1 14 46
M  V30 51 1 16 47
M  V30 52 1 17 48
M  V30 53 1 20 49
M  V30 54 1 21 50
M  V30 55 1 23 51
M  V30 56 1 24 52
M  V30 57 1 25 53
M  V30 58 1 26 54
M  V30 END BOND
M  V30 END CTAB
M  END
>  <Dataset>  (757) 
ChEMBL_Kinases

>  <Ligand_Instance>  (757) 
nan

>  <PDB_ID>  (757) 
nan

>  <Standardized_SMILES>  (757) 
CC(C)(C)Nc1c(Nc2ccnc(Nc3ccc4c(c3)[nH]c3ccccc34)n2)c(=O)c1=O

>  <Name>  (757) 
nan

>  <Pocket>  (757) 
nan

>  <ATP_Site>  (757) 
nan

>  <Peripheral>  (757) 
nan

>  <Num_H_Atoms_ProtBoundConf>  (757) 
nan

>  <Num_Resolved_Atoms>  (757) 
nan

>  <Num_Not_Resolved_Atoms>  (757) 
nan

$$$$
CHEMBL2205630
     RDKit          3D

  0  0  0  0  0  0  0  0  0  0999 V3000
M  V30 BEGIN CTAB
M  V30 COUNTS 45 47 0 0 0
M  V30 BEGIN ATOM
M  V30 1 C 0.964818 -4.419480 -3.943298 0
M  V30 2 C -0.404582 -4.201527 -3.298625 0
M  V30 3 C -0.836496 -5.538271 -2.745428 0
M  V30 4 C -1.415670 -3.741008 -4.298477 0
M  V30 5 C -0.195362 -3.202868 -2.212553 0
M  V30 6 C 0.121715 -3.545147 -0.911668 0
M  V30 7 C 0.294800 -2.528628 0.025511 0
M  V30 8 C 0.153522 -1.203598 -0.333445 0
M  V30 9 C 0.355212 -0.223721 0.730042 0
M  V30 10 O 0.633853 -0.629175 1.885769 0
M  V30 11 N 0.267009 1.185774 0.592971 0
M  V30 12 C 0.524161 1.815024 1.840175 0
M  V30 13 C 1.527367 2.360066 2.610098 0
M  V30 14 N 1.009719 2.808081 3.768169 0
M  V30 15 C 1.699564 3.399945 4.760645 0
M  V30 16 C 1.021792 3.806269 5.893782 0
M  V30 17 C 1.666867 4.471786 7.067715 0
M  V30 18 O 2.084050 3.490638 7.996720 0
M  V30 19 C -0.346943 3.564579 5.914362 0
M  V30 20 C -1.012901 2.958646 4.881915 0
M  V30 21 C -0.313250 2.557372 3.751459 0
M  V30 22 N -0.624481 1.947767 2.573057 0
M  V30 23 C -0.161894 -0.844064 -1.624228 0
M  V30 24 C -0.334346 -1.871762 -2.560326 0
M  V30 25 H 0.941103 -5.123424 -4.775377 0
M  V30 26 H 1.346651 -3.406054 -4.226175 0
M  V30 27 H 1.633107 -4.761753 -3.099265 0
M  V30 28 H 0.026144 -6.237889 -2.650374 0
M  V30 29 H -1.322496 -5.392118 -1.758336 0
M  V30 30 H -1.589481 -5.962035 -3.438379 0
M  V30 31 H -2.315956 -3.398417 -3.766064 0
M  V30 32 H -1.730702 -4.652523 -4.880702 0
M  V30 33 H -1.040929 -3.010054 -5.042513 0
M  V30 34 H 0.227103 -4.604420 -0.658168 0
M  V30 35 H 0.544941 -2.862212 1.041399 0
M  V30 36 H 0.043616 1.554838 -0.364742 0
M  V30 37 H 2.498959 2.317173 2.136580 0
M  V30 38 H 2.759526 3.572740 4.713644 0
M  V30 39 H 2.538247 5.086647 6.795702 0
M  V30 40 H 0.873901 5.054890 7.587818 0
M  V30 41 H 2.573688 2.764155 7.495641 0
M  V30 42 H -0.920003 3.874792 6.800539 0
M  V30 43 H -2.086281 2.772119 4.904008 0
M  V30 44 H -0.265561 0.204834 -1.873333 0
M  V30 45 H -0.585264 -1.580991 -3.586101 0
M  V30 END ATOM
M  V30 BEGIN BOND
M  V30 1 1 1 2
M  V30 2 1 2 3
M  V30 3 1 2 4
M  V30 4 1 2 5
M  V30 5 2 5 6
M  V30 6 1 6 7
M  V30 7 2 7 8
M  V30 8 1 8 9
M  V30 9 2 9 10
M  V30 10 1 9 11
M  V30 11 1 11 12
M  V30 12 2 12 13
M  V30 13 1 13 14
M  V30 14 1 14 15
M  V30 15 2 15 16
M  V30 16 1 16 17
M  V30 17 1 17 18
M  V30 18 1 16 19
M  V30 19 2 19 20
M  V30 20 1 20 21
M  V30 21 2 21 22
M  V30 22 1 8 23
M  V30 23 2 23 24
M  V30 24 1 24 5
M  V30 25 1 22 12
M  V30 26 1 21 14
M  V30 27 1 1 25
M  V30 28 1 1 26
M  V30 29 1 1 27
M  V30 30 1 3 28
M  V30 31 1 3 29
M  V30 32 1 3 30
M  V30 33 1 4 31
M  V30 34 1 4 32
M  V30 35 1 4 33
M  V30 36 1 6 34
M  V30 37 1 7 35
M  V30 38 1 11 36
M  V30 39 1 13 37
M  V30 40 1 15 38
M  V30 41 1 17 39
M  V30 42 1 17 40
M  V30 43 1 18 41
M  V30 44 1 19 42
M  V30 45 1 20 43
M  V30 46 1 23 44
M  V30 47 1 24 45
M  V30 END BOND
M  V30 END CTAB
M  END
>  <Dataset>  (758) 
ChEMBL_Kinases

>  <Ligand_Instance>  (758) 
nan

>  <PDB_ID>  (758) 
nan

>  <Standardized_SMILES>  (758) 
CC(C)(C)c1ccc(C(=O)Nc2cn3cc(CO)ccc3n2)cc1

>  <Name>  (758) 
nan

>  <Pocket>  (758) 
nan

>  <ATP_Site>  (758) 
nan

>  <Peripheral>  (758) 
nan

>  <Num_H_Atoms_ProtBoundConf>  (758) 
nan

>  <Num_Resolved_Atoms>  (758) 
nan

>  <Num_Not_Resolved_Atoms>  (758) 
nan

$$$$
CHEMBL2205464
     RDKit          3D

  0  0  0  0  0  0  0  0  0  0999 V3000
M  V30 BEGIN CTAB
M  V30 COUNTS 46 49 0 0 0
M  V30 BEGIN ATOM
M  V30 1 C -0.020462 -0.806545 2.252598 0
M  V30 2 C 0.174341 -1.723534 3.417554 0
M  V30 3 C -1.022274 -2.624035 3.598658 0
M  V30 4 C 0.368421 -0.854365 4.664385 0
M  V30 5 N 1.349132 -2.555479 3.335974 0
M  V30 6 C 1.622428 -3.489822 2.279072 0
M  V30 7 C 2.334712 -3.013067 1.178279 0
M  V30 8 N 3.006113 -1.982817 0.458761 0
M  V30 9 C 2.623130 -1.055710 -0.538962 0
M  V30 10 C 2.826123 -1.441394 -1.846626 0
M  V30 11 C 2.493731 -0.620082 -2.923605 0
M  V30 12 N 1.956407 0.590236 -2.679938 0
M  V30 13 C 1.756833 0.968826 -1.400445 0
M  V30 14 N 1.210574 2.196958 -0.905477 0
M  V30 15 C -0.186098 2.310825 -0.812157 0
M  V30 16 C -0.864708 3.421080 -0.299445 0
M  V30 17 C -2.243316 3.516881 -0.225612 0
M  V30 18 C -3.044942 2.460210 -0.681014 0
M  V30 19 N -4.358365 2.668818 -0.560529 0
M  V30 20 C -5.037069 1.504667 -1.069047 0
M  V30 21 S -3.690227 0.291563 -1.641016 0
M  V30 22 C -2.382091 1.365397 -1.185962 0
M  V30 23 C -1.035597 1.317333 -1.237574 0
M  V30 24 N 2.084079 0.164070 -0.399826 0
M  V30 25 C 2.304843 -4.241848 0.539516 0
M  V30 26 O 2.557708 -5.049388 -0.404053 0
M  V30 27 C 1.601347 -4.722263 1.620402 0
M  V30 28 O 1.016087 -5.677142 2.204823 0
M  V30 29 H 0.442520 0.168687 2.476391 0
M  V30 30 H -1.128046 -0.621049 2.157716 0
M  V30 31 H 0.364019 -1.236977 1.295260 0
M  V30 32 H -1.134078 -3.213524 2.671023 0
M  V30 33 H -0.771986 -3.332458 4.408164 0
M  V30 34 H -1.946732 -2.053415 3.807543 0
M  V30 35 H 1.261917 -0.224769 4.422521 0
M  V30 36 H -0.484093 -0.210146 4.868062 0
M  V30 37 H 0.658649 -1.465730 5.532994 0
M  V30 38 H 2.129994 -2.554595 4.059290 0
M  V30 39 H 4.006875 -1.762972 0.609348 0
M  V30 40 H 3.249179 -2.384618 -2.205564 0
M  V30 41 H 2.616138 -0.838045 -3.963130 0
M  V30 42 H 1.802539 3.013198 -0.609815 0
M  V30 43 H -0.155561 4.197402 0.033032 0
M  V30 44 H -2.500174 4.484774 0.214059 0
M  V30 45 H -6.239311 1.666855 -0.972524 0
M  V30 46 H -0.684419 0.401536 -1.655206 0
M  V30 END ATOM
M  V30 BEGIN BOND
M  V30 1 1 1 2
M  V30 2 1 2 3
M  V30 3 1 2 4
M  V30 4 1 2 5
M  V30 5 1 5 6
M  V30 6 2 6 7
M  V30 7 1 7 8
M  V30 8 1 8 9
M  V30 9 2 9 10
M  V30 10 1 10 11
M  V30 11 2 11 12
M  V30 12 1 12 13
M  V30 13 1 13 14
M  V30 14 1 14 15
M  V30 15 2 15 16
M  V30 16 1 16 17
M  V30 17 2 17 18
M  V30 18 1 18 19
M  V30 19 2 19 20
M  V30 20 1 20 21
M  V30 21 1 21 22
M  V30 22 2 22 23
M  V30 23 2 13 24
M  V30 24 1 7 25
M  V30 25 2 25 26
M  V30 26 1 25 27
M  V30 27 2 27 28
M  V30 28 1 27 6
M  V30 29 1 24 9
M  V30 30 1 23 15
M  V30 31 1 22 18
M  V30 32 1 1 29
M  V30 33 1 1 30
M  V30 34 1 1 31
M  V30 35 1 3 32
M  V30 36 1 3 33
M  V30 37 1 3 34
M  V30 38 1 4 35
M  V30 39 1 4 36
M  V30 40 1 4 37
M  V30 41 1 5 38
M  V30 42 1 8 39
M  V30 43 1 10 40
M  V30 44 1 11 41
M  V30 45 1 14 42
M  V30 46 1 16 43
M  V30 47 1 17 44
M  V30 48 1 20 45
M  V30 49 1 23 46
M  V30 END BOND
M  V30 END CTAB
M  END
>  <Dataset>  (759) 
ChEMBL_Kinases

>  <Ligand_Instance>  (759) 
nan

>  <PDB_ID>  (759) 
nan

>  <Standardized_SMILES>  (759) 
CC(C)(C)Nc1c(Nc2ccnc(Nc3ccc4ncsc4c3)n2)c(=O)c1=O

>  <Name>  (759) 
nan

>  <Pocket>  (759) 
nan

>  <ATP_Site>  (759) 
nan

>  <Peripheral>  (759) 
nan

>  <Num_H_Atoms_ProtBoundConf>  (759) 
nan

>  <Num_Resolved_Atoms>  (759) 
nan

>  <Num_Not_Resolved_Atoms>  (759) 
nan

$$$$
CHEMBL2205465
     RDKit          3D

  0  0  0  0  0  0  0  0  0  0999 V3000
M  V30 BEGIN CTAB
M  V30 COUNTS 49 52 0 0 0
M  V30 BEGIN ATOM
M  V30 1 C -0.596821 -1.673173 3.020368 0
M  V30 2 C 0.833770 -1.605335 3.485426 0
M  V30 3 C 0.855026 -1.745492 5.004092 0
M  V30 4 C 1.534673 -0.318590 3.145721 0
M  V30 5 N 1.566382 -2.689832 2.860191 0
M  V30 6 C 1.635380 -2.956925 1.475622 0
M  V30 7 C 2.543588 -2.453835 0.576878 0
M  V30 8 N 3.663382 -1.630799 0.237386 0
M  V30 9 C 3.278694 -0.291749 -0.177533 0
M  V30 10 C 4.178063 0.650973 -0.630615 0
M  V30 11 C 3.713425 1.912321 -1.004359 0
M  V30 12 N 2.413510 2.224662 -0.931465 0
M  V30 13 C 1.527408 1.312529 -0.489740 0
M  V30 14 N 0.119864 1.303762 -0.294146 0
M  V30 15 C -1.047312 0.791207 -0.911957 0
M  V30 16 C -0.974140 0.059150 -2.071366 0
M  V30 17 C -2.224342 -0.381534 -2.508854 0
M  V30 18 C -3.398354 -0.124649 -1.870125 0
M  V30 19 C -3.393770 0.620491 -0.708044 0
M  V30 20 C -2.202869 1.075655 -0.236597 0
M  V30 21 C -4.811615 0.734131 -0.240269 0
M  V30 22 C -5.485428 -0.397435 -0.985214 0
M  V30 23 O -4.719580 -0.484622 -2.165711 0
M  V30 24 N 2.015924 0.132921 -0.148105 0
M  V30 25 C 1.889766 -3.208379 -0.402193 0
M  V30 26 O 1.922248 -3.484938 -1.650740 0
M  V30 27 C 0.988921 -3.703019 0.505824 0
M  V30 28 O -0.002995 -4.478647 0.548866 0
M  V30 29 H -1.195922 -0.828178 3.388619 0
M  V30 30 H -1.036709 -2.607060 3.390776 0
M  V30 31 H -0.638730 -1.648366 1.904387 0
M  V30 32 H 0.240937 -2.587350 5.348601 0
M  V30 33 H 1.889224 -1.727477 5.360915 0
M  V30 34 H 0.379349 -0.820177 5.405352 0
M  V30 35 H 2.453050 -0.494956 2.551909 0
M  V30 36 H 0.808458 0.349948 2.644645 0
M  V30 37 H 1.860281 0.168717 4.077353 0
M  V30 38 H 2.100803 -3.346201 3.499737 0
M  V30 39 H 4.665779 -1.898391 0.263503 0
M  V30 40 H 5.223664 0.376172 -0.680573 0
M  V30 41 H 4.385463 2.666082 -1.359740 0
M  V30 42 H 0.158007 1.875614 0.573518 0
M  V30 43 H -0.049125 -0.144977 -2.577668 0
M  V30 44 H -2.269909 -0.976683 -3.427873 0
M  V30 45 H -2.244518 1.652343 0.675137 0
M  V30 46 H -4.843007 0.508636 0.862303 0
M  V30 47 H -5.251418 1.719210 -0.470388 0
M  V30 48 H -6.530942 -0.199587 -1.230604 0
M  V30 49 H -5.334631 -1.333618 -0.387649 0
M  V30 END ATOM
M  V30 BEGIN BOND
M  V30 1 1 1 2
M  V30 2 1 2 3
M  V30 3 1 2 4
M  V30 4 1 2 5
M  V30 5 1 5 6
M  V30 6 2 6 7
M  V30 7 1 7 8
M  V30 8 1 8 9
M  V30 9 2 9 10
M  V30 10 1 10 11
M  V30 11 2 11 12
M  V30 12 1 12 13
M  V30 13 1 13 14
M  V30 14 1 14 15
M  V30 15 2 15 16
M  V30 16 1 16 17
M  V30 17 2 17 18
M  V30 18 1 18 19
M  V30 19 2 19 20
M  V30 20 1 19 21
M  V30 21 1 21 22
M  V30 22 1 22 23
M  V30 23 2 13 24
M  V30 24 1 7 25
M  V30 25 2 25 26
M  V30 26 1 25 27
M  V30 27 2 27 28
M  V30 28 1 27 6
M  V30 29 1 24 9
M  V30 30 1 20 15
M  V30 31 1 23 18
M  V30 32 1 1 29
M  V30 33 1 1 30
M  V30 34 1 1 31
M  V30 35 1 3 32
M  V30 36 1 3 33
M  V30 37 1 3 34
M  V30 38 1 4 35
M  V30 39 1 4 36
M  V30 40 1 4 37
M  V30 41 1 5 38
M  V30 42 1 8 39
M  V30 43 1 10 40
M  V30 44 1 11 41
M  V30 45 1 14 42
M  V30 46 1 16 43
M  V30 47 1 17 44
M  V30 48 1 20 45
M  V30 49 1 21 46
M  V30 50 1 21 47
M  V30 51 1 22 48
M  V30 52 1 22 49
M  V30 END BOND
M  V30 END CTAB
M  END
>  <Dataset>  (760) 
ChEMBL_Kinases

>  <Ligand_Instance>  (760) 
nan

>  <PDB_ID>  (760) 
nan

>  <Standardized_SMILES>  (760) 
CC(C)(C)Nc1c(Nc2ccnc(Nc3ccc4c(c3)CCO4)n2)c(=O)c1=O

>  <Name>  (760) 
nan

>  <Pocket>  (760) 
nan

>  <ATP_Site>  (760) 
nan

>  <Peripheral>  (760) 
nan

>  <Num_H_Atoms_ProtBoundConf>  (760) 
nan

>  <Num_Resolved_Atoms>  (760) 
nan

>  <Num_Not_Resolved_Atoms>  (760) 
nan

$$$$
CHEMBL2205466
     RDKit          3D

  0  0  0  0  0  0  0  0  0  0999 V3000
M  V30 BEGIN CTAB
M  V30 COUNTS 47 50 0 0 0
M  V30 BEGIN ATOM
M  V30 1 C -1.060330 -2.074060 3.879722 0
M  V30 2 C -0.298593 -2.437117 2.626377 0
M  V30 3 C -1.085602 -3.489116 1.850953 0
M  V30 4 C -0.159162 -1.240802 1.707580 0
M  V30 5 N 1.052076 -2.907951 2.906111 0
M  V30 6 C 1.984717 -3.314317 1.919036 0
M  V30 7 C 2.878472 -2.453368 1.313427 0
M  V30 8 N 3.445158 -1.168097 1.130560 0
M  V30 9 C 3.064202 -0.135343 0.224703 0
M  V30 10 C 3.644085 -0.106974 -1.030890 0
M  V30 11 C 3.256037 0.913535 -1.901943 0
M  V30 12 N 2.355674 1.825829 -1.526839 0
M  V30 13 C 1.806355 1.776663 -0.300723 0
M  V30 14 N 0.839410 2.661791 0.257617 0
M  V30 15 C -0.513610 2.277368 0.034830 0
M  V30 16 C -0.833592 1.136214 -0.666875 0
M  V30 17 C -2.136491 0.727399 -0.905270 0
M  V30 18 C -3.180275 1.485519 -0.425351 0
M  V30 19 N -4.518594 1.313675 -0.516862 0
M  V30 20 N -5.044360 2.348157 0.128165 0
M  V30 21 C -4.110764 3.159144 0.619094 0
M  V30 22 C -2.876527 2.638845 0.284049 0
M  V30 23 C -1.574908 3.040085 0.517770 0
M  V30 24 N 2.161066 0.805230 0.559057 0
M  V30 25 C 3.393564 -3.481130 0.549724 0
M  V30 26 O 4.177696 -3.986126 -0.324544 0
M  V30 27 C 2.499117 -4.342497 1.155867 0
M  V30 28 O 2.020571 -5.520440 1.285033 0
M  V30 29 H -0.410093 -1.595847 4.616980 0
M  V30 30 H -1.549449 -2.961228 4.299749 0
M  V30 31 H -1.870000 -1.355177 3.595688 0
M  V30 32 H -0.462510 -4.380397 1.628966 0
M  V30 33 H -1.989567 -3.795060 2.425223 0
M  V30 34 H -1.465889 -3.102673 0.882931 0
M  V30 35 H -1.142698 -1.101646 1.213076 0
M  V30 36 H 0.145404 -0.390650 2.322066 0
M  V30 37 H 0.576152 -1.494727 0.911304 0
M  V30 38 H 1.321443 -2.937611 3.894864 0
M  V30 39 H 4.267439 -0.748374 1.649228 0
M  V30 40 H 4.373619 -0.868928 -1.297351 0
M  V30 41 H 3.690000 0.960041 -2.883293 0
M  V30 42 H 1.021367 3.519468 0.786206 0
M  V30 43 H -0.068363 0.502126 -1.067117 0
M  V30 44 H -2.342723 -0.192332 -1.471372 0
M  V30 45 H -4.991837 0.514371 -1.005609 0
M  V30 46 H -4.310463 4.072122 1.185457 0
M  V30 47 H -1.387138 3.960134 1.084222 0
M  V30 END ATOM
M  V30 BEGIN BOND
M  V30 1 1 1 2
M  V30 2 1 2 3
M  V30 3 1 2 4
M  V30 4 1 2 5
M  V30 5 1 5 6
M  V30 6 2 6 7
M  V30 7 1 7 8
M  V30 8 1 8 9
M  V30 9 2 9 10
M  V30 10 1 10 11
M  V30 11 2 11 12
M  V30 12 1 12 13
M  V30 13 1 13 14
M  V30 14 1 14 15
M  V30 15 2 15 16
M  V30 16 1 16 17
M  V30 17 2 17 18
M  V30 18 1 18 19
M  V30 19 1 19 20
M  V30 20 2 20 21
M  V30 21 1 21 22
M  V30 22 2 22 23
M  V30 23 2 13 24
M  V30 24 1 7 25
M  V30 25 2 25 26
M  V30 26 1 25 27
M  V30 27 2 27 28
M  V30 28 1 27 6
M  V30 29 1 24 9
M  V30 30 1 23 15
M  V30 31 1 22 18
M  V30 32 1 1 29
M  V30 33 1 1 30
M  V30 34 1 1 31
M  V30 35 1 3 32
M  V30 36 1 3 33
M  V30 37 1 3 34
M  V30 38 1 4 35
M  V30 39 1 4 36
M  V30 40 1 4 37
M  V30 41 1 5 38
M  V30 42 1 8 39
M  V30 43 1 10 40
M  V30 44 1 11 41
M  V30 45 1 14 42
M  V30 46 1 16 43
M  V30 47 1 17 44
M  V30 48 1 19 45
M  V30 49 1 21 46
M  V30 50 1 23 47
M  V30 END BOND
M  V30 END CTAB
M  END
>  <Dataset>  (761) 
ChEMBL_Kinases

>  <Ligand_Instance>  (761) 
nan

>  <PDB_ID>  (761) 
nan

>  <Standardized_SMILES>  (761) 
CC(C)(C)Nc1c(Nc2ccnc(Nc3ccc4[nH]ncc4c3)n2)c(=O)c1=O

>  <Name>  (761) 
nan

>  <Pocket>  (761) 
nan

>  <ATP_Site>  (761) 
nan

>  <Peripheral>  (761) 
nan

>  <Num_H_Atoms_ProtBoundConf>  (761) 
nan

>  <Num_Resolved_Atoms>  (761) 
nan

>  <Num_Not_Resolved_Atoms>  (761) 
nan

$$$$
CHEMBL2205625
     RDKit          3D

  0  0  0  0  0  0  0  0  0  0999 V3000
M  V30 BEGIN CTAB
M  V30 COUNTS 43 45 0 0 0
M  V30 BEGIN ATOM
M  V30 1 C 2.492445 -8.202428 4.531537 0
M  V30 2 C 2.442574 -6.914371 3.800799 0
M  V30 3 C 3.056040 -6.590387 2.610713 0
M  V30 4 C 2.973923 -5.377069 1.978883 0
M  V30 5 C 2.229784 -4.354244 2.531152 0
M  V30 6 N 2.004990 -3.128241 2.120692 0
M  V30 7 C 1.409550 -2.271361 2.538406 0
M  V30 8 N 1.239493 -0.904818 1.951474 0
M  V30 9 C 0.135710 -0.818172 1.090479 0
M  V30 10 O -0.536735 -1.869459 0.936579 0
M  V30 11 C -0.116709 0.477311 0.465343 0
M  V30 12 C 0.600992 1.645272 0.614392 0
M  V30 13 C 0.216733 2.784505 -0.057704 0
M  V30 14 C -0.894594 2.801220 -0.901163 0
M  V30 15 C -1.205879 4.081425 -1.565581 0
M  V30 16 C -0.510053 4.210546 -2.902591 0
M  V30 17 C -0.880743 5.284275 -0.714360 0
M  V30 18 C -2.703664 4.137181 -1.857632 0
M  V30 19 C -1.623787 1.640940 -1.061454 0
M  V30 20 C -1.229406 0.504725 -0.382740 0
M  V30 21 S 0.770707 -3.158870 4.124036 0
M  V30 22 C 1.613174 -4.647430 3.706901 0
M  V30 23 C 1.696085 -5.891259 4.356664 0
M  V30 24 H 3.358940 -8.815259 4.220484 0
M  V30 25 H 2.503677 -8.030395 5.631127 0
M  V30 26 H 1.541045 -8.773877 4.343191 0
M  V30 27 H 3.650041 -7.408453 2.170892 0
M  V30 28 H 3.532840 -5.301299 1.032741 0
M  V30 29 H 1.912837 -0.174425 2.213773 0
M  V30 30 H 1.439791 1.572024 1.271366 0
M  V30 31 H 0.811040 3.674687 0.091558 0
M  V30 32 H 0.546666 4.542652 -2.724248 0
M  V30 33 H -0.539860 3.267291 -3.460781 0
M  V30 34 H -1.016612 4.984368 -3.504799 0
M  V30 35 H 0.174863 5.595567 -0.801616 0
M  V30 36 H -1.187828 5.109014 0.345878 0
M  V30 37 H -1.536816 6.129515 -1.063969 0
M  V30 38 H -3.199276 3.576285 -1.055110 0
M  V30 39 H -2.925171 3.697171 -2.865427 0
M  V30 40 H -3.076531 5.186572 -1.873600 0
M  V30 41 H -2.484917 1.656789 -1.715994 0
M  V30 42 H -1.849779 -0.386805 -0.551196 0
M  V30 43 H 1.139386 -5.920092 5.269693 0
M  V30 END ATOM
M  V30 BEGIN BOND
M  V30 1 1 1 2
M  V30 2 2 2 3
M  V30 3 1 3 4
M  V30 4 2 4 5
M  V30 5 1 5 6
M  V30 6 2 6 7
M  V30 7 1 7 8
M  V30 8 1 8 9
M  V30 9 2 9 10
M  V30 10 1 9 11
M  V30 11 2 11 12
M  V30 12 1 12 13
M  V30 13 2 13 14
M  V30 14 1 14 15
M  V30 15 1 15 16
M  V30 16 1 15 17
M  V30 17 1 15 18
M  V30 18 1 14 19
M  V30 19 2 19 20
M  V30 20 1 7 21
M  V30 21 1 21 22
M  V30 22 2 22 23
M  V30 23 1 23 2
M  V30 24 1 22 5
M  V30 25 1 20 11
M  V30 26 1 1 24
M  V30 27 1 1 25
M  V30 28 1 1 26
M  V30 29 1 3 27
M  V30 30 1 4 28
M  V30 31 1 8 29
M  V30 32 1 12 30
M  V30 33 1 13 31
M  V30 34 1 16 32
M  V30 35 1 16 33
M  V30 36 1 16 34
M  V30 37 1 17 35
M  V30 38 1 17 36
M  V30 39 1 17 37
M  V30 40 1 18 38
M  V30 41 1 18 39
M  V30 42 1 18 40
M  V30 43 1 19 41
M  V30 44 1 20 42
M  V30 45 1 23 43
M  V30 END BOND
M  V30 END CTAB
M  END
>  <Dataset>  (762) 
ChEMBL_Kinases

>  <Ligand_Instance>  (762) 
nan

>  <PDB_ID>  (762) 
nan

>  <Standardized_SMILES>  (762) 
Cc1ccc2nc(NC(=O)c3ccc(C(C)(C)C)cc3)sc2c1

>  <Name>  (762) 
nan

>  <Pocket>  (762) 
nan

>  <ATP_Site>  (762) 
nan

>  <Peripheral>  (762) 
nan

>  <Num_H_Atoms_ProtBoundConf>  (762) 
nan

>  <Num_Resolved_Atoms>  (762) 
nan

>  <Num_Not_Resolved_Atoms>  (762) 
nan

$$$$
CHEMBL2205626
     RDKit          3D

  0  0  0  0  0  0  0  0  0  0999 V3000
M  V30 BEGIN CTAB
M  V30 COUNTS 44 46 0 0 0
M  V30 BEGIN ATOM
M  V30 1 C -0.085061 -8.433054 3.257168 0
M  V30 2 C 0.306651 -7.012085 3.297580 0
M  V30 3 C 1.147789 -6.523106 4.275806 0
M  V30 4 C 1.509705 -5.187728 4.305366 0
M  V30 5 C 0.979534 -4.384892 3.302300 0
M  V30 6 N 1.150774 -3.067590 3.077879 0
M  V30 7 C 0.455819 -2.674991 1.992579 0
M  V30 8 N 0.362987 -1.374176 1.413472 0
M  V30 9 C 1.142463 -0.728037 0.414747 0
M  V30 10 O 2.097630 -1.413332 -0.060711 0
M  V30 11 C 0.780156 0.634461 0.036469 0
M  V30 12 C -0.246693 1.419287 0.522972 0
M  V30 13 C -0.424329 2.695845 0.029267 0
M  V30 14 C 0.389324 3.235396 -0.944549 0
M  V30 15 C 0.134930 4.598185 -1.415828 0
M  V30 16 C -0.819002 4.619182 -2.591474 0
M  V30 17 C 1.382359 5.402997 -1.690972 0
M  V30 18 C -0.589441 5.361560 -0.298658 0
M  V30 19 C 1.434282 2.463713 -1.453301 0
M  V30 20 C 1.599564 1.174354 -0.942473 0
M  V30 21 C -0.169635 -3.834096 1.541881 0
M  V30 22 N 0.158050 -4.867639 2.348737 0
M  V30 23 C -0.205386 -6.184687 2.310724 0
M  V30 24 H -0.203392 -8.892846 4.262520 0
M  V30 25 H 0.607229 -9.043177 2.658080 0
M  V30 26 H -1.095498 -8.574640 2.772687 0
M  V30 27 H 1.545598 -7.189609 5.050742 0
M  V30 28 H 2.153262 -4.747179 5.030703 0
M  V30 29 H -0.456450 -0.965517 1.912180 0
M  V30 30 H -0.842304 0.934515 1.281315 0
M  V30 31 H -1.261019 3.238434 0.474749 0
M  V30 32 H -0.200080 4.474959 -3.494201 0
M  V30 33 H -1.529533 3.767628 -2.506511 0
M  V30 34 H -1.363467 5.578150 -2.581694 0
M  V30 35 H 1.028719 6.348017 -2.175669 0
M  V30 36 H 2.134835 4.904022 -2.295452 0
M  V30 37 H 1.862653 5.725115 -0.744114 0
M  V30 38 H -1.681055 5.168632 -0.337384 0
M  V30 39 H -0.163433 5.088565 0.669322 0
M  V30 40 H -0.474407 6.464380 -0.419537 0
M  V30 41 H 2.084584 2.866140 -2.217033 0
M  V30 42 H 2.435946 0.639514 -1.391645 0
M  V30 43 H -0.810181 -3.825930 0.664571 0
M  V30 44 H -0.866588 -6.549559 1.534975 0
M  V30 END ATOM
M  V30 BEGIN BOND
M  V30 1 1 1 2
M  V30 2 1 2 3
M  V30 3 2 3 4
M  V30 4 1 4 5
M  V30 5 2 5 6
M  V30 6 1 6 7
M  V30 7 1 7 8
M  V30 8 1 8 9
M  V30 9 2 9 10
M  V30 10 1 9 11
M  V30 11 2 11 12
M  V30 12 1 12 13
M  V30 13 2 13 14
M  V30 14 1 14 15
M  V30 15 1 15 16
M  V30 16 1 15 17
M  V30 17 1 15 18
M  V30 18 1 14 19
M  V30 19 2 19 20
M  V30 20 2 7 21
M  V30 21 1 21 22
M  V30 22 1 22 23
M  V30 23 2 23 2
M  V30 24 1 22 5
M  V30 25 1 20 11
M  V30 26 1 1 24
M  V30 27 1 1 25
M  V30 28 1 1 26
M  V30 29 1 3 27
M  V30 30 1 4 28
M  V30 31 1 8 29
M  V30 32 1 12 30
M  V30 33 1 13 31
M  V30 34 1 16 32
M  V30 35 1 16 33
M  V30 36 1 16 34
M  V30 37 1 17 35
M  V30 38 1 17 36
M  V30 39 1 17 37
M  V30 40 1 18 38
M  V30 41 1 18 39
M  V30 42 1 18 40
M  V30 43 1 19 41
M  V30 44 1 20 42
M  V30 45 1 21 43
M  V30 46 1 23 44
M  V30 END BOND
M  V30 END CTAB
M  END
>  <Dataset>  (763) 
ChEMBL_Kinases

>  <Ligand_Instance>  (763) 
nan

>  <PDB_ID>  (763) 
nan

>  <Standardized_SMILES>  (763) 
Cc1ccc2nc(NC(=O)c3ccc(C(C)(C)C)cc3)cn2c1

>  <Name>  (763) 
nan

>  <Pocket>  (763) 
nan

>  <ATP_Site>  (763) 
nan

>  <Peripheral>  (763) 
nan

>  <Num_H_Atoms_ProtBoundConf>  (763) 
nan

>  <Num_Resolved_Atoms>  (763) 
nan

>  <Num_Not_Resolved_Atoms>  (763) 
nan

$$$$
CHEMBL2205627
     RDKit          3D

  0  0  0  0  0  0  0  0  0  0999 V3000
M  V30 BEGIN CTAB
M  V30 COUNTS 41 43 0 0 0
M  V30 BEGIN ATOM
M  V30 1 C 0.197899 -6.035736 1.163121 0
M  V30 2 C 1.415432 -5.106496 1.134145 0
M  V30 3 C 2.199259 -5.365911 2.403552 0
M  V30 4 C 2.223045 -5.532189 -0.070031 0
M  V30 5 C 0.958688 -3.711328 1.050214 0
M  V30 6 C -0.353130 -3.282045 1.003823 0
M  V30 7 C -0.690168 -1.937656 0.924772 0
M  V30 8 C 0.329755 -1.006852 0.892053 0
M  V30 9 C -0.036226 0.399580 0.809183 0
M  V30 10 O -1.261974 0.685734 0.772185 0
M  V30 11 N 0.888989 1.459778 0.767723 0
M  V30 12 C 0.236894 2.723669 0.687605 0
M  V30 13 C -0.220877 3.631160 1.625624 0
M  V30 14 N -0.766558 4.677117 0.982535 0
M  V30 15 C -1.343063 5.805704 1.461564 0
M  V30 16 C -1.832274 6.737188 0.578527 0
M  V30 17 F -2.417893 7.882215 0.996561 0
M  V30 18 C -1.743394 6.536996 -0.783876 0
M  V30 19 C -1.156998 5.388908 -1.277906 0
M  V30 20 C -0.671524 4.465367 -0.360905 0
M  V30 21 N -0.053215 3.262368 -0.509151 0
M  V30 22 C 1.644083 -1.424764 0.937868 0
M  V30 23 C 2.001843 -2.777536 1.017738 0
M  V30 24 H -0.401517 -5.795512 0.259003 0
M  V30 25 H 0.519282 -7.096117 1.104282 0
M  V30 26 H -0.436583 -5.868201 2.052822 0
M  V30 27 H 2.034617 -6.425153 2.693932 0
M  V30 28 H 3.283259 -5.155859 2.212719 0
M  V30 29 H 1.819912 -4.692853 3.198685 0
M  V30 30 H 2.658581 -4.695101 -0.634486 0
M  V30 31 H 3.010049 -6.255918 0.257962 0
M  V30 32 H 1.605766 -6.102596 -0.805402 0
M  V30 33 H -1.116167 -4.048122 1.032088 0
M  V30 34 H -1.734962 -1.654204 0.891000 0
M  V30 35 H 1.892858 1.258590 0.796237 0
M  V30 36 H -0.106498 3.430604 2.678711 0
M  V30 37 H -1.408231 5.953915 2.530990 0
M  V30 38 H -2.097306 7.208018 -1.562365 0
M  V30 39 H -1.024268 5.110092 -2.321289 0
M  V30 40 H 2.460520 -0.697302 0.912635 0
M  V30 41 H 3.044931 -3.045598 1.050634 0
M  V30 END ATOM
M  V30 BEGIN BOND
M  V30 1 1 1 2
M  V30 2 1 2 3
M  V30 3 1 2 4
M  V30 4 1 2 5
M  V30 5 2 5 6
M  V30 6 1 6 7
M  V30 7 2 7 8
M  V30 8 1 8 9
M  V30 9 2 9 10
M  V30 10 1 9 11
M  V30 11 1 11 12
M  V30 12 2 12 13
M  V30 13 1 13 14
M  V30 14 1 14 15
M  V30 15 2 15 16
M  V30 16 1 16 17
M  V30 17 1 16 18
M  V30 18 2 18 19
M  V30 19 1 19 20
M  V30 20 2 20 21
M  V30 21 1 8 22
M  V30 22 2 22 23
M  V30 23 1 23 5
M  V30 24 1 21 12
M  V30 25 1 20 14
M  V30 26 1 1 24
M  V30 27 1 1 25
M  V30 28 1 1 26
M  V30 29 1 3 27
M  V30 30 1 3 28
M  V30 31 1 3 29
M  V30 32 1 4 30
M  V30 33 1 4 31
M  V30 34 1 4 32
M  V30 35 1 6 33
M  V30 36 1 7 34
M  V30 37 1 11 35
M  V30 38 1 13 36
M  V30 39 1 15 37
M  V30 40 1 18 38
M  V30 41 1 19 39
M  V30 42 1 22 40
M  V30 43 1 23 41
M  V30 END BOND
M  V30 END CTAB
M  END
>  <Dataset>  (764) 
ChEMBL_Kinases

>  <Ligand_Instance>  (764) 
nan

>  <PDB_ID>  (764) 
nan

>  <Standardized_SMILES>  (764) 
CC(C)(C)c1ccc(C(=O)Nc2cn3cc(F)ccc3n2)cc1

>  <Name>  (764) 
nan

>  <Pocket>  (764) 
nan

>  <ATP_Site>  (764) 
nan

>  <Peripheral>  (764) 
nan

>  <Num_H_Atoms_ProtBoundConf>  (764) 
nan

>  <Num_Resolved_Atoms>  (764) 
nan

>  <Num_Not_Resolved_Atoms>  (764) 
nan

$$$$
CHEMBL2205628
     RDKit          3D

  0  0  0  0  0  0  0  0  0  0999 V3000
M  V30 BEGIN CTAB
M  V30 COUNTS 41 43 0 0 0
M  V30 BEGIN ATOM
M  V30 1 C 2.378509 -5.534769 1.680807 0
M  V30 2 C 2.311890 -4.827401 0.325029 0
M  V30 3 C 3.750312 -4.647931 -0.109406 0
M  V30 4 C 1.579070 -5.732626 -0.608811 0
M  V30 5 C 1.650014 -3.500965 0.420536 0
M  V30 6 C 0.291864 -3.292056 0.265148 0
M  V30 7 C -0.253849 -2.010732 0.370148 0
M  V30 8 C 0.570652 -0.933155 0.632895 0
M  V30 9 C -0.072416 0.373507 0.728226 0
M  V30 10 O -1.308939 0.445274 0.570222 0
M  V30 11 N 0.605501 1.585968 0.989904 0
M  V30 12 C -0.351558 2.668128 1.011182 0
M  V30 13 C -1.011023 3.080245 2.158880 0
M  V30 14 N -1.847936 4.116053 1.873400 0
M  V30 15 C -2.694368 4.863557 2.604080 0
M  V30 16 C -3.432962 5.875802 2.018840 0
M  V30 17 Cl -4.535715 6.843604 2.991401 0
M  V30 18 C -3.302463 6.128020 0.657897 0
M  V30 19 C -2.419960 5.344417 -0.089513 0
M  V30 20 C -1.691008 4.330691 0.538021 0
M  V30 21 N -0.798056 3.468380 0.017623 0
M  V30 22 C 1.931282 -1.096469 0.794994 0
M  V30 23 C 2.429255 -2.379988 0.683198 0
M  V30 24 H 1.370718 -5.404591 2.145164 0
M  V30 25 H 2.639361 -6.578746 1.486502 0
M  V30 26 H 3.103679 -4.974212 2.289345 0
M  V30 27 H 4.097598 -5.658533 -0.458464 0
M  V30 28 H 3.800751 -3.873758 -0.889313 0
M  V30 29 H 4.346836 -4.342861 0.773643 0
M  V30 30 H 0.568827 -5.940895 -0.240945 0
M  V30 31 H 1.627362 -5.410115 -1.671215 0
M  V30 32 H 2.111576 -6.727099 -0.558892 0
M  V30 33 H -0.332584 -4.136101 0.062245 0
M  V30 34 H -1.318089 -1.920809 0.238065 0
M  V30 35 H 1.637631 1.560590 1.126608 0
M  V30 36 H -0.952796 2.711724 3.185804 0
M  V30 37 H -2.794725 4.661737 3.677362 0
M  V30 38 H -3.895310 6.934625 0.208149 0
M  V30 39 H -2.319343 5.546039 -1.163112 0
M  V30 40 H 2.570637 -0.249077 1.000392 0
M  V30 41 H 3.512612 -2.461522 0.819043 0
M  V30 END ATOM
M  V30 BEGIN BOND
M  V30 1 1 1 2
M  V30 2 1 2 3
M  V30 3 1 2 4
M  V30 4 1 2 5
M  V30 5 2 5 6
M  V30 6 1 6 7
M  V30 7 2 7 8
M  V30 8 1 8 9
M  V30 9 2 9 10
M  V30 10 1 9 11
M  V30 11 1 11 12
M  V30 12 2 12 13
M  V30 13 1 13 14
M  V30 14 1 14 15
M  V30 15 2 15 16
M  V30 16 1 16 17
M  V30 17 1 16 18
M  V30 18 2 18 19
M  V30 19 1 19 20
M  V30 20 2 20 21
M  V30 21 1 8 22
M  V30 22 2 22 23
M  V30 23 1 23 5
M  V30 24 1 21 12
M  V30 25 1 20 14
M  V30 26 1 1 24
M  V30 27 1 1 25
M  V30 28 1 1 26
M  V30 29 1 3 27
M  V30 30 1 3 28
M  V30 31 1 3 29
M  V30 32 1 4 30
M  V30 33 1 4 31
M  V30 34 1 4 32
M  V30 35 1 6 33
M  V30 36 1 7 34
M  V30 37 1 11 35
M  V30 38 1 13 36
M  V30 39 1 15 37
M  V30 40 1 18 38
M  V30 41 1 19 39
M  V30 42 1 22 40
M  V30 43 1 23 41
M  V30 END BOND
M  V30 END CTAB
M  END
>  <Dataset>  (765) 
ChEMBL_Kinases

>  <Ligand_Instance>  (765) 
nan

>  <PDB_ID>  (765) 
nan

>  <Standardized_SMILES>  (765) 
CC(C)(C)c1ccc(C(=O)Nc2cn3cc(Cl)ccc3n2)cc1

>  <Name>  (765) 
nan

>  <Pocket>  (765) 
nan

>  <ATP_Site>  (765) 
nan

>  <Peripheral>  (765) 
nan

>  <Num_H_Atoms_ProtBoundConf>  (765) 
nan

>  <Num_Resolved_Atoms>  (765) 
nan

>  <Num_Not_Resolved_Atoms>  (765) 
nan

$$$$
CHEMBL2205629
     RDKit          3D

  0  0  0  0  0  0  0  0  0  0999 V3000
M  V30 BEGIN CTAB
M  V30 COUNTS 41 43 0 0 0
M  V30 BEGIN ATOM
M  V30 1 C 2.242680 -5.517815 1.690708 0
M  V30 2 C 2.554208 -4.704992 0.430307 0
M  V30 3 C 4.049056 -4.553512 0.393657 0
M  V30 4 C 2.082965 -5.528328 -0.731518 0
M  V30 5 C 1.897898 -3.387285 0.468397 0
M  V30 6 C 0.617863 -3.182108 -0.042326 0
M  V30 7 C -0.009205 -1.933996 -0.008639 0
M  V30 8 C 0.646253 -0.853414 0.546181 0
M  V30 9 C -0.061805 0.424210 0.551663 0
M  V30 10 O -1.204893 0.463506 0.060058 0
M  V30 11 N 0.484308 1.617952 1.086445 0
M  V30 12 C -0.466990 2.692432 0.935007 0
M  V30 13 C -1.349498 2.849137 2.004733 0
M  V30 14 N -2.190754 3.871409 1.766930 0
M  V30 15 C -3.218742 4.489519 2.385505 0
M  V30 16 C -3.895085 5.557305 1.840053 0
M  V30 17 Br -5.330979 6.337098 2.824480 0
M  V30 18 C -3.512601 6.039175 0.584379 0
M  V30 19 C -2.459221 5.410475 -0.056213 0
M  V30 20 C -1.821492 4.338411 0.552085 0
M  V30 21 N -0.778412 3.637670 0.030408 0
M  V30 22 C 1.914380 -1.017419 1.061864 0
M  V30 23 C 2.503950 -2.271919 1.010147 0
M  V30 24 H 1.150957 -5.417606 1.902662 0
M  V30 25 H 2.422065 -6.579944 1.439793 0
M  V30 26 H 2.842814 -5.175219 2.561013 0
M  V30 27 H 4.464527 -5.574689 0.277393 0
M  V30 28 H 4.391314 -3.892012 -0.412333 0
M  V30 29 H 4.431730 -4.143877 1.357898 0
M  V30 30 H 2.317083 -5.115826 -1.721580 0
M  V30 31 H 2.645999 -6.504450 -0.659670 0
M  V30 32 H 1.017505 -5.805002 -0.583113 0
M  V30 33 H 0.072611 -3.999755 -0.483775 0
M  V30 34 H -1.021876 -1.863742 -0.435467 0
M  V30 35 H 1.437914 1.608353 1.502294 0
M  V30 36 H -1.480200 2.318491 2.961062 0
M  V30 37 H -3.503565 4.096913 3.369236 0
M  V30 38 H -4.080532 6.884417 0.200397 0
M  V30 39 H -2.174205 5.796998 -1.031450 0
M  V30 40 H 2.427622 -0.175423 1.495278 0
M  V30 41 H 3.497188 -2.331190 1.431135 0
M  V30 END ATOM
M  V30 BEGIN BOND
M  V30 1 1 1 2
M  V30 2 1 2 3
M  V30 3 1 2 4
M  V30 4 1 2 5
M  V30 5 2 5 6
M  V30 6 1 6 7
M  V30 7 2 7 8
M  V30 8 1 8 9
M  V30 9 2 9 10
M  V30 10 1 9 11
M  V30 11 1 11 12
M  V30 12 2 12 13
M  V30 13 1 13 14
M  V30 14 1 14 15
M  V30 15 2 15 16
M  V30 16 1 16 17
M  V30 17 1 16 18
M  V30 18 2 18 19
M  V30 19 1 19 20
M  V30 20 2 20 21
M  V30 21 1 8 22
M  V30 22 2 22 23
M  V30 23 1 23 5
M  V30 24 1 21 12
M  V30 25 1 20 14
M  V30 26 1 1 24
M  V30 27 1 1 25
M  V30 28 1 1 26
M  V30 29 1 3 27
M  V30 30 1 3 28
M  V30 31 1 3 29
M  V30 32 1 4 30
M  V30 33 1 4 31
M  V30 34 1 4 32
M  V30 35 1 6 33
M  V30 36 1 7 34
M  V30 37 1 11 35
M  V30 38 1 13 36
M  V30 39 1 15 37
M  V30 40 1 18 38
M  V30 41 1 19 39
M  V30 42 1 22 40
M  V30 43 1 23 41
M  V30 END BOND
M  V30 END CTAB
M  END
>  <Dataset>  (766) 
ChEMBL_Kinases

>  <Ligand_Instance>  (766) 
nan

>  <PDB_ID>  (766) 
nan

>  <Standardized_SMILES>  (766) 
CC(C)(C)c1ccc(C(=O)Nc2cn3cc(Br)ccc3n2)cc1

>  <Name>  (766) 
nan

>  <Pocket>  (766) 
nan

>  <ATP_Site>  (766) 
nan

>  <Peripheral>  (766) 
nan

>  <Num_H_Atoms_ProtBoundConf>  (766) 
nan

>  <Num_Resolved_Atoms>  (766) 
nan

>  <Num_Not_Resolved_Atoms>  (766) 
nan

$$$$
CHEMBL2205463
     RDKit          3D

  0  0  0  0  0  0  0  0  0  0999 V3000
M  V30 BEGIN CTAB
M  V30 COUNTS 57 60 0 0 0
M  V30 BEGIN ATOM
M  V30 1 C 1.777826 -0.115961 4.797497 0
M  V30 2 C 1.633393 -0.184983 3.292242 0
M  V30 3 C 0.775699 -1.395329 2.972237 0
M  V30 4 C 0.989336 1.090974 2.819405 0
M  V30 5 N 2.942514 -0.388256 2.697572 0
M  V30 6 C 3.178910 -0.501038 1.287328 0
M  V30 7 C 3.461019 -0.013590 0.020361 0
M  V30 8 N 3.647280 1.396545 -0.088983 0
M  V30 9 C 2.609076 2.329249 -0.352452 0
M  V30 10 C 2.807268 3.685796 -0.454560 0
M  V30 11 C 1.700813 4.459529 -0.713291 0
M  V30 12 N 0.501149 3.897833 -0.854752 0
M  V30 13 C 0.273147 2.579198 -0.761322 0
M  V30 14 N -1.043475 2.080239 -0.927905 0
M  V30 15 C -1.485539 0.735108 -0.868630 0
M  V30 16 C -0.676092 -0.351025 -0.634131 0
M  V30 17 C -1.108988 -1.656793 -0.576963 0
M  V30 18 C -2.445349 -1.932733 -0.763900 0
M  V30 19 N -3.005304 -3.255107 -0.728927 0
M  V30 20 C -4.417297 -3.595493 -0.852618 0
M  V30 21 C -4.558001 -4.424221 -2.114211 0
M  V30 22 O -3.764247 -5.537616 -2.036985 0
M  V30 23 C -2.415528 -5.249731 -1.875855 0
M  V30 24 C -2.223584 -4.467757 -0.567115 0
M  V30 25 C -3.280508 -0.863830 -1.000893 0
M  V30 26 C -2.815609 0.432770 -1.052011 0
M  V30 27 N 1.369881 1.857454 -0.509340 0
M  V30 28 C 3.405095 -1.290019 -0.516811 0
M  V30 29 O 3.619120 -1.349128 -1.764635 0
M  V30 30 C 3.123252 -1.774226 0.750819 0
M  V30 31 O 2.973674 -3.042389 0.747933 0
M  V30 32 H 0.963030 0.502460 5.198780 0
M  V30 33 H 1.689455 -1.130747 5.260706 0
M  V30 34 H 2.746299 0.372569 5.035335 0
M  V30 35 H 1.392658 -2.311302 2.876424 0
M  V30 36 H 0.349548 -1.207615 1.961515 0
M  V30 37 H -0.045185 -1.527128 3.709334 0
M  V30 38 H 1.767825 1.721316 2.356262 0
M  V30 39 H 0.538051 1.642890 3.677848 0
M  V30 40 H 0.184199 0.895080 2.072944 0
M  V30 41 H 3.800870 -0.463116 3.307876 0
M  V30 42 H 4.628806 1.785863 0.033898 0
M  V30 43 H 3.826003 4.020323 -0.320306 0
M  V30 44 H 1.855087 5.520000 -0.793241 0
M  V30 45 H -1.787136 2.810889 -1.121035 0
M  V30 46 H 0.376819 -0.218947 -0.478685 0
M  V30 47 H -0.421428 -2.455499 -0.389304 0
M  V30 48 H -5.096891 -2.748290 -0.824883 0
M  V30 49 H -4.645862 -4.280480 0.017006 0
M  V30 50 H -4.434370 -3.795929 -3.003042 0
M  V30 51 H -5.618148 -4.806406 -2.181347 0
M  V30 52 H -1.964240 -4.685980 -2.691640 0
M  V30 53 H -1.890224 -6.226826 -1.784478 0
M  V30 54 H -2.691773 -5.114629 0.213084 0
M  V30 55 H -1.165407 -4.294557 -0.403721 0
M  V30 56 H -4.346606 -0.936442 -1.165815 0
M  V30 57 H -3.498298 1.263281 -1.241533 0
M  V30 END ATOM
M  V30 BEGIN BOND
M  V30 1 1 1 2
M  V30 2 1 2 3
M  V30 3 1 2 4
M  V30 4 1 2 5
M  V30 5 1 5 6
M  V30 6 2 6 7
M  V30 7 1 7 8
M  V30 8 1 8 9
M  V30 9 2 9 10
M  V30 10 1 10 11
M  V30 11 2 11 12
M  V30 12 1 12 13
M  V30 13 1 13 14
M  V30 14 1 14 15
M  V30 15 2 15 16
M  V30 16 1 16 17
M  V30 17 2 17 18
M  V30 18 1 18 19
M  V30 19 1 19 20
M  V30 20 1 20 21
M  V30 21 1 21 22
M  V30 22 1 22 23
M  V30 23 1 23 24
M  V30 24 1 18 25
M  V30 25 2 25 26
M  V30 26 2 13 27
M  V30 27 1 7 28
M  V30 28 2 28 29
M  V30 29 1 28 30
M  V30 30 2 30 31
M  V30 31 1 30 6
M  V30 32 1 27 9
M  V30 33 1 26 15
M  V30 34 1 24 19
M  V30 35 1 1 32
M  V30 36 1 1 33
M  V30 37 1 1 34
M  V30 38 1 3 35
M  V30 39 1 3 36
M  V30 40 1 3 37
M  V30 41 1 4 38
M  V30 42 1 4 39
M  V30 43 1 4 40
M  V30 44 1 5 41
M  V30 45 1 8 42
M  V30 46 1 10 43
M  V30 47 1 11 44
M  V30 48 1 14 45
M  V30 49 1 16 46
M  V30 50 1 17 47
M  V30 51 1 20 48
M  V30 52 1 20 49
M  V30 53 1 21 50
M  V30 54 1 21 51
M  V30 55 1 23 52
M  V30 56 1 23 53
M  V30 57 1 24 54
M  V30 58 1 24 55
M  V30 59 1 25 56
M  V30 60 1 26 57
M  V30 END BOND
M  V30 END CTAB
M  END
>  <Dataset>  (767) 
ChEMBL_Kinases

>  <Ligand_Instance>  (767) 
nan

>  <PDB_ID>  (767) 
nan

>  <Standardized_SMILES>  (767) 
CC(C)(C)Nc1c(Nc2ccnc(Nc3ccc(N4CCOCC4)cc3)n2)c(=O)c1=O

>  <Name>  (767) 
nan

>  <Pocket>  (767) 
nan

>  <ATP_Site>  (767) 
nan

>  <Peripheral>  (767) 
nan

>  <Num_H_Atoms_ProtBoundConf>  (767) 
nan

>  <Num_Resolved_Atoms>  (767) 
nan

>  <Num_Not_Resolved_Atoms>  (767) 
nan

$$$$
CHEMBL2207510
     RDKit          3D

  0  0  0  0  0  0  0  0  0  0999 V3000
M  V30 BEGIN CTAB
M  V30 COUNTS 49 53 0 0 0
M  V30 BEGIN ATOM
M  V30 1 C -2.010898 -3.187846 3.255196 0
M  V30 2 C -0.593130 -3.438934 2.883866 0
M  V30 3 C -0.130979 -3.754077 1.624844 0
M  V30 4 C 1.236949 -3.903466 1.719603 0
M  V30 5 C 2.272411 -4.236036 0.720671 0
M  V30 6 N 2.848219 -3.108070 0.057011 0
M  V30 7 C 3.493460 -2.183193 0.927379 0
M  V30 8 C 2.698126 -0.919202 1.156351 0
M  V30 9 N 2.370986 -0.282756 -0.112166 0
M  V30 10 C 2.118612 1.115492 -0.254356 0
M  V30 11 C 3.025331 2.112025 -0.524342 0
M  V30 12 Cl 4.679523 1.590403 -0.713451 0
M  V30 13 C 2.593624 3.419710 -0.626950 0
M  V30 14 N 1.285930 3.742131 -0.465805 0
M  V30 15 C 0.364406 2.778693 -0.197816 0
M  V30 16 N -0.969888 2.861052 -0.001419 0
M  V30 17 C -1.410594 1.609701 0.229279 0
M  V30 18 C -2.756757 1.108862 0.503107 0
M  V30 19 C -3.841503 1.961210 0.560810 0
M  V30 20 C -4.951620 1.188945 0.833221 0
M  V30 21 C -6.409398 1.410748 1.030587 0
M  V30 22 O -4.530316 -0.071149 0.931345 0
M  V30 23 N -3.246019 -0.139483 0.740970 0
M  V30 24 N -0.362251 0.765431 0.176085 0
M  V30 25 C 0.768287 1.445147 -0.087534 0
M  V30 26 C 2.301284 -1.134976 -1.293062 0
M  V30 27 C 1.948627 -2.554572 -0.899972 0
M  V30 28 N 1.538631 -3.672664 3.027025 0
M  V30 29 O 0.432829 -3.402672 3.678345 0
M  V30 30 H -2.110701 -2.175106 3.700918 0
M  V30 31 H -2.670879 -3.332381 2.397823 0
M  V30 32 H -2.327187 -3.890465 4.051690 0
M  V30 33 H -0.672393 -3.873939 0.714328 0
M  V30 34 H 3.113735 -4.800047 1.218521 0
M  V30 35 H 1.896543 -4.946482 -0.052334 0
M  V30 36 H 3.727804 -2.584547 1.924303 0
M  V30 37 H 4.458670 -1.876387 0.472945 0
M  V30 38 H 3.401624 -0.218530 1.686837 0
M  V30 39 H 1.816663 -1.060289 1.785516 0
M  V30 40 H 3.371306 4.142212 -0.841362 0
M  V30 41 H -1.599165 3.689961 -0.011257 0
M  V30 42 H -3.988608 3.023394 0.445822 0
M  V30 43 H -6.976599 0.807363 0.271049 0
M  V30 44 H -6.686938 1.144406 2.060298 0
M  V30 45 H -6.605037 2.458963 0.756062 0
M  V30 46 H 1.474716 -0.767281 -1.919555 0
M  V30 47 H 3.271373 -1.169183 -1.817250 0
M  V30 48 H 2.061439 -3.161389 -1.833650 0
M  V30 49 H 0.872653 -2.638175 -0.643927 0
M  V30 END ATOM
M  V30 BEGIN BOND
M  V30 1 1 1 2
M  V30 2 2 2 3
M  V30 3 1 3 4
M  V30 4 1 4 5
M  V30 5 1 5 6
M  V30 6 1 6 7
M  V30 7 1 7 8
M  V30 8 1 8 9
M  V30 9 1 9 10
M  V30 10 2 10 11
M  V30 11 1 11 12
M  V30 12 1 11 13
M  V30 13 2 13 14
M  V30 14 1 14 15
M  V30 15 1 15 16
M  V30 16 1 16 17
M  V30 17 1 17 18
M  V30 18 1 18 19
M  V30 19 2 19 20
M  V30 20 1 20 21
M  V30 21 1 20 22
M  V30 22 1 22 23
M  V30 23 2 17 24
M  V30 24 1 24 25
M  V30 25 1 9 26
M  V30 26 1 26 27
M  V30 27 2 4 28
M  V30 28 1 28 29
M  V30 29 1 29 2
M  V30 30 1 27 6
M  V30 31 1 25 10
M  V30 32 2 25 15
M  V30 33 2 23 18
M  V30 34 1 1 30
M  V30 35 1 1 31
M  V30 36 1 1 32
M  V30 37 1 3 33
M  V30 38 1 5 34
M  V30 39 1 5 35
M  V30 40 1 7 36
M  V30 41 1 7 37
M  V30 42 1 8 38
M  V30 43 1 8 39
M  V30 44 1 13 40
M  V30 45 1 16 41
M  V30 46 1 19 42
M  V30 47 1 21 43
M  V30 48 1 21 44
M  V30 49 1 21 45
M  V30 50 1 26 46
M  V30 51 1 26 47
M  V30 52 1 27 48
M  V30 53 1 27 49
M  V30 END BOND
M  V30 END CTAB
M  END
>  <Dataset>  (768) 
ChEMBL_Kinases

>  <Ligand_Instance>  (768) 
nan

>  <PDB_ID>  (768) 
nan

>  <Standardized_SMILES>  (768) 
Cc1cc(CN2CCN(c3c(Cl)cnc4[nH]c(-c5cc(C)on5)nc34)CC2)no1

>  <Name>  (768) 
nan

>  <Pocket>  (768) 
nan

>  <ATP_Site>  (768) 
nan

>  <Peripheral>  (768) 
nan

>  <Num_H_Atoms_ProtBoundConf>  (768) 
nan

>  <Num_Resolved_Atoms>  (768) 
nan

>  <Num_Not_Resolved_Atoms>  (768) 
nan

$$$$
CHEMBL2207509
     RDKit          3D

  0  0  0  0  0  0  0  0  0  0999 V3000
M  V30 BEGIN CTAB
M  V30 COUNTS 52 56 0 0 0
M  V30 BEGIN ATOM
M  V30 1 C -1.078649 0.883941 4.775494 0
M  V30 2 C -0.435619 -0.287486 4.092715 0
M  V30 3 C 0.910773 -0.593223 4.120493 0
M  V30 4 C 1.121778 -1.740407 3.378663 0
M  V30 5 C 2.379655 -2.479870 3.096419 0
M  V30 6 N 2.986293 -1.987934 1.916870 0
M  V30 7 C 3.361877 -0.646139 1.873254 0
M  V30 8 C 2.536964 0.204993 0.899854 0
M  V30 9 N 2.547010 -0.469233 -0.389775 0
M  V30 10 C 1.907443 0.418621 -1.256137 0
M  V30 11 C 2.637852 1.366080 -1.943382 0
M  V30 12 Br 4.532939 1.523242 -1.759662 0
M  V30 13 C 1.927370 2.209497 -2.783556 0
M  V30 14 N 0.587411 2.135641 -2.945324 0
M  V30 15 C -0.119246 1.196298 -2.261020 0
M  V30 16 N -1.441021 0.894437 -2.224841 0
M  V30 17 C -1.639315 -0.126908 -1.385123 0
M  V30 18 C -2.954556 -0.697610 -1.117919 0
M  V30 19 N -4.084948 -0.246722 -1.692909 0
M  V30 20 C -5.125383 -0.998005 -1.225312 0
M  V30 21 C -6.602205 -1.059024 -1.420861 0
M  V30 22 O -4.622057 -1.882276 -0.385109 0
M  V30 23 C -3.330604 -1.736238 -0.293308 0
M  V30 24 C -2.397258 -2.531990 0.543335 0
M  V30 25 N -0.435705 -0.468221 -0.891372 0
M  V30 26 C 0.528469 0.325362 -1.407874 0
M  V30 27 C 3.164667 -1.783394 -0.454276 0
M  V30 28 C 2.781273 -2.674659 0.704779 0
M  V30 29 N -0.122332 -2.075211 2.933961 0
M  V30 30 O -0.994925 -1.215585 3.364976 0
M  V30 31 H -2.163385 0.782961 4.712815 0
M  V30 32 H -0.831140 1.833367 4.237237 0
M  V30 33 H -0.670393 0.923881 5.799967 0
M  V30 34 H 1.664248 -0.041638 4.626595 0
M  V30 35 H 3.060776 -2.251887 3.949245 0
M  V30 36 H 2.240470 -3.578776 3.100915 0
M  V30 37 H 4.449027 -0.605336 1.587847 0
M  V30 38 H 3.315198 -0.210927 2.892442 0
M  V30 39 H 1.530220 0.265085 1.319985 0
M  V30 40 H 3.090476 1.170832 0.859141 0
M  V30 41 H 2.459185 2.972623 -3.346576 0
M  V30 42 H -2.123970 1.439098 -2.805006 0
M  V30 43 H -7.062314 -0.673462 -0.464648 0
M  V30 44 H -6.896818 -0.319542 -2.185013 0
M  V30 45 H -6.949875 -2.074343 -1.656336 0
M  V30 46 H -2.727434 -2.398550 1.586268 0
M  V30 47 H -2.544032 -3.621285 0.284820 0
M  V30 48 H -1.353098 -2.282039 0.342969 0
M  V30 49 H 2.822217 -2.338336 -1.374761 0
M  V30 50 H 4.262390 -1.704042 -0.575207 0
M  V30 51 H 1.773861 -3.100016 0.574783 0
M  V30 52 H 3.490782 -3.542189 0.653152 0
M  V30 END ATOM
M  V30 BEGIN BOND
M  V30 1 1 1 2
M  V30 2 2 2 3
M  V30 3 1 3 4
M  V30 4 1 4 5
M  V30 5 1 5 6
M  V30 6 1 6 7
M  V30 7 1 7 8
M  V30 8 1 8 9
M  V30 9 1 9 10
M  V30 10 2 10 11
M  V30 11 1 11 12
M  V30 12 1 11 13
M  V30 13 2 13 14
M  V30 14 1 14 15
M  V30 15 1 15 16
M  V30 16 1 16 17
M  V30 17 1 17 18
M  V30 18 1 18 19
M  V30 19 2 19 20
M  V30 20 1 20 21
M  V30 21 1 20 22
M  V30 22 1 22 23
M  V30 23 1 23 24
M  V30 24 2 17 25
M  V30 25 1 25 26
M  V30 26 1 9 27
M  V30 27 1 27 28
M  V30 28 2 4 29
M  V30 29 1 29 30
M  V30 30 1 30 2
M  V30 31 1 28 6
M  V30 32 1 26 10
M  V30 33 2 26 15
M  V30 34 2 23 18
M  V30 35 1 1 31
M  V30 36 1 1 32
M  V30 37 1 1 33
M  V30 38 1 3 34
M  V30 39 1 5 35
M  V30 40 1 5 36
M  V30 41 1 7 37
M  V30 42 1 7 38
M  V30 43 1 8 39
M  V30 44 1 8 40
M  V30 45 1 13 41
M  V30 46 1 16 42
M  V30 47 1 21 43
M  V30 48 1 21 44
M  V30 49 1 21 45
M  V30 50 1 24 46
M  V30 51 1 24 47
M  V30 52 1 24 48
M  V30 53 1 27 49
M  V30 54 1 27 50
M  V30 55 1 28 51
M  V30 56 1 28 52
M  V30 END BOND
M  V30 END CTAB
M  END
>  <Dataset>  (769) 
ChEMBL_Kinases

>  <Ligand_Instance>  (769) 
nan

>  <PDB_ID>  (769) 
nan

>  <Standardized_SMILES>  (769) 
Cc1cc(CN2CCN(c3c(Br)cnc4[nH]c(-c5nc(C)oc5C)nc34)CC2)no1

>  <Name>  (769) 
nan

>  <Pocket>  (769) 
nan

>  <ATP_Site>  (769) 
nan

>  <Peripheral>  (769) 
nan

>  <Num_H_Atoms_ProtBoundConf>  (769) 
nan

>  <Num_Resolved_Atoms>  (769) 
nan

>  <Num_Not_Resolved_Atoms>  (769) 
nan

$$$$
CHEMBL2207508
     RDKit          3D

  0  0  0  0  0  0  0  0  0  0999 V3000
M  V30 BEGIN CTAB
M  V30 COUNTS 47 51 0 0 0
M  V30 BEGIN ATOM
M  V30 1 C -0.474815 -5.838932 4.003024 0
M  V30 2 C -0.170725 -4.512593 3.435359 0
M  V30 3 C 0.208025 -3.400205 4.169680 0
M  V30 4 C 0.402188 -2.355168 3.277874 0
M  V30 5 C 0.797143 -0.966973 3.434042 0
M  V30 6 N -0.230941 -0.004943 3.628566 0
M  V30 7 C 0.268240 1.343925 3.772611 0
M  V30 8 C -0.547172 2.221898 2.813670 0
M  V30 9 N -0.294935 1.634640 1.516384 0
M  V30 10 C 0.607607 2.011960 0.495411 0
M  V30 11 C 1.521487 3.033792 0.586588 0
M  V30 12 Cl 1.729450 3.972119 2.047810 0
M  V30 13 C 2.393769 3.457042 -0.394603 0
M  V30 14 N 2.344804 2.787361 -1.587568 0
M  V30 15 C 1.455408 1.777244 -1.705416 0
M  V30 16 N 1.307111 1.049908 -2.820272 0
M  V30 17 C 0.341309 0.158354 -2.562794 0
M  V30 18 C -0.191277 -0.863204 -3.457241 0
M  V30 19 C 0.258795 -1.046516 -4.748229 0
M  V30 20 C -0.530356 -2.111742 -5.196597 0
M  V30 21 O -1.357837 -2.500584 -4.242693 0
M  V30 22 C -1.189468 -1.765624 -3.154100 0
M  V30 23 N -0.047794 0.387739 -1.307976 0
M  V30 24 C 0.595815 1.370694 -0.718824 0
M  V30 25 C -1.145823 0.473478 1.389800 0
M  V30 26 C -1.352413 -0.112757 2.762847 0
M  V30 27 N 0.130866 -2.892011 2.057220 0
M  V30 28 O -0.197182 -4.139346 2.179464 0
M  V30 29 H 0.293903 -6.198876 4.710689 0
M  V30 30 H -1.482013 -5.929719 4.450616 0
M  V30 31 H -0.485589 -6.567230 3.141789 0
M  V30 32 H 0.351670 -3.272392 5.233725 0
M  V30 33 H 1.463164 -0.912606 4.341021 0
M  V30 34 H 1.434638 -0.649128 2.583938 0
M  V30 35 H 1.295151 1.330021 3.360310 0
M  V30 36 H 0.308215 1.727566 4.786784 0
M  V30 37 H -0.364167 3.281808 2.917123 0
M  V30 38 H -1.639302 2.121605 3.127981 0
M  V30 39 H 3.101480 4.249222 -0.323753 0
M  V30 40 H 1.793188 1.094663 -3.739894 0
M  V30 41 H 1.007953 -0.547212 -5.323810 0
M  V30 42 H -0.518688 -2.601946 -6.179500 0
M  V30 43 H -1.751472 -1.883778 -2.220806 0
M  V30 44 H -2.153722 0.886360 1.085584 0
M  V30 45 H -0.890636 -0.253433 0.640342 0
M  V30 46 H -2.284446 0.227429 3.245766 0
M  V30 47 H -1.520519 -1.216181 2.609652 0
M  V30 END ATOM
M  V30 BEGIN BOND
M  V30 1 1 1 2
M  V30 2 2 2 3
M  V30 3 1 3 4
M  V30 4 1 4 5
M  V30 5 1 5 6
M  V30 6 1 6 7
M  V30 7 1 7 8
M  V30 8 1 8 9
M  V30 9 1 9 10
M  V30 10 2 10 11
M  V30 11 1 11 12
M  V30 12 1 11 13
M  V30 13 2 13 14
M  V30 14 1 14 15
M  V30 15 1 15 16
M  V30 16 1 16 17
M  V30 17 1 17 18
M  V30 18 1 18 19
M  V30 19 2 19 20
M  V30 20 1 20 21
M  V30 21 1 21 22
M  V30 22 2 17 23
M  V30 23 1 23 24
M  V30 24 1 9 25
M  V30 25 1 25 26
M  V30 26 2 4 27
M  V30 27 1 27 28
M  V30 28 1 28 2
M  V30 29 1 26 6
M  V30 30 1 24 10
M  V30 31 2 24 15
M  V30 32 2 22 18
M  V30 33 1 1 29
M  V30 34 1 1 30
M  V30 35 1 1 31
M  V30 36 1 3 32
M  V30 37 1 5 33
M  V30 38 1 5 34
M  V30 39 1 7 35
M  V30 40 1 7 36
M  V30 41 1 8 37
M  V30 42 1 8 38
M  V30 43 1 13 39
M  V30 44 1 16 40
M  V30 45 1 19 41
M  V30 46 1 20 42
M  V30 47 1 22 43
M  V30 48 1 25 44
M  V30 49 1 25 45
M  V30 50 1 26 46
M  V30 51 1 26 47
M  V30 END BOND
M  V30 END CTAB
M  END
>  <Dataset>  (770) 
ChEMBL_Kinases

>  <Ligand_Instance>  (770) 
nan

>  <PDB_ID>  (770) 
nan

>  <Standardized_SMILES>  (770) 
Cc1cc(CN2CCN(c3c(Cl)cnc4[nH]c(-c5ccoc5)nc34)CC2)no1

>  <Name>  (770) 
nan

>  <Pocket>  (770) 
nan

>  <ATP_Site>  (770) 
nan

>  <Peripheral>  (770) 
nan

>  <Num_H_Atoms_ProtBoundConf>  (770) 
nan

>  <Num_Resolved_Atoms>  (770) 
nan

>  <Num_Not_Resolved_Atoms>  (770) 
nan

$$$$
CHEMBL2207507
     RDKit          3D

  0  0  0  0  0  0  0  0  0  0999 V3000
M  V30 BEGIN CTAB
M  V30 COUNTS 50 54 0 0 0
M  V30 BEGIN ATOM
M  V30 1 C 1.482837 -6.211423 2.491779 0
M  V30 2 C 1.904661 -5.375265 1.348747 0
M  V30 3 C 1.145941 -4.673164 0.436089 0
M  V30 4 C 2.105159 -4.101113 -0.374267 0
M  V30 5 C 1.834864 -3.224565 -1.542227 0
M  V30 6 N 1.762794 -1.848922 -1.227073 0
M  V30 7 C 2.896894 -1.230230 -0.656137 0
M  V30 8 C 2.589676 0.026081 0.082626 0
M  V30 9 N 1.695354 0.840158 -0.717926 0
M  V30 10 C 1.193768 2.070459 -0.190060 0
M  V30 11 C 1.764438 3.321373 -0.305029 0
M  V30 12 Cl 3.269566 3.394239 -1.199699 0
M  V30 13 C 1.147960 4.414623 0.267179 0
M  V30 14 N -0.003761 4.334533 0.947211 0
M  V30 15 C -0.604833 3.140971 1.091057 0
M  V30 16 N -1.725391 2.689969 1.684472 0
M  V30 17 C -1.883611 1.364539 1.537104 0
M  V30 18 C -2.942893 0.486239 2.015118 0
M  V30 19 N -2.968320 -0.858972 1.784236 0
M  V30 20 C -4.037674 -1.418608 2.326552 0
M  V30 21 C -4.697902 -0.370725 2.916457 0
M  V30 22 N -4.030446 0.806151 2.729410 0
M  V30 23 C -4.427766 2.099586 3.205449 0
M  V30 24 N -0.801923 1.012824 0.820092 0
M  V30 25 C -0.008042 2.032280 0.527894 0
M  V30 26 C 1.302737 0.420497 -2.050073 0
M  V30 27 C 1.006839 -1.045384 -2.135290 0
M  V30 28 N 3.340647 -4.442974 0.033526 0
M  V30 29 O 3.168977 -5.207471 1.069542 0
M  V30 30 H 1.739397 -5.689124 3.444947 0
M  V30 31 H 0.381420 -6.316650 2.510795 0
M  V30 32 H 1.874812 -7.250519 2.449551 0
M  V30 33 H 0.086115 -4.620382 0.409846 0
M  V30 34 H 2.654266 -3.359716 -2.284958 0
M  V30 35 H 0.911396 -3.517873 -2.071932 0
M  V30 36 H 3.435053 -1.979253 -0.052842 0
M  V30 37 H 3.581600 -0.941542 -1.506613 0
M  V30 38 H 3.534568 0.559230 0.319803 0
M  V30 39 H 2.090014 -0.139635 1.055404 0
M  V30 40 H 1.629868 5.387888 0.154787 0
M  V30 41 H -2.368232 3.334602 2.190369 0
M  V30 42 H -4.307628 -2.463206 2.298071 0
M  V30 43 H -5.636261 -0.424764 3.472374 0
M  V30 44 H -3.758580 2.544261 3.965677 0
M  V30 45 H -4.689203 2.797520 2.370867 0
M  V30 46 H -5.409178 1.982617 3.756541 0
M  V30 47 H 0.409182 0.957594 -2.409006 0
M  V30 48 H 2.140730 0.678379 -2.729578 0
M  V30 49 H -0.067267 -1.226953 -1.921155 0
M  V30 50 H 1.188901 -1.399615 -3.170443 0
M  V30 END ATOM
M  V30 BEGIN BOND
M  V30 1 1 1 2
M  V30 2 2 2 3
M  V30 3 1 3 4
M  V30 4 1 4 5
M  V30 5 1 5 6
M  V30 6 1 6 7
M  V30 7 1 7 8
M  V30 8 1 8 9
M  V30 9 1 9 10
M  V30 10 2 10 11
M  V30 11 1 11 12
M  V30 12 1 11 13
M  V30 13 2 13 14
M  V30 14 1 14 15
M  V30 15 1 15 16
M  V30 16 1 16 17
M  V30 17 1 17 18
M  V30 18 2 18 19
M  V30 19 1 19 20
M  V30 20 2 20 21
M  V30 21 1 21 22
M  V30 22 1 22 23
M  V30 23 2 17 24
M  V30 24 1 24 25
M  V30 25 1 9 26
M  V30 26 1 26 27
M  V30 27 2 4 28
M  V30 28 1 28 29
M  V30 29 1 29 2
M  V30 30 1 27 6
M  V30 31 1 25 10
M  V30 32 2 25 15
M  V30 33 1 22 18
M  V30 34 1 1 30
M  V30 35 1 1 31
M  V30 36 1 1 32
M  V30 37 1 3 33
M  V30 38 1 5 34
M  V30 39 1 5 35
M  V30 40 1 7 36
M  V30 41 1 7 37
M  V30 42 1 8 38
M  V30 43 1 8 39
M  V30 44 1 13 40
M  V30 45 1 16 41
M  V30 46 1 20 42
M  V30 47 1 21 43
M  V30 48 1 23 44
M  V30 49 1 23 45
M  V30 50 1 23 46
M  V30 51 1 26 47
M  V30 52 1 26 48
M  V30 53 1 27 49
M  V30 54 1 27 50
M  V30 END BOND
M  V30 END CTAB
M  END
>  <Dataset>  (771) 
ChEMBL_Kinases

>  <Ligand_Instance>  (771) 
nan

>  <PDB_ID>  (771) 
nan

>  <Standardized_SMILES>  (771) 
Cc1cc(CN2CCN(c3c(Cl)cnc4[nH]c(-c5nccn5C)nc34)CC2)no1

>  <Name>  (771) 
nan

>  <Pocket>  (771) 
nan

>  <ATP_Site>  (771) 
nan

>  <Peripheral>  (771) 
nan

>  <Num_H_Atoms_ProtBoundConf>  (771) 
nan

>  <Num_Resolved_Atoms>  (771) 
nan

>  <Num_Not_Resolved_Atoms>  (771) 
nan

$$$$
CHEMBL2207506
     RDKit          3D

  0  0  0  0  0  0  0  0  0  0999 V3000
M  V30 BEGIN CTAB
M  V30 COUNTS 50 54 0 0 0
M  V30 BEGIN ATOM
M  V30 1 C -0.651220 -4.058639 3.099913 0
M  V30 2 C 0.677316 -3.771006 2.502351 0
M  V30 3 C 0.904466 -3.499718 1.173371 0
M  V30 4 C 2.257726 -3.295260 1.053667 0
M  V30 5 C 2.990949 -2.969887 -0.196548 0
M  V30 6 N 3.091441 -1.603994 -0.429302 0
M  V30 7 C 3.739224 -0.779296 0.502048 0
M  V30 8 C 2.712229 0.283904 0.900512 0
M  V30 9 N 2.126656 0.884436 -0.277061 0
M  V30 10 C 1.189082 1.889891 0.102865 0
M  V30 11 C 1.536319 3.231376 0.291849 0
M  V30 12 Br 3.358542 3.667278 0.013189 0
M  V30 13 C 0.572524 4.161978 0.662606 0
M  V30 14 N -0.725531 3.782276 0.847794 0
M  V30 15 C -1.068523 2.494730 0.668340 0
M  V30 16 N -2.228539 1.821224 0.769544 0
M  V30 17 C -2.100753 0.513977 0.492645 0
M  V30 18 C -3.080750 -0.561831 0.480671 0
M  V30 19 C -2.793451 -1.892311 0.167340 0
M  V30 20 N -3.903159 -2.634458 0.245406 0
M  V30 21 C -4.878616 -1.781648 0.603790 0
M  V30 22 N -4.394799 -0.512639 0.751764 0
M  V30 23 C -5.166126 0.647560 1.128715 0
M  V30 24 N -0.792114 0.390525 0.208562 0
M  V30 25 C -0.135686 1.551096 0.301236 0
M  V30 26 C 2.523507 0.436676 -1.581815 0
M  V30 27 C 2.730142 -1.049065 -1.673634 0
M  V30 28 N 2.792228 -3.447842 2.295218 0
M  V30 29 O 1.827567 -3.726212 3.113080 0
M  V30 30 H -1.147985 -3.138330 3.464515 0
M  V30 31 H -1.325731 -4.482226 2.325767 0
M  V30 32 H -0.537205 -4.742893 3.968559 0
M  V30 33 H 0.230671 -3.441227 0.347635 0
M  V30 34 H 3.986904 -3.464549 -0.151098 0
M  V30 35 H 2.437782 -3.440492 -1.035139 0
M  V30 36 H 4.625653 -0.223863 0.116729 0
M  V30 37 H 4.016949 -1.345407 1.390761 0
M  V30 38 H 3.127872 1.030515 1.589976 0
M  V30 39 H 1.897220 -0.291220 1.425099 0
M  V30 40 H 0.976544 5.157989 0.773836 0
M  V30 41 H -3.112588 2.300289 1.037552 0
M  V30 42 H -1.807044 -2.248211 -0.097555 0
M  V30 43 H -5.898682 -2.130431 0.739745 0
M  V30 44 H -5.214871 1.425998 0.328529 0
M  V30 45 H -4.858310 1.074575 2.102713 0
M  V30 46 H -6.234298 0.318000 1.305555 0
M  V30 47 H 3.464045 0.959563 -1.853170 0
M  V30 48 H 1.780554 0.708719 -2.372139 0
M  V30 49 H 1.827045 -1.570296 -2.056036 0
M  V30 50 H 3.556346 -1.271063 -2.400685 0
M  V30 END ATOM
M  V30 BEGIN BOND
M  V30 1 1 1 2
M  V30 2 2 2 3
M  V30 3 1 3 4
M  V30 4 1 4 5
M  V30 5 1 5 6
M  V30 6 1 6 7
M  V30 7 1 7 8
M  V30 8 1 8 9
M  V30 9 1 9 10
M  V30 10 2 10 11
M  V30 11 1 11 12
M  V30 12 1 11 13
M  V30 13 2 13 14
M  V30 14 1 14 15
M  V30 15 1 15 16
M  V30 16 1 16 17
M  V30 17 1 17 18
M  V30 18 2 18 19
M  V30 19 1 19 20
M  V30 20 2 20 21
M  V30 21 1 21 22
M  V30 22 1 22 23
M  V30 23 2 17 24
M  V30 24 1 24 25
M  V30 25 1 9 26
M  V30 26 1 26 27
M  V30 27 2 4 28
M  V30 28 1 28 29
M  V30 29 1 29 2
M  V30 30 1 27 6
M  V30 31 1 25 10
M  V30 32 2 25 15
M  V30 33 1 22 18
M  V30 34 1 1 30
M  V30 35 1 1 31
M  V30 36 1 1 32
M  V30 37 1 3 33
M  V30 38 1 5 34
M  V30 39 1 5 35
M  V30 40 1 7 36
M  V30 41 1 7 37
M  V30 42 1 8 38
M  V30 43 1 8 39
M  V30 44 1 13 40
M  V30 45 1 16 41
M  V30 46 1 19 42
M  V30 47 1 21 43
M  V30 48 1 23 44
M  V30 49 1 23 45
M  V30 50 1 23 46
M  V30 51 1 26 47
M  V30 52 1 26 48
M  V30 53 1 27 49
M  V30 54 1 27 50
M  V30 END BOND
M  V30 END CTAB
M  END
>  <Dataset>  (772) 
ChEMBL_Kinases

>  <Ligand_Instance>  (772) 
nan

>  <PDB_ID>  (772) 
nan

>  <Standardized_SMILES>  (772) 
Cc1cc(CN2CCN(c3c(Br)cnc4[nH]c(-c5cncn5C)nc34)CC2)no1

>  <Name>  (772) 
nan

>  <Pocket>  (772) 
nan

>  <ATP_Site>  (772) 
nan

>  <Peripheral>  (772) 
nan

>  <Num_H_Atoms_ProtBoundConf>  (772) 
nan

>  <Num_Resolved_Atoms>  (772) 
nan

>  <Num_Not_Resolved_Atoms>  (772) 
nan

$$$$
CHEMBL2207505
     RDKit          3D

  0  0  0  0  0  0  0  0  0  0999 V3000
M  V30 BEGIN CTAB
M  V30 COUNTS 52 56 0 0 0
M  V30 BEGIN ATOM
M  V30 1 C 3.924678 -6.049432 0.543046 0
M  V30 2 C 4.197697 -4.761441 1.231806 0
M  V30 3 N 5.254852 -4.486126 2.051019 0
M  V30 4 N 5.187082 -3.243160 2.494038 0
M  V30 5 C 6.090086 -2.530955 3.381167 0
M  V30 6 C 4.077681 -2.708450 1.958100 0
M  V30 7 C 3.425779 -3.622779 1.160230 0
M  V30 8 C 2.190612 -3.381135 0.423335 0
M  V30 9 N 1.497239 -2.227001 0.414867 0
M  V30 10 C 0.406091 -2.335288 -0.363420 0
M  V30 11 C -0.588196 -1.431966 -0.674425 0
M  V30 12 N -0.602998 -0.104986 -0.156552 0
M  V30 13 C -1.319139 0.048933 1.118821 0
M  V30 14 C -1.528054 1.488193 1.493666 0
M  V30 15 N -1.572943 2.311854 0.341935 0
M  V30 16 C -2.285488 3.534688 0.438736 0
M  V30 17 C -3.733274 3.338522 0.777692 0
M  V30 18 C -4.631075 3.189436 -0.275138 0
M  V30 19 N -5.954612 3.007932 -0.052720 0
M  V30 20 C -6.441867 2.966266 1.197654 0
M  V30 21 C -5.539887 3.115607 2.235035 0
M  V30 22 N -4.200917 3.299958 2.041683 0
M  V30 23 C -0.425028 2.319425 -0.499000 0
M  V30 24 C 0.059078 0.953426 -0.890507 0
M  V30 25 C -1.603798 -1.823580 -1.514573 0
M  V30 26 Cl -2.861014 -0.698438 -1.914609 0
M  V30 27 C -1.610133 -3.096071 -2.024671 0
M  V30 28 N -0.608875 -3.962413 -1.694257 0
M  V30 29 C 0.390555 -3.612318 -0.881497 0
M  V30 30 N 1.489878 -4.202136 -0.375169 0
M  V30 31 H 2.995568 -6.545007 0.898229 0
M  V30 32 H 3.985733 -5.973086 -0.546092 0
M  V30 33 H 4.745249 -6.771628 0.828954 0
M  V30 34 H 5.573386 -2.241643 4.327191 0
M  V30 35 H 7.028991 -3.064499 3.548211 0
M  V30 36 H 6.393802 -1.544270 2.924331 0
M  V30 37 H 3.738678 -1.675765 2.136010 0
M  V30 38 H -2.272401 -0.536978 1.120316 0
M  V30 39 H -0.709055 -0.417817 1.919793 0
M  V30 40 H -2.476709 1.594263 2.034991 0
M  V30 41 H -0.687687 1.823031 2.156032 0
M  V30 42 H -1.784937 4.208037 1.177189 0
M  V30 43 H -2.195178 4.047176 -0.544583 0
M  V30 44 H -4.316585 3.210946 -1.328416 0
M  V30 45 H -7.501338 2.822001 1.426237 0
M  V30 46 H -5.922753 3.083876 3.259572 0
M  V30 47 H -0.650138 2.983108 -1.358678 0
M  V30 48 H 0.409240 2.815554 0.062471 0
M  V30 49 H 1.149958 0.820587 -0.767106 0
M  V30 50 H -0.157830 0.817642 -1.972828 0
M  V30 51 H -2.392263 -3.459725 -2.696367 0
M  V30 52 H 1.726601 -5.188912 -0.608060 0
M  V30 END ATOM
M  V30 BEGIN BOND
M  V30 1 1 1 2
M  V30 2 2 2 3
M  V30 3 1 3 4
M  V30 4 1 4 5
M  V30 5 1 4 6
M  V30 6 2 6 7
M  V30 7 1 7 8
M  V30 8 2 8 9
M  V30 9 1 9 10
M  V30 10 2 10 11
M  V30 11 1 11 12
M  V30 12 1 12 13
M  V30 13 1 13 14
M  V30 14 1 14 15
M  V30 15 1 15 16
M  V30 16 1 16 17
M  V30 17 2 17 18
M  V30 18 1 18 19
M  V30 19 2 19 20
M  V30 20 1 20 21
M  V30 21 2 21 22
M  V30 22 1 15 23
M  V30 23 1 23 24
M  V30 24 1 11 25
M  V30 25 1 25 26
M  V30 26 2 25 27
M  V30 27 1 27 28
M  V30 28 2 28 29
M  V30 29 1 29 30
M  V30 30 1 7 2
M  V30 31 1 30 8
M  V30 32 1 29 10
M  V30 33 1 24 12
M  V30 34 1 22 17
M  V30 35 1 1 31
M  V30 36 1 1 32
M  V30 37 1 1 33
M  V30 38 1 5 34
M  V30 39 1 5 35
M  V30 40 1 5 36
M  V30 41 1 6 37
M  V30 42 1 13 38
M  V30 43 1 13 39
M  V30 44 1 14 40
M  V30 45 1 14 41
M  V30 46 1 16 42
M  V30 47 1 16 43
M  V30 48 1 18 44
M  V30 49 1 20 45
M  V30 50 1 21 46
M  V30 51 1 23 47
M  V30 52 1 23 48
M  V30 53 1 24 49
M  V30 54 1 24 50
M  V30 55 1 27 51
M  V30 56 1 30 52
M  V30 END BOND
M  V30 END CTAB
M  END
>  <Dataset>  (773) 
ChEMBL_Kinases

>  <Ligand_Instance>  (773) 
nan

>  <PDB_ID>  (773) 
nan

>  <Standardized_SMILES>  (773) 
Cc1nn(C)cc1-c1nc2c(N3CCN(Cc4cnccn4)CC3)c(Cl)cnc2[nH]1

>  <Name>  (773) 
nan

>  <Pocket>  (773) 
nan

>  <ATP_Site>  (773) 
nan

>  <Peripheral>  (773) 
nan

>  <Num_H_Atoms_ProtBoundConf>  (773) 
nan

>  <Num_Resolved_Atoms>  (773) 
nan

>  <Num_Not_Resolved_Atoms>  (773) 
nan

$$$$
CHEMBL2207504
     RDKit          3D

  0  0  0  0  0  0  0  0  0  0999 V3000
M  V30 BEGIN CTAB
M  V30 COUNTS 52 56 0 0 0
M  V30 BEGIN ATOM
M  V30 1 C 2.005607 -0.426948 3.095264 0
M  V30 2 C 2.982019 -1.536661 3.241803 0
M  V30 3 N 3.934210 -1.716181 4.202704 0
M  V30 4 N 4.587493 -2.839554 3.955613 0
M  V30 5 C 5.642733 -3.179066 4.893089 0
M  V30 6 C 4.088114 -3.412071 2.847555 0
M  V30 7 C 3.066144 -2.605688 2.372351 0
M  V30 8 C 2.294482 -2.928244 1.169288 0
M  V30 9 N 1.298093 -2.128802 0.716617 0
M  V30 10 C 0.765821 -2.662171 -0.394924 0
M  V30 11 C -0.265519 -2.265897 -1.254004 0
M  V30 12 N -0.902615 -1.051385 -0.906533 0
M  V30 13 C -2.039502 -0.624710 -0.090363 0
M  V30 14 C -1.487878 0.482805 0.783535 0
M  V30 15 N -1.168260 1.630291 0.012796 0
M  V30 16 C -1.901043 2.817015 0.263642 0
M  V30 17 C -3.352462 2.751214 0.065501 0
M  V30 18 C -3.883885 3.056021 -1.194616 0
M  V30 19 N -5.216787 3.009532 -1.426598 0
M  V30 20 C -6.085399 2.662067 -0.432430 0
M  V30 21 N -5.605788 2.363608 0.789199 0
M  V30 22 C -4.281654 2.407341 1.028500 0
M  V30 23 C -1.024475 1.299027 -1.377075 0
M  V30 24 C -0.207858 0.043346 -1.557837 0
M  V30 25 C -0.552079 -3.082364 -2.331785 0
M  V30 26 Cl -1.842186 -2.552857 -3.375760 0
M  V30 27 C 0.150933 -4.247047 -2.556279 0
M  V30 28 N 1.135768 -4.589890 -1.703738 0
M  V30 29 C 1.449536 -3.824687 -0.640252 0
M  V30 30 N 2.377680 -3.970274 0.323933 0
M  V30 31 H 2.342006 0.356822 2.385512 0
M  V30 32 H 0.999156 -0.830089 2.806877 0
M  V30 33 H 1.916105 0.107660 4.085783 0
M  V30 34 H 6.329994 -2.302885 5.049288 0
M  V30 35 H 5.218979 -3.448762 5.881665 0
M  V30 36 H 6.289116 -3.979210 4.461009 0
M  V30 37 H 4.495886 -4.337738 2.489891 0
M  V30 38 H -2.816209 -0.294942 -0.796570 0
M  V30 39 H -2.426196 -1.465798 0.520886 0
M  V30 40 H -0.502345 0.096297 1.179351 0
M  V30 41 H -2.089038 0.642142 1.691600 0
M  V30 42 H -1.515710 3.600415 -0.421376 0
M  V30 43 H -1.666488 3.206166 1.288911 0
M  V30 44 H -3.275576 3.340117 -2.038083 0
M  V30 45 H -7.159142 2.605828 -0.551425 0
M  V30 46 H -3.915334 2.165244 2.012824 0
M  V30 47 H -0.456882 2.113496 -1.873254 0
M  V30 48 H -1.979385 1.181498 -1.926752 0
M  V30 49 H -0.127947 -0.142689 -2.658145 0
M  V30 50 H 0.811494 0.172076 -1.149960 0
M  V30 51 H -0.151929 -4.814160 -3.427517 0
M  V30 52 H 3.082543 -4.745801 0.453975 0
M  V30 END ATOM
M  V30 BEGIN BOND
M  V30 1 1 1 2
M  V30 2 2 2 3
M  V30 3 1 3 4
M  V30 4 1 4 5
M  V30 5 1 4 6
M  V30 6 2 6 7
M  V30 7 1 7 8
M  V30 8 2 8 9
M  V30 9 1 9 10
M  V30 10 2 10 11
M  V30 11 1 11 12
M  V30 12 1 12 13
M  V30 13 1 13 14
M  V30 14 1 14 15
M  V30 15 1 15 16
M  V30 16 1 16 17
M  V30 17 2 17 18
M  V30 18 1 18 19
M  V30 19 2 19 20
M  V30 20 1 20 21
M  V30 21 2 21 22
M  V30 22 1 15 23
M  V30 23 1 23 24
M  V30 24 1 11 25
M  V30 25 1 25 26
M  V30 26 2 25 27
M  V30 27 1 27 28
M  V30 28 2 28 29
M  V30 29 1 29 30
M  V30 30 1 7 2
M  V30 31 1 30 8
M  V30 32 1 29 10
M  V30 33 1 24 12
M  V30 34 1 22 17
M  V30 35 1 1 31
M  V30 36 1 1 32
M  V30 37 1 1 33
M  V30 38 1 5 34
M  V30 39 1 5 35
M  V30 40 1 5 36
M  V30 41 1 6 37
M  V30 42 1 13 38
M  V30 43 1 13 39
M  V30 44 1 14 40
M  V30 45 1 14 41
M  V30 46 1 16 42
M  V30 47 1 16 43
M  V30 48 1 18 44
M  V30 49 1 20 45
M  V30 50 1 22 46
M  V30 51 1 23 47
M  V30 52 1 23 48
M  V30 53 1 24 49
M  V30 54 1 24 50
M  V30 55 1 27 51
M  V30 56 1 30 52
M  V30 END BOND
M  V30 END CTAB
M  END
>  <Dataset>  (774) 
ChEMBL_Kinases

>  <Ligand_Instance>  (774) 
nan

>  <PDB_ID>  (774) 
nan

>  <Standardized_SMILES>  (774) 
Cc1nn(C)cc1-c1nc2c(N3CCN(Cc4cncnc4)CC3)c(Cl)cnc2[nH]1

>  <Name>  (774) 
nan

>  <Pocket>  (774) 
nan

>  <ATP_Site>  (774) 
nan

>  <Peripheral>  (774) 
nan

>  <Num_H_Atoms_ProtBoundConf>  (774) 
nan

>  <Num_Resolved_Atoms>  (774) 
nan

>  <Num_Not_Resolved_Atoms>  (774) 
nan

$$$$
CHEMBL2207502
     RDKit          3D

  0  0  0  0  0  0  0  0  0  0999 V3000
M  V30 BEGIN CTAB
M  V30 COUNTS 53 57 0 0 0
M  V30 BEGIN ATOM
M  V30 1 C -0.775761 -5.808975 2.450336 0
M  V30 2 C -0.268679 -4.506795 2.918338 0
M  V30 3 N 0.076646 -4.169411 4.189414 0
M  V30 4 N 0.490446 -2.937961 4.277544 0
M  V30 5 C 0.932075 -2.268008 5.488736 0
M  V30 6 C 0.416028 -2.447756 3.027083 0
M  V30 7 C -0.055046 -3.393188 2.134942 0
M  V30 8 C -0.261444 -3.208741 0.704961 0
M  V30 9 N -0.018997 -2.069536 0.031963 0
M  V30 10 C -0.298628 -2.193858 -1.256224 0
M  V30 11 C -0.231487 -1.354492 -2.351663 0
M  V30 12 N 0.236806 -0.030976 -2.130466 0
M  V30 13 C -0.742144 0.979355 -1.803466 0
M  V30 14 C -0.126817 2.346584 -1.656982 0
M  V30 15 N 1.157386 2.406404 -1.093885 0
M  V30 16 C 1.273285 3.124031 0.139404 0
M  V30 17 C 0.470578 2.610004 1.250390 0
M  V30 18 N 0.806261 1.691121 2.175368 0
M  V30 19 C -0.270322 1.567508 2.972732 0
M  V30 20 N -1.263656 2.377701 2.575537 0
M  V30 21 C -2.600816 2.643219 3.052556 0
M  V30 22 N -0.802148 3.006591 1.527787 0
M  V30 23 C 2.061671 1.349807 -1.288228 0
M  V30 24 C 1.637090 0.281219 -2.230869 0
M  V30 25 C -0.595114 -1.746324 -3.627632 0
M  V30 26 Cl -0.496555 -0.662541 -4.979341 0
M  V30 27 C -1.039444 -3.057698 -3.741528 0
M  V30 28 N -1.112824 -3.895463 -2.682317 0
M  V30 29 C -0.752363 -3.493778 -1.440879 0
M  V30 30 N -0.704227 -4.058683 -0.201555 0
M  V30 31 H -1.824633 -5.763828 2.056033 0
M  V30 32 H -0.099244 -6.327362 1.737329 0
M  V30 33 H -0.819237 -6.502456 3.340044 0
M  V30 34 H 0.600460 -1.197966 5.482727 0
M  V30 35 H 0.444566 -2.708806 6.378809 0
M  V30 36 H 2.029972 -2.266477 5.612216 0
M  V30 37 H 0.702665 -1.420793 2.785694 0
M  V30 38 H -1.473320 0.965858 -2.645251 0
M  V30 39 H -1.334397 0.676634 -0.905258 0
M  V30 40 H -0.078151 2.804583 -2.682575 0
M  V30 41 H -0.786956 3.032807 -1.085000 0
M  V30 42 H 2.329327 3.248650 0.451878 0
M  V30 43 H 0.933848 4.177124 -0.089818 0
M  V30 44 H -0.398459 0.917400 3.846602 0
M  V30 45 H -2.697946 3.663393 3.476826 0
M  V30 46 H -2.894757 1.904191 3.814751 0
M  V30 47 H -3.288248 2.531686 2.173324 0
M  V30 48 H 2.318240 0.921511 -0.277253 0
M  V30 49 H 3.046669 1.762152 -1.650835 0
M  V30 50 H 2.242256 -0.644507 -2.108840 0
M  V30 51 H 1.825625 0.596972 -3.296350 0
M  V30 52 H -1.340392 -3.432170 -4.710360 0
M  V30 53 H -0.993619 -5.031936 -0.069147 0
M  V30 END ATOM
M  V30 BEGIN BOND
M  V30 1 1 1 2
M  V30 2 2 2 3
M  V30 3 1 3 4
M  V30 4 1 4 5
M  V30 5 1 4 6
M  V30 6 2 6 7
M  V30 7 1 7 8
M  V30 8 2 8 9
M  V30 9 1 9 10
M  V30 10 2 10 11
M  V30 11 1 11 12
M  V30 12 1 12 13
M  V30 13 1 13 14
M  V30 14 1 14 15
M  V30 15 1 15 16
M  V30 16 1 16 17
M  V30 17 1 17 18
M  V30 18 2 18 19
M  V30 19 1 19 20
M  V30 20 1 20 21
M  V30 21 1 20 22
M  V30 22 1 15 23
M  V30 23 1 23 24
M  V30 24 1 11 25
M  V30 25 1 25 26
M  V30 26 2 25 27
M  V30 27 1 27 28
M  V30 28 2 28 29
M  V30 29 1 29 30
M  V30 30 1 7 2
M  V30 31 1 30 8
M  V30 32 1 29 10
M  V30 33 1 24 12
M  V30 34 2 22 17
M  V30 35 1 1 31
M  V30 36 1 1 32
M  V30 37 1 1 33
M  V30 38 1 5 34
M  V30 39 1 5 35
M  V30 40 1 5 36
M  V30 41 1 6 37
M  V30 42 1 13 38
M  V30 43 1 13 39
M  V30 44 1 14 40
M  V30 45 1 14 41
M  V30 46 1 16 42
M  V30 47 1 16 43
M  V30 48 1 19 44
M  V30 49 1 21 45
M  V30 50 1 21 46
M  V30 51 1 21 47
M  V30 52 1 23 48
M  V30 53 1 23 49
M  V30 54 1 24 50
M  V30 55 1 24 51
M  V30 56 1 27 52
M  V30 57 1 30 53
M  V30 END BOND
M  V30 END CTAB
M  END
>  <Dataset>  (775) 
ChEMBL_Kinases

>  <Ligand_Instance>  (775) 
nan

>  <PDB_ID>  (775) 
nan

>  <Standardized_SMILES>  (775) 
Cc1nn(C)cc1-c1nc2c(N3CCN(Cc4ncn(C)n4)CC3)c(Cl)cnc2[nH]1

>  <Name>  (775) 
nan

>  <Pocket>  (775) 
nan

>  <ATP_Site>  (775) 
nan

>  <Peripheral>  (775) 
nan

>  <Num_H_Atoms_ProtBoundConf>  (775) 
nan

>  <Num_Resolved_Atoms>  (775) 
nan

>  <Num_Not_Resolved_Atoms>  (775) 
nan

$$$$
CHEMBL2207501
     RDKit          3D

  0  0  0  0  0  0  0  0  0  0999 V3000
M  V30 BEGIN CTAB
M  V30 COUNTS 52 56 0 0 0
M  V30 BEGIN ATOM
M  V30 1 C -1.570070 -0.874701 6.119040 0
M  V30 2 C -0.192387 -1.264409 5.753265 0
M  V30 3 N 0.554616 -0.724432 4.746262 0
M  V30 4 C 1.741460 -1.360440 4.754375 0
M  V30 5 C 2.841592 -1.081749 3.827327 0
M  V30 6 N 2.837841 -1.848098 2.614859 0
M  V30 7 C 3.930800 -1.546813 1.732398 0
M  V30 8 C 3.662885 -0.354671 0.841149 0
M  V30 9 N 2.372200 -0.394423 0.193801 0
M  V30 10 C 1.819513 0.655849 -0.578375 0
M  V30 11 C 2.478882 1.839733 -0.815818 0
M  V30 12 Cl 4.076037 2.191945 -0.221579 0
M  V30 13 C 1.984786 2.898462 -1.550773 0
M  V30 14 N 0.737244 2.774258 -2.094371 0
M  V30 15 C 0.060158 1.631531 -1.885010 0
M  V30 16 N -1.166140 1.357585 -2.346827 0
M  V30 17 C -1.435425 0.122377 -1.896349 0
M  V30 18 C -2.666292 -0.620304 -2.140205 0
M  V30 19 C -3.721414 -0.127846 -2.879670 0
M  V30 20 N -4.683172 -1.094983 -2.888465 0
M  V30 21 C -5.989196 -1.022925 -3.551256 0
M  V30 22 N -4.226239 -2.117805 -2.187903 0
M  V30 23 C -2.997019 -1.876488 -1.709320 0
M  V30 24 C -2.115106 -2.717367 -0.889566 0
M  V30 25 N -0.398542 -0.330809 -1.184260 0
M  V30 26 C 0.561623 0.578988 -1.149287 0
M  V30 27 C 1.748643 -1.645311 0.440769 0
M  V30 28 C 1.567831 -1.850069 1.934932 0
M  V30 29 N 1.667504 -2.253947 5.758289 0
M  V30 30 O 0.514807 -2.187770 6.344073 0
M  V30 31 H -2.333442 -1.614986 5.775627 0
M  V30 32 H -1.823189 0.069609 5.598598 0
M  V30 33 H -1.703423 -0.797422 7.219379 0
M  V30 34 H 3.813504 -1.308428 4.344416 0
M  V30 35 H 2.912975 -0.001882 3.536152 0
M  V30 36 H 4.804311 -1.302687 2.365999 0
M  V30 37 H 4.184429 -2.430940 1.132289 0
M  V30 38 H 4.511136 -0.218853 0.140123 0
M  V30 39 H 3.694032 0.532915 1.540877 0
M  V30 40 H 2.468755 3.828466 -1.753487 0
M  V30 41 H -1.804218 1.942155 -2.928623 0
M  V30 42 H -3.836743 0.829253 -3.384849 0
M  V30 43 H -6.773837 -1.498853 -2.923175 0
M  V30 44 H -5.958133 -1.591365 -4.507800 0
M  V30 45 H -6.294236 0.021837 -3.719123 0
M  V30 46 H -1.069748 -2.765677 -1.267377 0
M  V30 47 H -2.540220 -3.747757 -0.906523 0
M  V30 48 H -2.187640 -2.362623 0.156765 0
M  V30 49 H 0.812905 -1.864867 -0.052424 0
M  V30 50 H 2.463332 -2.446651 0.070707 0
M  V30 51 H 1.099063 -2.837978 2.096097 0
M  V30 52 H 0.927305 -1.085178 2.358534 0
M  V30 END ATOM
M  V30 BEGIN BOND
M  V30 1 1 1 2
M  V30 2 2 2 3
M  V30 3 1 3 4
M  V30 4 1 4 5
M  V30 5 1 5 6
M  V30 6 1 6 7
M  V30 7 1 7 8
M  V30 8 1 8 9
M  V30 9 1 9 10
M  V30 10 2 10 11
M  V30 11 1 11 12
M  V30 12 1 11 13
M  V30 13 2 13 14
M  V30 14 1 14 15
M  V30 15 1 15 16
M  V30 16 1 16 17
M  V30 17 1 17 18
M  V30 18 2 18 19
M  V30 19 1 19 20
M  V30 20 1 20 21
M  V30 21 1 20 22
M  V30 22 2 22 23
M  V30 23 1 23 24
M  V30 24 2 17 25
M  V30 25 1 25 26
M  V30 26 1 9 27
M  V30 27 1 27 28
M  V30 28 2 4 29
M  V30 29 1 29 30
M  V30 30 1 30 2
M  V30 31 1 28 6
M  V30 32 1 26 10
M  V30 33 2 26 15
M  V30 34 1 23 18
M  V30 35 1 1 31
M  V30 36 1 1 32
M  V30 37 1 1 33
M  V30 38 1 5 34
M  V30 39 1 5 35
M  V30 40 1 7 36
M  V30 41 1 7 37
M  V30 42 1 8 38
M  V30 43 1 8 39
M  V30 44 1 13 40
M  V30 45 1 16 41
M  V30 46 1 19 42
M  V30 47 1 21 43
M  V30 48 1 21 44
M  V30 49 1 21 45
M  V30 50 1 24 46
M  V30 51 1 24 47
M  V30 52 1 24 48
M  V30 53 1 27 49
M  V30 54 1 27 50
M  V30 55 1 28 51
M  V30 56 1 28 52
M  V30 END BOND
M  V30 END CTAB
M  END
>  <Dataset>  (776) 
ChEMBL_Kinases

>  <Ligand_Instance>  (776) 
nan

>  <PDB_ID>  (776) 
nan

>  <Standardized_SMILES>  (776) 
Cc1nc(CN2CCN(c3c(Cl)cnc4[nH]c(-c5cn(C)nc5C)nc34)CC2)no1

>  <Name>  (776) 
nan

>  <Pocket>  (776) 
nan

>  <ATP_Site>  (776) 
nan

>  <Peripheral>  (776) 
nan

>  <Num_H_Atoms_ProtBoundConf>  (776) 
nan

>  <Num_Resolved_Atoms>  (776) 
nan

>  <Num_Not_Resolved_Atoms>  (776) 
nan

$$$$
CHEMBL2207500
     RDKit          3D

  0  0  0  0  0  0  0  0  0  0999 V3000
M  V30 BEGIN CTAB
M  V30 COUNTS 49 53 0 0 0
M  V30 BEGIN ATOM
M  V30 1 C 3.192070 -4.951670 -0.270566 0
M  V30 2 C 3.411547 -3.605986 0.303239 0
M  V30 3 N 4.540218 -3.173929 0.939130 0
M  V30 4 N 4.403257 -1.921272 1.327607 0
M  V30 5 C 5.366486 -1.091945 2.034613 0
M  V30 6 C 3.181299 -1.535133 0.943825 0
M  V30 7 C 2.518741 -2.556205 0.296723 0
M  V30 8 C 1.172003 -2.500554 -0.258286 0
M  V30 9 N 0.384377 -1.421639 -0.209433 0
M  V30 10 C -0.798110 -1.581484 -0.771247 0
M  V30 11 C -1.932515 -0.834906 -0.988022 0
M  V30 12 N -1.995014 0.512869 -0.539736 0
M  V30 13 C -0.788706 0.962820 0.105836 0
M  V30 14 C -0.799214 2.384146 0.567587 0
M  V30 15 N -1.920339 2.749224 1.388652 0
M  V30 16 C -1.736587 2.763172 2.775938 0
M  V30 17 C -1.340175 1.512987 3.433319 0
M  V30 18 N -2.200949 0.577400 3.926879 0
M  V30 19 C -1.363603 -0.366204 4.423774 0
M  V30 20 O -0.115074 -0.008048 4.234352 0
M  V30 21 N -0.060109 1.141083 3.628664 0
M  V30 22 C -3.140553 2.197455 0.867305 0
M  V30 23 C -2.906843 1.596633 -0.523589 0
M  V30 24 C -2.935534 -1.476266 -1.644272 0
M  V30 25 Cl -4.439214 -0.716079 -2.020931 0
M  V30 26 C -2.892480 -2.775390 -2.089454 0
M  V30 27 N -1.765119 -3.480182 -1.860691 0
M  V30 28 C -0.756434 -2.885605 -1.218855 0
M  V30 29 N 0.439357 -3.405529 -0.893998 0
M  V30 30 H 2.376959 -5.474506 0.265703 0
M  V30 31 H 3.064901 -4.935430 -1.369254 0
M  V30 32 H 4.125361 -5.554464 -0.072656 0
M  V30 33 H 6.406499 -1.310793 1.719838 0
M  V30 34 H 5.209121 -1.174269 3.128989 0
M  V30 35 H 5.201076 -0.007110 1.793233 0
M  V30 36 H 2.771733 -0.557277 1.117904 0
M  V30 37 H 0.074518 0.832234 -0.615148 0
M  V30 38 H -0.534370 0.338710 0.992474 0
M  V30 39 H 0.132661 2.643572 1.119189 0
M  V30 40 H -0.792145 3.046829 -0.318468 0
M  V30 41 H -2.669209 3.113670 3.263588 0
M  V30 42 H -0.991968 3.579892 3.012247 0
M  V30 43 H -1.790832 -1.258264 4.894164 0
M  V30 44 H -3.848307 3.036387 0.719611 0
M  V30 45 H -3.600945 1.469877 1.522896 0
M  V30 46 H -2.465094 2.390536 -1.199905 0
M  V30 47 H -3.886851 1.291078 -0.920277 0
M  V30 48 H -3.669010 -3.308239 -2.610391 0
M  V30 49 H 0.756018 -4.379644 -1.106503 0
M  V30 END ATOM
M  V30 BEGIN BOND
M  V30 1 1 1 2
M  V30 2 2 2 3
M  V30 3 1 3 4
M  V30 4 1 4 5
M  V30 5 1 4 6
M  V30 6 2 6 7
M  V30 7 1 7 8
M  V30 8 2 8 9
M  V30 9 1 9 10
M  V30 10 2 10 11
M  V30 11 1 11 12
M  V30 12 1 12 13
M  V30 13 1 13 14
M  V30 14 1 14 15
M  V30 15 1 15 16
M  V30 16 1 16 17
M  V30 17 1 17 18
M  V30 18 2 18 19
M  V30 19 1 19 20
M  V30 20 1 20 21
M  V30 21 1 15 22
M  V30 22 1 22 23
M  V30 23 1 11 24
M  V30 24 1 24 25
M  V30 25 2 24 26
M  V30 26 1 26 27
M  V30 27 2 27 28
M  V30 28 1 28 29
M  V30 29 1 7 2
M  V30 30 1 29 8
M  V30 31 1 28 10
M  V30 32 1 23 12
M  V30 33 2 21 17
M  V30 34 1 1 30
M  V30 35 1 1 31
M  V30 36 1 1 32
M  V30 37 1 5 33
M  V30 38 1 5 34
M  V30 39 1 5 35
M  V30 40 1 6 36
M  V30 41 1 13 37
M  V30 42 1 13 38
M  V30 43 1 14 39
M  V30 44 1 14 40
M  V30 45 1 16 41
M  V30 46 1 16 42
M  V30 47 1 19 43
M  V30 48 1 22 44
M  V30 49 1 22 45
M  V30 50 1 23 46
M  V30 51 1 23 47
M  V30 52 1 26 48
M  V30 53 1 29 49
M  V30 END BOND
M  V30 END CTAB
M  END
>  <Dataset>  (777) 
ChEMBL_Kinases

>  <Ligand_Instance>  (777) 
nan

>  <PDB_ID>  (777) 
nan

>  <Standardized_SMILES>  (777) 
Cc1nn(C)cc1-c1nc2c(N3CCN(Cc4ncon4)CC3)c(Cl)cnc2[nH]1

>  <Name>  (777) 
nan

>  <Pocket>  (777) 
nan

>  <ATP_Site>  (777) 
nan

>  <Peripheral>  (777) 
nan

>  <Num_H_Atoms_ProtBoundConf>  (777) 
nan

>  <Num_Resolved_Atoms>  (777) 
nan

>  <Num_Not_Resolved_Atoms>  (777) 
nan

$$$$
CHEMBL2207499
     RDKit          3D

  0  0  0  0  0  0  0  0  0  0999 V3000
M  V30 BEGIN CTAB
M  V30 COUNTS 52 56 0 0 0
M  V30 BEGIN ATOM
M  V30 1 C 2.813819 -5.484733 3.611954 0
M  V30 2 C 3.260827 -4.076510 3.487014 0
M  V30 3 N 4.278512 -3.522365 4.141938 0
M  V30 4 N 4.442526 -2.251663 3.829779 0
M  V30 5 C 5.397551 -1.249860 4.274440 0
M  V30 6 C 3.479087 -1.938660 2.913871 0
M  V30 7 C 2.725873 -3.091269 2.691583 0
M  V30 8 C 1.597729 -3.166150 1.774825 0
M  V30 9 N 1.123686 -2.156959 1.021546 0
M  V30 10 C 0.081250 -2.516440 0.276456 0
M  V30 11 C -0.757380 -1.911989 -0.638787 0
M  V30 12 N -0.555257 -0.542232 -0.950177 0
M  V30 13 C -1.309409 0.373814 -0.081629 0
M  V30 14 C -0.631286 1.717934 0.030034 0
M  V30 15 N -0.711628 2.408360 -1.194984 0
M  V30 16 C -1.687488 3.401580 -1.388731 0
M  V30 17 C -3.095520 3.021611 -1.385811 0
M  V30 18 N -3.758156 2.871064 -2.573182 0
M  V30 19 O -4.983474 2.523448 -2.340660 0
M  V30 20 N -5.217210 2.422566 -1.081214 0
M  V30 21 C -4.064394 2.725646 -0.452968 0
M  V30 22 C -3.819139 2.761285 0.999483 0
M  V30 23 C -0.529829 1.502709 -2.301250 0
M  V30 24 C 0.195978 0.239725 -1.902195 0
M  V30 25 C -1.775843 -2.575821 -1.256690 0
M  V30 26 Cl -2.819822 -1.785253 -2.409650 0
M  V30 27 C -1.957865 -3.908385 -0.938282 0
M  V30 28 N -1.148983 -4.515688 -0.046699 0
M  V30 29 C -0.151975 -3.847775 0.551751 0
M  V30 30 N 0.785191 -4.184083 1.454749 0
M  V30 31 H 1.769473 -5.586279 3.986716 0
M  V30 32 H 2.889244 -6.027848 2.657478 0
M  V30 33 H 3.431691 -6.021225 4.367856 0
M  V30 34 H 4.951948 -0.460883 4.904878 0
M  V30 35 H 6.261684 -1.705588 4.800500 0
M  V30 36 H 5.844439 -0.721159 3.384382 0
M  V30 37 H 3.307736 -0.993594 2.435982 0
M  V30 38 H -1.320604 -0.024483 0.975955 0
M  V30 39 H -2.357371 0.412427 -0.370535 0
M  V30 40 H 0.452964 1.480784 0.208011 0
M  V30 41 H -1.031940 2.236257 0.921998 0
M  V30 42 H -1.438907 3.991204 -2.311883 0
M  V30 43 H -1.520644 4.173241 -0.564493 0
M  V30 44 H -3.048127 3.485986 1.286452 0
M  V30 45 H -4.753161 3.077436 1.516593 0
M  V30 46 H -3.613914 1.724428 1.334456 0
M  V30 47 H 0.126790 2.011029 -3.037570 0
M  V30 48 H -1.483509 1.292646 -2.815834 0
M  V30 49 H 0.446965 -0.337791 -2.826152 0
M  V30 50 H 1.162057 0.503815 -1.429309 0
M  V30 51 H -2.756631 -4.500775 -1.397361 0
M  V30 52 H 0.836788 -5.150078 1.839054 0
M  V30 END ATOM
M  V30 BEGIN BOND
M  V30 1 1 1 2
M  V30 2 2 2 3
M  V30 3 1 3 4
M  V30 4 1 4 5
M  V30 5 1 4 6
M  V30 6 2 6 7
M  V30 7 1 7 8
M  V30 8 2 8 9
M  V30 9 1 9 10
M  V30 10 2 10 11
M  V30 11 1 11 12
M  V30 12 1 12 13
M  V30 13 1 13 14
M  V30 14 1 14 15
M  V30 15 1 15 16
M  V30 16 1 16 17
M  V30 17 2 17 18
M  V30 18 1 18 19
M  V30 19 1 19 20
M  V30 20 2 20 21
M  V30 21 1 21 22
M  V30 22 1 15 23
M  V30 23 1 23 24
M  V30 24 1 11 25
M  V30 25 1 25 26
M  V30 26 2 25 27
M  V30 27 1 27 28
M  V30 28 2 28 29
M  V30 29 1 29 30
M  V30 30 1 7 2
M  V30 31 1 30 8
M  V30 32 1 29 10
M  V30 33 1 24 12
M  V30 34 1 21 17
M  V30 35 1 1 31
M  V30 36 1 1 32
M  V30 37 1 1 33
M  V30 38 1 5 34
M  V30 39 1 5 35
M  V30 40 1 5 36
M  V30 41 1 6 37
M  V30 42 1 13 38
M  V30 43 1 13 39
M  V30 44 1 14 40
M  V30 45 1 14 41
M  V30 46 1 16 42
M  V30 47 1 16 43
M  V30 48 1 22 44
M  V30 49 1 22 45
M  V30 50 1 22 46
M  V30 51 1 23 47
M  V30 52 1 23 48
M  V30 53 1 24 49
M  V30 54 1 24 50
M  V30 55 1 27 51
M  V30 56 1 30 52
M  V30 END BOND
M  V30 END CTAB
M  END
>  <Dataset>  (778) 
ChEMBL_Kinases

>  <Ligand_Instance>  (778) 
nan

>  <PDB_ID>  (778) 
nan

>  <Standardized_SMILES>  (778) 
Cc1nn(C)cc1-c1nc2c(N3CCN(Cc4nonc4C)CC3)c(Cl)cnc2[nH]1

>  <Name>  (778) 
nan

>  <Pocket>  (778) 
nan

>  <ATP_Site>  (778) 
nan

>  <Peripheral>  (778) 
nan

>  <Num_H_Atoms_ProtBoundConf>  (778) 
nan

>  <Num_Resolved_Atoms>  (778) 
nan

>  <Num_Not_Resolved_Atoms>  (778) 
nan

$$$$
CHEMBL2207217
     RDKit          3D

  0  0  0  0  0  0  0  0  0  0999 V3000
M  V30 BEGIN CTAB
M  V30 COUNTS 60 63 0 0 0
M  V30 BEGIN ATOM
M  V30 1 O -0.150184 -2.766888 3.632413 0
M  V30 2 C -0.101252 -1.513621 3.614763 0
M  V30 3 N 1.052390 -0.781661 3.198495 0
M  V30 4 C 2.244480 -1.519733 2.769564 0
M  V30 5 C 3.267155 -0.475613 2.402694 0
M  V30 6 C 4.579591 -1.050539 1.937835 0
M  V30 7 N 4.465716 -1.875264 0.776379 0
M  V30 8 C 3.955538 -1.410089 -0.464698 0
M  V30 9 N 3.518826 -0.159486 -0.686904 0
M  V30 10 C 3.034671 0.286483 -1.853138 0
M  V30 11 N 2.611400 1.647050 -1.884764 0
M  V30 12 C 1.221483 1.923700 -1.627130 0
M  V30 13 C 0.749911 3.221523 -1.599422 0
M  V30 14 C -0.585550 3.422577 -1.356006 0
M  V30 15 C -1.438837 2.364484 -1.144225 0
M  V30 16 C -1.023936 1.070399 -1.161470 0
M  V30 17 N -1.953402 0.025669 -0.940459 0
M  V30 18 C -1.789805 -1.381797 -0.906668 0
M  V30 19 O -0.635298 -1.829633 -1.099913 0
M  V30 20 N -2.868396 -2.274883 -0.666731 0
M  V30 21 C -4.310586 -2.153498 -0.403875 0
M  V30 22 C -4.872805 -2.997824 -1.529321 0
M  V30 23 C -3.810471 -4.095268 -1.677660 0
M  V30 24 C -2.755494 -3.720724 -0.626651 0
M  V30 25 C 0.318864 0.909299 -1.407909 0
M  V30 26 N 2.971978 -0.574964 -2.904727 0
M  V30 27 C 3.373469 -1.838583 -2.811699 0
M  V30 28 C 3.861387 -2.238903 -1.587105 0
M  V30 29 Br 4.461576 -4.047260 -1.368950 0
M  V30 30 C -1.273082 -0.778915 4.038366 0
M  V30 31 C -1.545972 0.552894 4.137726 0
M  V30 32 C -2.737414 1.006017 4.569255 0
M  V30 33 C -3.687526 -0.070145 4.912523 0
M  V30 34 S -2.696201 -1.627158 4.552923 0
M  V30 35 H 0.996339 0.263132 3.217977 0
M  V30 36 H 2.012521 -2.136407 1.871764 0
M  V30 37 H 2.591215 -2.135306 3.608608 0
M  V30 38 H 2.852481 0.136801 1.574511 0
M  V30 39 H 3.435465 0.159069 3.301963 0
M  V30 40 H 5.089035 -1.617844 2.761046 0
M  V30 41 H 5.258802 -0.188742 1.712006 0
M  V30 42 H 4.763947 -2.872850 0.812576 0
M  V30 43 H 3.235201 2.452625 -2.080213 0
M  V30 44 H 1.448376 4.031366 -1.770191 0
M  V30 45 H -0.985512 4.424909 -1.327776 0
M  V30 46 H -2.485200 2.593308 -0.956971 0
M  V30 47 H -2.959981 0.305283 -0.766393 0
M  V30 48 H -4.472414 -2.735351 0.540371 0
M  V30 49 H -4.664524 -1.126685 -0.379462 0
M  V30 50 H -5.833801 -3.478254 -1.268140 0
M  V30 51 H -4.979239 -2.409826 -2.448274 0
M  V30 52 H -4.204308 -5.090867 -1.431318 0
M  V30 53 H -3.310760 -4.024148 -2.653697 0
M  V30 54 H -3.081442 -4.085181 0.348791 0
M  V30 55 H -1.752412 -4.066915 -0.950598 0
M  V30 56 H 0.743534 -0.078721 -1.441662 0
M  V30 57 H 3.310551 -2.488647 -3.657152 0
M  V30 58 H -0.738424 1.208772 3.846161 0
M  V30 59 H -3.000216 2.046262 4.665090 0
M  V30 60 H -4.764782 0.321607 5.302342 0
M  V30 END ATOM
M  V30 BEGIN BOND
M  V30 1 2 1 2
M  V30 2 1 2 3
M  V30 3 1 3 4
M  V30 4 1 4 5
M  V30 5 1 5 6
M  V30 6 1 6 7
M  V30 7 1 7 8
M  V30 8 2 8 9
M  V30 9 1 9 10
M  V30 10 1 10 11
M  V30 11 1 11 12
M  V30 12 2 12 13
M  V30 13 1 13 14
M  V30 14 2 14 15
M  V30 15 1 15 16
M  V30 16 1 16 17
M  V30 17 1 17 18
M  V30 18 2 18 19
M  V30 19 1 18 20
M  V30 20 1 20 21
M  V30 21 1 21 22
M  V30 22 1 22 23
M  V30 23 1 23 24
M  V30 24 2 16 25
M  V30 25 2 10 26
M  V30 26 1 26 27
M  V30 27 2 27 28
M  V30 28 1 28 29
M  V30 29 1 2 30
M  V30 30 2 30 31
M  V30 31 1 31 32
M  V30 32 2 32 33
M  V30 33 1 33 34
M  V30 34 1 28 8
M  V30 35 1 34 30
M  V30 36 1 25 12
M  V30 37 1 24 20
M  V30 38 1 3 35
M  V30 39 1 4 36
M  V30 40 1 4 37
M  V30 41 1 5 38
M  V30 42 1 5 39
M  V30 43 1 6 40
M  V30 44 1 6 41
M  V30 45 1 7 42
M  V30 46 1 11 43
M  V30 47 1 13 44
M  V30 48 1 14 45
M  V30 49 1 15 46
M  V30 50 1 17 47
M  V30 51 1 21 48
M  V30 52 1 21 49
M  V30 53 1 22 50
M  V30 54 1 22 51
M  V30 55 1 23 52
M  V30 56 1 23 53
M  V30 57 1 24 54
M  V30 58 1 24 55
M  V30 59 1 25 56
M  V30 60 1 27 57
M  V30 61 1 31 58
M  V30 62 1 32 59
M  V30 63 1 33 60
M  V30 END BOND
M  V30 END CTAB
M  END
>  <Dataset>  (779) 
ChEMBL_Kinases

>  <Ligand_Instance>  (779) 
nan

>  <PDB_ID>  (779) 
nan

>  <Standardized_SMILES>  (779) 
O=C(NCCCNc1nc(Nc2cccc(NC(=O)N3CCCC3)c2)ncc1Br)c1cccs1

>  <Name>  (779) 
nan

>  <Pocket>  (779) 
nan

>  <ATP_Site>  (779) 
nan

>  <Peripheral>  (779) 
nan

>  <Num_H_Atoms_ProtBoundConf>  (779) 
nan

>  <Num_Resolved_Atoms>  (779) 
nan

>  <Num_Not_Resolved_Atoms>  (779) 
nan

$$$$
CHEMBL2207216
     RDKit          3D

  0  0  0  0  0  0  0  0  0  0999 V3000
M  V30 BEGIN CTAB
M  V30 COUNTS 75 79 0 0 0
M  V30 BEGIN ATOM
M  V30 1 C 4.188167 -0.525468 4.339710 0
M  V30 2 C 4.483984 -0.886170 2.907453 0
M  V30 3 C 3.621165 -2.043436 2.536372 0
M  V30 4 N 4.447095 0.235349 2.026125 0
M  V30 5 C 3.229935 0.941972 1.957694 0
M  V30 6 C 2.434497 0.822448 0.701510 0
M  V30 7 C 3.333951 0.904778 -0.500423 0
M  V30 8 N 2.576874 0.913846 -1.735978 0
M  V30 9 C 1.259596 1.208080 -1.889018 0
M  V30 10 C 0.854604 1.127926 -3.204122 0
M  V30 11 N -0.450309 1.370345 -3.732570 0
M  V30 12 C -1.402111 1.653783 -2.724338 0
M  V30 13 N -1.562623 2.881681 -2.186920 0
M  V30 14 C -2.504325 3.071868 -1.213785 0
M  V30 15 C -3.357473 2.076240 -0.694810 0
M  V30 16 C -4.242275 2.462152 0.374097 0
M  V30 17 C -5.672896 2.126712 0.468213 0
M  V30 18 C -4.733062 1.639224 1.511390 0
M  V30 19 C -3.115117 0.873258 -1.307765 0
M  V30 20 N -3.944966 -0.213377 -0.924602 0
M  V30 21 C -3.701168 -1.485283 -1.558792 0
M  V30 22 C -4.593771 -2.559701 -0.987234 0
M  V30 23 C -4.257687 -2.683733 0.503494 0
M  V30 24 N -2.843099 -3.059058 0.650378 0
M  V30 25 C -2.321334 -4.260534 0.119726 0
M  V30 26 O -3.100871 -5.057311 -0.509984 0
M  V30 27 C -0.935328 -4.686173 0.227452 0
M  V30 28 C -0.371331 -4.872978 1.633400 0
M  V30 29 C 0.980058 -4.514980 0.987849 0
M  V30 30 C 0.139904 -3.615664 0.065544 0
M  V30 31 N -2.192860 0.677889 -2.262231 0
M  V30 32 C 2.042739 0.757354 -3.843512 0
M  V30 33 N 3.037169 0.640849 -2.944942 0
M  V30 34 C 4.271571 -0.277388 -0.382980 0
M  V30 35 C 5.171510 0.068755 0.811590 0
M  V30 36 H 3.076819 -0.452094 4.484833 0
M  V30 37 H 4.475571 -1.418854 4.942324 0
M  V30 38 H 4.740881 0.324911 4.732400 0
M  V30 39 H 5.553231 -1.252401 2.920599 0
M  V30 40 H 4.010790 -2.701260 1.744172 0
M  V30 41 H 3.535411 -2.690558 3.445627 0
M  V30 42 H 2.598071 -1.656038 2.338291 0
M  V30 43 H 2.546345 0.675232 2.785506 0
M  V30 44 H 3.449414 2.030380 2.121085 0
M  V30 45 H 1.732520 1.703607 0.692973 0
M  V30 46 H 1.802486 -0.086795 0.686362 0
M  V30 47 H 3.945257 1.815266 -0.443680 0
M  V30 48 H 0.660514 1.466929 -1.026941 0
M  V30 49 H -0.610238 1.325538 -4.759830 0
M  V30 50 H -2.487637 4.119287 -0.904988 0
M  V30 51 H -4.032811 3.535989 0.735107 0
M  V30 52 H -6.222604 1.459954 -0.199914 0
M  V30 53 H -6.378850 2.936813 0.838035 0
M  V30 54 H -4.823868 2.120066 2.545186 0
M  V30 55 H -4.285471 0.666098 1.605792 0
M  V30 56 H -4.738166 -0.321905 -0.280455 0
M  V30 57 H -2.631079 -1.787988 -1.486601 0
M  V30 58 H -3.967330 -1.410541 -2.649416 0
M  V30 59 H -5.671797 -2.260233 -1.067129 0
M  V30 60 H -4.522728 -3.522790 -1.500049 0
M  V30 61 H -4.875403 -3.527861 0.874261 0
M  V30 62 H -4.501390 -1.798356 1.079612 0
M  V30 63 H -2.215765 -2.411004 1.164041 0
M  V30 64 H -0.636922 -5.541329 -0.425281 0
M  V30 65 H -0.720922 -4.039596 2.310438 0
M  V30 66 H -0.433495 -5.878972 2.052998 0
M  V30 67 H 1.395100 -5.411829 0.502354 0
M  V30 68 H 1.693278 -4.006591 1.628629 0
M  V30 69 H -0.040036 -2.662389 0.560617 0
M  V30 70 H 0.601377 -3.588366 -0.947983 0
M  V30 71 H 2.100395 0.597529 -4.931676 0
M  V30 72 H 3.728500 -1.197808 -0.107508 0
M  V30 73 H 4.899747 -0.357743 -1.277526 0
M  V30 74 H 5.641881 1.046261 0.552613 0
M  V30 75 H 5.994829 -0.634926 0.947982 0
M  V30 END ATOM
M  V30 BEGIN BOND
M  V30 1 1 1 2
M  V30 2 1 2 3
M  V30 3 1 2 4
M  V30 4 1 4 5
M  V30 5 1 5 6
M  V30 6 1 6 7
M  V30 7 1 7 8
M  V30 8 1 8 9
M  V30 9 2 9 10
M  V30 10 1 10 11
M  V30 11 1 11 12
M  V30 12 2 12 13
M  V30 13 1 13 14
M  V30 14 2 14 15
M  V30 15 1 15 16
M  V30 16 1 16 17
M  V30 17 1 17 18
M  V30 18 1 15 19
M  V30 19 1 19 20
M  V30 20 1 20 21
M  V30 21 1 21 22
M  V30 22 1 22 23
M  V30 23 1 23 24
M  V30 24 1 24 25
M  V30 25 2 25 26
M  V30 26 1 25 27
M  V30 27 1 27 28
M  V30 28 1 28 29
M  V30 29 1 29 30
M  V30 30 2 19 31
M  V30 31 1 10 32
M  V30 32 2 32 33
M  V30 33 1 7 34
M  V30 34 1 34 35
M  V30 35 1 35 4
M  V30 36 1 33 8
M  V30 37 1 31 12
M  V30 38 1 18 16
M  V30 39 1 30 27
M  V30 40 1 1 36
M  V30 41 1 1 37
M  V30 42 1 1 38
M  V30 43 1 2 39
M  V30 44 1 3 40
M  V30 45 1 3 41
M  V30 46 1 3 42
M  V30 47 1 5 43
M  V30 48 1 5 44
M  V30 49 1 6 45
M  V30 50 1 6 46
M  V30 51 1 7 47
M  V30 52 1 9 48
M  V30 53 1 11 49
M  V30 54 1 14 50
M  V30 55 1 16 51
M  V30 56 1 17 52
M  V30 57 1 17 53
M  V30 58 1 18 54
M  V30 59 1 18 55
M  V30 60 1 20 56
M  V30 61 1 21 57
M  V30 62 1 21 58
M  V30 63 1 22 59
M  V30 64 1 22 60
M  V30 65 1 23 61
M  V30 66 1 23 62
M  V30 67 1 24 63
M  V30 68 1 27 64
M  V30 69 1 28 65
M  V30 70 1 28 66
M  V30 71 1 29 67
M  V30 72 1 29 68
M  V30 73 1 30 69
M  V30 74 1 30 70
M  V30 75 1 32 71
M  V30 76 1 34 72
M  V30 77 1 34 73
M  V30 78 1 35 74
M  V30 79 1 35 75
M  V30 END BOND
M  V30 END CTAB
M  END
>  <Dataset>  (780) 
ChEMBL_Kinases

>  <Ligand_Instance>  (780) 
nan

>  <PDB_ID>  (780) 
nan

>  <Standardized_SMILES>  (780) 
CC(C)N1CCC(n2cc(Nc3ncc(C4CC4)c(NCCCNC(=O)C4CCC4)n3)cn2)CC1

>  <Name>  (780) 
nan

>  <Pocket>  (780) 
nan

>  <ATP_Site>  (780) 
nan

>  <Peripheral>  (780) 
nan

>  <Num_H_Atoms_ProtBoundConf>  (780) 
nan

>  <Num_Resolved_Atoms>  (780) 
nan

>  <Num_Not_Resolved_Atoms>  (780) 
nan

$$$$
CHEMBL2207215
     RDKit          3D

  0  0  0  0  0  0  0  0  0  0999 V3000
M  V30 BEGIN CTAB
M  V30 COUNTS 70 74 0 0 0
M  V30 BEGIN ATOM
M  V30 1 O 2.086366 2.922811 2.920175 0
M  V30 2 C 0.949324 2.385236 2.756467 0
M  V30 3 N 0.692351 0.986831 2.857407 0
M  V30 4 C 1.755330 0.078812 3.162825 0
M  V30 5 C 2.880698 0.081032 2.171580 0
M  V30 6 C 3.964250 -0.895536 2.553368 0
M  V30 7 N 3.546116 -2.254057 2.644584 0
M  V30 8 C 3.031862 -2.796011 1.453960 0
M  V30 9 N 2.954702 -2.167643 0.276118 0
M  V30 10 C 2.501051 -2.708919 -0.848637 0
M  V30 11 N 2.466005 -1.940004 -2.045680 0
M  V30 12 C 1.309386 -1.174908 -2.368323 0
M  V30 13 C 1.046113 -0.366514 -3.455901 0
M  V30 14 N -0.180881 0.178744 -3.372445 0
M  V30 15 N -0.697814 -0.275933 -2.242995 0
M  V30 16 C -1.987613 -0.004636 -1.672807 0
M  V30 17 C -3.051550 -0.981650 -2.117602 0
M  V30 18 N -3.252197 -0.988836 -3.532159 0
M  V30 19 C -4.291519 -1.953266 -3.909155 0
M  V30 20 C -5.580957 -1.541899 -3.267335 0
M  V30 21 O -5.975084 -0.250186 -3.518503 0
M  V30 22 C -5.008213 0.712094 -3.351297 0
M  V30 23 C -3.726434 0.289339 -4.039645 0
M  V30 24 C 0.153698 -1.094199 -1.597609 0
M  V30 25 N 2.074344 -4.005102 -0.829078 0
M  V30 26 C 2.129808 -4.694994 0.347149 0
M  V30 27 C 2.611343 -4.103405 1.521420 0
M  V30 28 C 2.522432 -5.035634 2.645875 0
M  V30 29 C 1.252442 -5.561076 3.176268 0
M  V30 30 C 1.946340 -4.497619 3.916921 0
M  V30 31 C -0.140179 3.322412 2.442689 0
M  V30 32 C -1.297862 3.334484 3.446730 0
M  V30 33 C -1.400219 4.833837 3.139816 0
M  V30 34 C 0.108104 4.760579 2.910650 0
M  V30 35 H -0.301440 0.685136 2.696015 0
M  V30 36 H 1.325529 -0.943411 3.152453 0
M  V30 37 H 2.110237 0.313080 4.185547 0
M  V30 38 H 2.512614 -0.002547 1.150640 0
M  V30 39 H 3.374280 1.094528 2.242574 0
M  V30 40 H 4.346529 -0.559930 3.536680 0
M  V30 41 H 4.791181 -0.833123 1.805520 0
M  V30 42 H 3.649574 -2.758834 3.546106 0
M  V30 43 H 3.254401 -1.893484 -2.730314 0
M  V30 44 H 1.759085 -0.214702 -4.253850 0
M  V30 45 H -2.253895 1.027121 -1.983011 0
M  V30 46 H -1.973072 0.018944 -0.563769 0
M  V30 47 H -2.744671 -2.007044 -1.825137 0
M  V30 48 H -3.963312 -0.764735 -1.517341 0
M  V30 49 H -4.010554 -2.933669 -3.470642 0
M  V30 50 H -4.344691 -1.975792 -5.011099 0
M  V30 51 H -5.566079 -1.828849 -2.195650 0
M  V30 52 H -6.386940 -2.197990 -3.709878 0
M  V30 53 H -5.350368 1.637165 -3.874420 0
M  V30 54 H -4.829174 1.004136 -2.293762 0
M  V30 55 H -2.984902 1.086900 -4.021610 0
M  V30 56 H -4.004063 0.095502 -5.098380 0
M  V30 57 H 0.045750 -1.625735 -0.663705 0
M  V30 58 H 1.754471 -5.712676 0.195954 0
M  V30 59 H 3.395617 -5.725712 2.714452 0
M  V30 60 H 1.236410 -6.599131 3.606883 0
M  V30 61 H 0.267422 -5.315560 2.719161 0
M  V30 62 H 2.427180 -4.727200 4.889628 0
M  V30 63 H 1.479213 -3.473722 3.898953 0
M  V30 64 H -0.457193 3.314775 1.391617 0
M  V30 65 H -2.179725 2.755156 3.159904 0
M  V30 66 H -0.902529 3.203412 4.472027 0
M  V30 67 H -1.991779 4.951955 2.207921 0
M  V30 68 H -1.706947 5.442925 4.008014 0
M  V30 69 H 0.604395 4.798268 3.919034 0
M  V30 70 H 0.507672 5.436338 2.157155 0
M  V30 END ATOM
M  V30 BEGIN BOND
M  V30 1 2 1 2
M  V30 2 1 2 3
M  V30 3 1 3 4
M  V30 4 1 4 5
M  V30 5 1 5 6
M  V30 6 1 6 7
M  V30 7 1 7 8
M  V30 8 2 8 9
M  V30 9 1 9 10
M  V30 10 1 10 11
M  V30 11 1 11 12
M  V30 12 1 12 13
M  V30 13 2 13 14
M  V30 14 1 14 15
M  V30 15 1 15 16
M  V30 16 1 16 17
M  V30 17 1 17 18
M  V30 18 1 18 19
M  V30 19 1 19 20
M  V30 20 1 20 21
M  V30 21 1 21 22
M  V30 22 1 22 23
M  V30 23 1 15 24
M  V30 24 2 10 25
M  V30 25 1 25 26
M  V30 26 2 26 27
M  V30 27 1 27 28
M  V30 28 1 28 29
M  V30 29 1 29 30
M  V30 30 1 2 31
M  V30 31 1 31 32
M  V30 32 1 32 33
M  V30 33 1 33 34
M  V30 34 1 27 8
M  V30 35 1 30 28
M  V30 36 1 34 31
M  V30 37 2 24 12
M  V30 38 1 23 18
M  V30 39 1 3 35
M  V30 40 1 4 36
M  V30 41 1 4 37
M  V30 42 1 5 38
M  V30 43 1 5 39
M  V30 44 1 6 40
M  V30 45 1 6 41
M  V30 46 1 7 42
M  V30 47 1 11 43
M  V30 48 1 13 44
M  V30 49 1 16 45
M  V30 50 1 16 46
M  V30 51 1 17 47
M  V30 52 1 17 48
M  V30 53 1 19 49
M  V30 54 1 19 50
M  V30 55 1 20 51
M  V30 56 1 20 52
M  V30 57 1 22 53
M  V30 58 1 22 54
M  V30 59 1 23 55
M  V30 60 1 23 56
M  V30 61 1 24 57
M  V30 62 1 26 58
M  V30 63 1 28 59
M  V30 64 1 29 60
M  V30 65 1 29 61
M  V30 66 1 30 62
M  V30 67 1 30 63
M  V30 68 1 31 64
M  V30 69 1 32 65
M  V30 70 1 32 66
M  V30 71 1 33 67
M  V30 72 1 33 68
M  V30 73 1 34 69
M  V30 74 1 34 70
M  V30 END BOND
M  V30 END CTAB
M  END
>  <Dataset>  (781) 
ChEMBL_Kinases

>  <Ligand_Instance>  (781) 
nan

>  <PDB_ID>  (781) 
nan

>  <Standardized_SMILES>  (781) 
O=C(NCCCNc1nc(Nc2cnn(CCN3CCOCC3)c2)ncc1C1CC1)C1CCC1

>  <Name>  (781) 
nan

>  <Pocket>  (781) 
nan

>  <ATP_Site>  (781) 
nan

>  <Peripheral>  (781) 
nan

>  <Num_H_Atoms_ProtBoundConf>  (781) 
nan

>  <Num_Resolved_Atoms>  (781) 
nan

>  <Num_Not_Resolved_Atoms>  (781) 
nan

$$$$
CHEMBL2207214
     RDKit          3D

  0  0  0  0  0  0  0  0  0  0999 V3000
M  V30 BEGIN CTAB
M  V30 COUNTS 65 69 0 0 0
M  V30 BEGIN ATOM
M  V30 1 O 1.307811 0.948671 2.866178 0
M  V30 2 C 0.441792 0.173856 3.335111 0
M  V30 3 N 0.795777 -1.044797 3.958710 0
M  V30 4 C 2.156113 -1.509051 4.110094 0
M  V30 5 C 2.758879 -1.695538 2.741390 0
M  V30 6 C 1.922482 -2.743961 2.001229 0
M  V30 7 N 2.406292 -3.022493 0.684592 0
M  V30 8 C 2.467920 -2.060846 -0.355039 0
M  V30 9 N 2.113129 -0.775117 -0.194589 0
M  V30 10 C 2.217453 0.120777 -1.221666 0
M  V30 11 N 1.836715 1.488094 -1.036472 0
M  V30 12 C 0.420387 1.769537 -0.949038 0
M  V30 13 C -0.195206 2.993537 -0.840959 0
M  V30 14 N -1.522930 2.776730 -0.769071 0
M  V30 15 N -1.789166 1.487072 -0.825101 0
M  V30 16 C -2.995042 0.705799 -0.783674 0
M  V30 17 C -4.240288 1.490725 -1.055008 0
M  V30 18 C -5.390749 0.567383 -0.668149 0
M  V30 19 O -5.388922 -0.632261 -1.315504 0
M  V30 20 C -4.345748 -0.884480 -2.171758 0
M  V30 21 C -2.991630 -0.502712 -1.665881 0
M  V30 22 C -0.608593 0.832105 -0.937752 0
M  V30 23 N 2.688940 -0.269126 -2.446784 0
M  V30 24 C 3.054624 -1.571732 -2.631898 0
M  V30 25 C 2.938311 -2.453832 -1.580574 0
M  V30 26 C 3.333606 -3.815698 -2.016135 0
M  V30 27 C 2.520714 -4.403578 -3.150100 0
M  V30 28 C 2.428688 -4.968175 -1.766959 0
M  V30 29 C -0.955031 0.663228 3.170158 0
M  V30 30 C -1.736865 0.759616 4.479659 0
M  V30 31 C -2.348392 2.036084 3.908273 0
M  V30 32 C -1.037998 2.198838 3.143074 0
M  V30 33 H -0.042233 -1.588253 4.303627 0
M  V30 34 H 2.707355 -0.725549 4.694043 0
M  V30 35 H 2.202411 -2.478441 4.633503 0
M  V30 36 H 3.804168 -2.075926 2.807592 0
M  V30 37 H 2.710424 -0.743431 2.189216 0
M  V30 38 H 1.948013 -3.645347 2.632560 0
M  V30 39 H 0.881005 -2.355490 1.879134 0
M  V30 40 H 2.733909 -3.994470 0.528686 0
M  V30 41 H 2.506135 2.274186 -0.964076 0
M  V30 42 H 0.301688 3.959153 -0.816271 0
M  V30 43 H -3.060186 0.329501 0.285413 0
M  V30 44 H -4.337137 2.386337 -0.405408 0
M  V30 45 H -4.343465 1.765902 -2.105538 0
M  V30 46 H -5.214957 0.343234 0.425751 0
M  V30 47 H -6.364344 1.102050 -0.675009 0
M  V30 48 H -4.507220 -0.467958 -3.194284 0
M  V30 49 H -4.317255 -1.987384 -2.328955 0
M  V30 50 H -2.480617 -1.351407 -1.133725 0
M  V30 51 H -2.343729 -0.283205 -2.536719 0
M  V30 52 H -0.413207 -0.240467 -1.013495 0
M  V30 53 H 3.410348 -1.743510 -3.641596 0
M  V30 54 H 4.416281 -3.999252 -2.095726 0
M  V30 55 H 1.616054 -3.897491 -3.519225 0
M  V30 56 H 3.065427 -5.035783 -3.906705 0
M  V30 57 H 1.461646 -4.819799 -1.211360 0
M  V30 58 H 2.945778 -5.918254 -1.521944 0
M  V30 59 H -1.569548 0.159841 2.405338 0
M  V30 60 H -2.449983 -0.084198 4.605033 0
M  V30 61 H -1.120775 0.973758 5.375584 0
M  V30 62 H -3.161705 1.796799 3.217358 0
M  V30 63 H -2.544526 2.820989 4.668707 0
M  V30 64 H -1.102708 2.653009 2.153145 0
M  V30 65 H -0.281182 2.604399 3.853782 0
M  V30 END ATOM
M  V30 BEGIN BOND
M  V30 1 2 1 2
M  V30 2 1 2 3
M  V30 3 1 3 4
M  V30 4 1 4 5
M  V30 5 1 5 6
M  V30 6 1 6 7
M  V30 7 1 7 8
M  V30 8 2 8 9
M  V30 9 1 9 10
M  V30 10 1 10 11
M  V30 11 1 11 12
M  V30 12 1 12 13
M  V30 13 2 13 14
M  V30 14 1 14 15
M  V30 15 1 15 16
M  V30 16 1 16 17
M  V30 17 1 17 18
M  V30 18 1 18 19
M  V30 19 1 19 20
M  V30 20 1 20 21
M  V30 21 1 15 22
M  V30 22 2 10 23
M  V30 23 1 23 24
M  V30 24 2 24 25
M  V30 25 1 25 26
M  V30 26 1 26 27
M  V30 27 1 27 28
M  V30 28 1 2 29
M  V30 29 1 29 30
M  V30 30 1 30 31
M  V30 31 1 31 32
M  V30 32 1 25 8
M  V30 33 1 28 26
M  V30 34 1 32 29
M  V30 35 2 22 12
M  V30 36 1 21 16
M  V30 37 1 3 33
M  V30 38 1 4 34
M  V30 39 1 4 35
M  V30 40 1 5 36
M  V30 41 1 5 37
M  V30 42 1 6 38
M  V30 43 1 6 39
M  V30 44 1 7 40
M  V30 45 1 11 41
M  V30 46 1 13 42
M  V30 47 1 16 43
M  V30 48 1 17 44
M  V30 49 1 17 45
M  V30 50 1 18 46
M  V30 51 1 18 47
M  V30 52 1 20 48
M  V30 53 1 20 49
M  V30 54 1 21 50
M  V30 55 1 21 51
M  V30 56 1 22 52
M  V30 57 1 24 53
M  V30 58 1 26 54
M  V30 59 1 27 55
M  V30 60 1 27 56
M  V30 61 1 28 57
M  V30 62 1 28 58
M  V30 63 1 29 59
M  V30 64 1 30 60
M  V30 65 1 30 61
M  V30 66 1 31 62
M  V30 67 1 31 63
M  V30 68 1 32 64
M  V30 69 1 32 65
M  V30 END BOND
M  V30 END CTAB
M  END
>  <Dataset>  (782) 
ChEMBL_Kinases

>  <Ligand_Instance>  (782) 
nan

>  <PDB_ID>  (782) 
nan

>  <Standardized_SMILES>  (782) 
O=C(NCCCNc1nc(Nc2cnn(C3CCOCC3)c2)ncc1C1CC1)C1CCC1

>  <Name>  (782) 
nan

>  <Pocket>  (782) 
nan

>  <ATP_Site>  (782) 
nan

>  <Peripheral>  (782) 
nan

>  <Num_H_Atoms_ProtBoundConf>  (782) 
nan

>  <Num_Resolved_Atoms>  (782) 
nan

>  <Num_Not_Resolved_Atoms>  (782) 
nan

$$$$
CHEMBL2207192
     RDKit          3D

  0  0  0  0  0  0  0  0  0  0999 V3000
M  V30 BEGIN CTAB
M  V30 COUNTS 60 64 0 0 0
M  V30 BEGIN ATOM
M  V30 1 O -2.782797 -4.892187 2.317499 0
M  V30 2 C -1.848498 -5.011077 1.463113 0
M  V30 3 N -0.595996 -4.287012 1.543105 0
M  V30 4 C -0.682372 -3.480135 2.716846 0
M  V30 5 C 0.470876 -2.601491 3.045314 0
M  V30 6 C 0.838639 -1.565044 2.026519 0
M  V30 7 N 1.290907 -2.070741 0.756648 0
M  V30 8 C 1.496963 -1.220919 -0.360553 0
M  V30 9 N 1.223787 0.086405 -0.294358 0
M  V30 10 C 1.337713 0.958371 -1.285879 0
M  V30 11 N 1.036321 2.339839 -1.181946 0
M  V30 12 C 0.578948 3.056910 -0.072127 0
M  V30 13 C 0.354882 2.566412 1.187397 0
M  V30 14 C -0.099595 3.273091 2.271368 0
M  V30 15 C -0.365935 4.616997 2.104080 0
M  V30 16 C -0.161523 5.172942 0.863112 0
M  V30 17 C -0.439727 6.595448 0.661382 0
M  V30 18 C -0.898262 7.485253 1.615133 0
M  V30 19 N -1.025779 8.704728 1.017960 0
M  V30 20 C -0.649757 8.537650 -0.261519 0
M  V30 21 O -0.312473 7.297070 -0.443057 0
M  V30 22 C 0.297224 4.400254 -0.180330 0
M  V30 23 N 1.764506 0.443208 -2.431063 0
M  V30 24 C 2.053857 -0.845602 -2.566282 0
M  V30 25 C 1.939873 -1.758733 -1.539404 0
M  V30 26 C 2.328579 -3.161552 -1.781678 0
M  V30 27 C 3.645543 -3.645019 -2.145756 0
M  V30 28 C 3.184655 -3.856658 -0.733745 0
M  V30 29 C -2.346212 -5.999878 0.453010 0
M  V30 30 C -3.732310 -6.440275 0.862684 0
M  V30 31 C -4.282528 -5.254596 0.097170 0
M  V30 32 C -3.029396 -5.328105 -0.750246 0
M  V30 33 H -0.152439 -4.688126 0.668038 0
M  V30 34 H -0.923373 -4.151976 3.587616 0
M  V30 35 H -1.578927 -2.802975 2.612097 0
M  V30 36 H 1.415079 -3.202508 3.232864 0
M  V30 37 H 0.271235 -2.087724 4.012965 0
M  V30 38 H -0.047512 -0.878776 1.857276 0
M  V30 39 H 1.645951 -0.932826 2.507849 0
M  V30 40 H 1.439414 -3.089288 0.792285 0
M  V30 41 H 1.179157 2.908139 -2.071035 0
M  V30 42 H 0.541875 1.527332 1.389758 0
M  V30 43 H -0.254387 2.806188 3.249124 0
M  V30 44 H -0.720831 5.224423 2.906667 0
M  V30 45 H -1.121862 7.286012 2.645553 0
M  V30 46 H -0.604236 9.266671 -1.084035 0
M  V30 47 H 0.430291 4.923220 -1.128454 0
M  V30 48 H 2.401827 -1.182031 -3.555109 0
M  V30 49 H 1.464652 -3.789445 -2.093685 0
M  V30 50 H 3.715682 -4.601961 -2.737303 0
M  V30 51 H 4.547001 -3.056144 -2.278309 0
M  V30 52 H 2.913848 -4.873331 -0.378241 0
M  V30 53 H 3.658991 -3.258061 0.077303 0
M  V30 54 H -1.632244 -6.783979 0.176374 0
M  V30 55 H -3.915709 -6.420968 1.945545 0
M  V30 56 H -4.064943 -7.384432 0.354999 0
M  V30 57 H -4.272956 -4.296544 0.656765 0
M  V30 58 H -5.223670 -5.463625 -0.452070 0
M  V30 59 H -3.162994 -6.080353 -1.560279 0
M  V30 60 H -2.582358 -4.377430 -1.044085 0
M  V30 END ATOM
M  V30 BEGIN BOND
M  V30 1 2 1 2
M  V30 2 1 2 3
M  V30 3 1 3 4
M  V30 4 1 4 5
M  V30 5 1 5 6
M  V30 6 1 6 7
M  V30 7 1 7 8
M  V30 8 2 8 9
M  V30 9 1 9 10
M  V30 10 1 10 11
M  V30 11 1 11 12
M  V30 12 2 12 13
M  V30 13 1 13 14
M  V30 14 2 14 15
M  V30 15 1 15 16
M  V30 16 1 16 17
M  V30 17 2 17 18
M  V30 18 1 18 19
M  V30 19 2 19 20
M  V30 20 1 20 21
M  V30 21 2 16 22
M  V30 22 2 10 23
M  V30 23 1 23 24
M  V30 24 2 24 25
M  V30 25 1 25 26
M  V30 26 1 26 27
M  V30 27 1 27 28
M  V30 28 1 2 29
M  V30 29 1 29 30
M  V30 30 1 30 31
M  V30 31 1 31 32
M  V30 32 1 25 8
M  V30 33 1 28 26
M  V30 34 1 32 29
M  V30 35 1 22 12
M  V30 36 1 21 17
M  V30 37 1 3 33
M  V30 38 1 4 34
M  V30 39 1 4 35
M  V30 40 1 5 36
M  V30 41 1 5 37
M  V30 42 1 6 38
M  V30 43 1 6 39
M  V30 44 1 7 40
M  V30 45 1 11 41
M  V30 46 1 13 42
M  V30 47 1 14 43
M  V30 48 1 15 44
M  V30 49 1 18 45
M  V30 50 1 20 46
M  V30 51 1 22 47
M  V30 52 1 24 48
M  V30 53 1 26 49
M  V30 54 1 27 50
M  V30 55 1 27 51
M  V30 56 1 28 52
M  V30 57 1 28 53
M  V30 58 1 29 54
M  V30 59 1 30 55
M  V30 60 1 30 56
M  V30 61 1 31 57
M  V30 62 1 31 58
M  V30 63 1 32 59
M  V30 64 1 32 60
M  V30 END BOND
M  V30 END CTAB
M  END
>  <Dataset>  (783) 
ChEMBL_Kinases

>  <Ligand_Instance>  (783) 
nan

>  <PDB_ID>  (783) 
nan

>  <Standardized_SMILES>  (783) 
O=C(NCCCNc1nc(Nc2cccc(-c3cnco3)c2)ncc1C1CC1)C1CCC1

>  <Name>  (783) 
nan

>  <Pocket>  (783) 
nan

>  <ATP_Site>  (783) 
nan

>  <Peripheral>  (783) 
nan

>  <Num_H_Atoms_ProtBoundConf>  (783) 
nan

>  <Num_Resolved_Atoms>  (783) 
nan

>  <Num_Not_Resolved_Atoms>  (783) 
nan

$$$$
CHEMBL2207193
     RDKit          3D

  0  0  0  0  0  0  0  0  0  0999 V3000
M  V30 BEGIN CTAB
M  V30 COUNTS 67 71 0 0 0
M  V30 BEGIN ATOM
M  V30 1 O -0.211706 -1.417438 4.514618 0
M  V30 2 C -0.121821 -0.232479 4.084117 0
M  V30 3 N 0.940617 0.100599 3.232199 0
M  V30 4 C 1.890686 -0.959694 2.891711 0
M  V30 5 C 2.952300 -0.435470 1.986412 0
M  V30 6 C 3.986918 -1.440252 1.574278 0
M  V30 7 N 3.468378 -2.569549 0.862318 0
M  V30 8 C 2.792977 -2.446804 -0.378503 0
M  V30 9 N 2.591629 -1.271111 -0.978628 0
M  V30 10 C 1.948467 -1.163495 -2.169367 0
M  V30 11 N 1.842705 0.193727 -2.607317 0
M  V30 12 C 0.622767 0.892253 -2.337174 0
M  V30 13 C 0.557074 2.219843 -2.698578 0
M  V30 14 C -0.627104 2.875936 -2.445089 0
M  V30 15 C -1.679025 2.212658 -1.857801 0
M  V30 16 C -1.635586 0.891505 -1.490119 0
M  V30 17 N -2.736987 0.227057 -0.888360 0
M  V30 18 C -2.827525 -1.158678 -0.534854 0
M  V30 19 C -3.986103 -1.855922 -1.218680 0
M  V30 20 O -5.169310 -1.136518 -1.089824 0
M  V30 21 C -5.034939 0.187321 -1.428281 0
M  V30 22 C -3.989179 0.855247 -0.524891 0
M  V30 23 C -0.457061 0.268632 -1.750577 0
M  V30 24 N 1.469743 -2.244837 -2.824854 0
M  V30 25 C 1.659582 -3.450328 -2.238226 0
M  V30 26 C 2.321241 -3.575518 -1.010332 0
M  V30 27 C 2.528386 -4.880362 -0.376769 0
M  V30 28 C 1.681381 -5.506541 0.620358 0
M  V30 29 C 1.417802 -5.888702 -0.803229 0
M  V30 30 C -1.146228 0.792062 4.489605 0
M  V30 31 C -0.544032 1.981577 5.204177 0
M  V30 32 C -1.168363 2.888977 4.196804 0
M  V30 33 C -1.472812 1.686738 3.331243 0
M  V30 34 H 1.080896 1.037770 2.843613 0
M  V30 35 H 1.305341 -1.712462 2.326408 0
M  V30 36 H 2.288299 -1.330110 3.841257 0
M  V30 37 H 2.422767 -0.012392 1.083581 0
M  V30 38 H 3.426447 0.446055 2.462704 0
M  V30 39 H 4.574687 -1.723085 2.471884 0
M  V30 40 H 4.726093 -0.882499 0.931557 0
M  V30 41 H 3.608078 -3.507351 1.297442 0
M  V30 42 H 2.633614 0.641834 -3.102950 0
M  V30 43 H 1.418685 2.692619 -3.159012 0
M  V30 44 H -0.671752 3.917639 -2.730972 0
M  V30 45 H -2.548708 2.832160 -1.712177 0
M  V30 46 H -1.897630 -1.680416 -0.802792 0
M  V30 47 H -2.984752 -1.243778 0.575770 0
M  V30 48 H -4.150618 -2.809123 -0.676471 0
M  V30 49 H -3.737398 -2.123700 -2.269589 0
M  V30 50 H -4.696423 0.361545 -2.477379 0
M  V30 51 H -5.985196 0.698445 -1.252578 0
M  V30 52 H -4.026797 1.940217 -0.701644 0
M  V30 53 H -4.254484 0.589435 0.522910 0
M  V30 54 H -0.280679 -0.757447 -1.517853 0
M  V30 55 H 1.280523 -4.335212 -2.750722 0
M  V30 56 H 3.581412 -5.259410 -0.534220 0
M  V30 57 H 0.938755 -4.974334 1.236188 0
M  V30 58 H 2.178845 -6.328644 1.215891 0
M  V30 59 H 1.787821 -6.845927 -1.208988 0
M  V30 60 H 0.489082 -5.484889 -1.228259 0
M  V30 61 H -2.035426 0.334848 4.972433 0
M  V30 62 H -0.953595 2.121282 6.206033 0
M  V30 63 H 0.565572 1.980717 5.236879 0
M  V30 64 H -2.102273 3.387965 4.520395 0
M  V30 65 H -0.488286 3.619120 3.710067 0
M  V30 66 H -2.529006 1.623380 2.979317 0
M  V30 67 H -0.818005 1.645100 2.459668 0
M  V30 END ATOM
M  V30 BEGIN BOND
M  V30 1 2 1 2
M  V30 2 1 2 3
M  V30 3 1 3 4
M  V30 4 1 4 5
M  V30 5 1 5 6
M  V30 6 1 6 7
M  V30 7 1 7 8
M  V30 8 2 8 9
M  V30 9 1 9 10
M  V30 10 1 10 11
M  V30 11 1 11 12
M  V30 12 2 12 13
M  V30 13 1 13 14
M  V30 14 2 14 15
M  V30 15 1 15 16
M  V30 16 1 16 17
M  V30 17 1 17 18
M  V30 18 1 18 19
M  V30 19 1 19 20
M  V30 20 1 20 21
M  V30 21 1 21 22
M  V30 22 2 16 23
M  V30 23 2 10 24
M  V30 24 1 24 25
M  V30 25 2 25 26
M  V30 26 1 26 27
M  V30 27 1 27 28
M  V30 28 1 28 29
M  V30 29 1 2 30
M  V30 30 1 30 31
M  V30 31 1 31 32
M  V30 32 1 32 33
M  V30 33 1 26 8
M  V30 34 1 29 27
M  V30 35 1 33 30
M  V30 36 1 23 12
M  V30 37 1 22 17
M  V30 38 1 3 34
M  V30 39 1 4 35
M  V30 40 1 4 36
M  V30 41 1 5 37
M  V30 42 1 5 38
M  V30 43 1 6 39
M  V30 44 1 6 40
M  V30 45 1 7 41
M  V30 46 1 11 42
M  V30 47 1 13 43
M  V30 48 1 14 44
M  V30 49 1 15 45
M  V30 50 1 18 46
M  V30 51 1 18 47
M  V30 52 1 19 48
M  V30 53 1 19 49
M  V30 54 1 21 50
M  V30 55 1 21 51
M  V30 56 1 22 52
M  V30 57 1 22 53
M  V30 58 1 23 54
M  V30 59 1 25 55
M  V30 60 1 27 56
M  V30 61 1 28 57
M  V30 62 1 28 58
M  V30 63 1 29 59
M  V30 64 1 29 60
M  V30 65 1 30 61
M  V30 66 1 31 62
M  V30 67 1 31 63
M  V30 68 1 32 64
M  V30 69 1 32 65
M  V30 70 1 33 66
M  V30 71 1 33 67
M  V30 END BOND
M  V30 END CTAB
M  END
>  <Dataset>  (784) 
ChEMBL_Kinases

>  <Ligand_Instance>  (784) 
nan

>  <PDB_ID>  (784) 
nan

>  <Standardized_SMILES>  (784) 
O=C(NCCCNc1nc(Nc2cccc(N3CCOCC3)c2)ncc1C1CC1)C1CCC1

>  <Name>  (784) 
nan

>  <Pocket>  (784) 
nan

>  <ATP_Site>  (784) 
nan

>  <Peripheral>  (784) 
nan

>  <Num_H_Atoms_ProtBoundConf>  (784) 
nan

>  <Num_Resolved_Atoms>  (784) 
nan

>  <Num_Not_Resolved_Atoms>  (784) 
nan

$$$$
CHEMBL2207194
     RDKit          3D

  0  0  0  0  0  0  0  0  0  0999 V3000
M  V30 BEGIN CTAB
M  V30 COUNTS 63 67 0 0 0
M  V30 BEGIN ATOM
M  V30 1 O -1.568879 -2.274896 2.718792 0
M  V30 2 C -1.154790 -1.339401 3.484912 0
M  V30 3 N 0.125613 -0.811330 3.249958 0
M  V30 4 C 1.031770 -1.269412 2.171386 0
M  V30 5 C 1.361355 -2.706990 2.316370 0
M  V30 6 C 2.304871 -3.311865 1.338525 0
M  V30 7 N 1.981030 -3.294859 -0.035251 0
M  V30 8 C 1.889224 -2.411062 -1.138234 0
M  V30 9 N 2.225935 -1.134405 -0.907526 0
M  V30 10 C 2.218629 -0.178774 -1.842308 0
M  V30 11 N 2.580579 1.149084 -1.475678 0
M  V30 12 C 1.519422 2.090154 -1.225732 0
M  V30 13 C 1.683639 3.377711 -0.753681 0
M  V30 14 C 0.601394 4.206250 -0.564516 0
M  V30 15 C -0.694651 3.777304 -0.841706 0
M  V30 16 C -0.927493 2.505381 -1.315015 0
M  V30 17 C -2.267126 1.981968 -1.642997 0
M  V30 18 N -2.926952 1.349377 -0.535232 0
M  V30 19 C -2.779154 0.032861 -0.297403 0
M  V30 20 N -3.505168 -0.263192 0.780083 0
M  V30 21 C -4.091869 0.868641 1.195357 0
M  V30 22 N -3.732185 1.879448 0.374666 0
M  V30 23 C 0.194406 1.730174 -1.480981 0
M  V30 24 N 1.845492 -0.530136 -3.103647 0
M  V30 25 C 1.496760 -1.794984 -3.394671 0
M  V30 26 C 1.505992 -2.771469 -2.431655 0
M  V30 27 C 1.136614 -4.193714 -2.657203 0
M  V30 28 C 2.233141 -5.181090 -3.037323 0
M  V30 29 C 1.256628 -4.716341 -4.093320 0
M  V30 30 C -1.956500 -0.794409 4.595867 0
M  V30 31 C -2.258965 0.678587 4.531412 0
M  V30 32 C -3.587110 0.348948 5.193985 0
M  V30 33 C -3.452668 -1.016890 4.504749 0
M  V30 34 H 0.469234 -0.030361 3.887364 0
M  V30 35 H 1.953114 -0.671000 2.206727 0
M  V30 36 H 0.536455 -1.048782 1.189183 0
M  V30 37 H 0.462452 -3.368177 2.349172 0
M  V30 38 H 1.831663 -2.879825 3.336747 0
M  V30 39 H 2.516075 -4.358381 1.724840 0
M  V30 40 H 3.342800 -2.830230 1.443737 0
M  V30 41 H 1.709698 -4.276862 -0.358983 0
M  V30 42 H 3.529358 1.564074 -1.354689 0
M  V30 43 H 2.687303 3.691711 -0.545537 0
M  V30 44 H 0.746363 5.214746 -0.192998 0
M  V30 45 H -1.556198 4.422847 -0.696054 0
M  V30 46 H -2.122020 1.272733 -2.498208 0
M  V30 47 H -2.861481 2.812640 -2.065750 0
M  V30 48 H -2.218215 -0.744800 -0.796276 0
M  V30 49 H -4.756278 1.120232 2.008085 0
M  V30 50 H 0.019935 0.710499 -1.858715 0
M  V30 51 H 1.193208 -2.121369 -4.377160 0
M  V30 52 H 0.251553 -4.586711 -2.123617 0
M  V30 53 H 3.257120 -4.750291 -3.051341 0
M  V30 54 H 2.138478 -6.213010 -2.640398 0
M  V30 55 H 1.637296 -4.043507 -4.861749 0
M  V30 56 H 0.500074 -5.450282 -4.440657 0
M  V30 57 H -1.528598 -1.048772 5.568476 0
M  V30 58 H -2.424482 1.110810 3.543693 0
M  V30 59 H -1.676209 1.314132 5.235723 0
M  V30 60 H -4.441124 0.948198 4.849394 0
M  V30 61 H -3.484820 0.181472 6.281512 0
M  V30 62 H -3.828913 -1.855004 5.115383 0
M  V30 63 H -3.828290 -0.999964 3.460404 0
M  V30 END ATOM
M  V30 BEGIN BOND
M  V30 1 2 1 2
M  V30 2 1 2 3
M  V30 3 1 3 4
M  V30 4 1 4 5
M  V30 5 1 5 6
M  V30 6 1 6 7
M  V30 7 1 7 8
M  V30 8 2 8 9
M  V30 9 1 9 10
M  V30 10 1 10 11
M  V30 11 1 11 12
M  V30 12 2 12 13
M  V30 13 1 13 14
M  V30 14 2 14 15
M  V30 15 1 15 16
M  V30 16 1 16 17
M  V30 17 1 17 18
M  V30 18 1 18 19
M  V30 19 2 19 20
M  V30 20 1 20 21
M  V30 21 2 21 22
M  V30 22 2 16 23
M  V30 23 2 10 24
M  V30 24 1 24 25
M  V30 25 2 25 26
M  V30 26 1 26 27
M  V30 27 1 27 28
M  V30 28 1 28 29
M  V30 29 1 2 30
M  V30 30 1 30 31
M  V30 31 1 31 32
M  V30 32 1 32 33
M  V30 33 1 26 8
M  V30 34 1 29 27
M  V30 35 1 33 30
M  V30 36 1 23 12
M  V30 37 1 22 18
M  V30 38 1 3 34
M  V30 39 1 4 35
M  V30 40 1 4 36
M  V30 41 1 5 37
M  V30 42 1 5 38
M  V30 43 1 6 39
M  V30 44 1 6 40
M  V30 45 1 7 41
M  V30 46 1 11 42
M  V30 47 1 13 43
M  V30 48 1 14 44
M  V30 49 1 15 45
M  V30 50 1 17 46
M  V30 51 1 17 47
M  V30 52 1 19 48
M  V30 53 1 21 49
M  V30 54 1 23 50
M  V30 55 1 25 51
M  V30 56 1 27 52
M  V30 57 1 28 53
M  V30 58 1 28 54
M  V30 59 1 29 55
M  V30 60 1 29 56
M  V30 61 1 30 57
M  V30 62 1 31 58
M  V30 63 1 31 59
M  V30 64 1 32 60
M  V30 65 1 32 61
M  V30 66 1 33 62
M  V30 67 1 33 63
M  V30 END BOND
M  V30 END CTAB
M  END
>  <Dataset>  (785) 
ChEMBL_Kinases

>  <Ligand_Instance>  (785) 
nan

>  <PDB_ID>  (785) 
nan

>  <Standardized_SMILES>  (785) 
O=C(NCCCNc1nc(Nc2cccc(Cn3cncn3)c2)ncc1C1CC1)C1CCC1

>  <Name>  (785) 
nan

>  <Pocket>  (785) 
nan

>  <ATP_Site>  (785) 
nan

>  <Peripheral>  (785) 
nan

>  <Num_H_Atoms_ProtBoundConf>  (785) 
nan

>  <Num_Resolved_Atoms>  (785) 
nan

>  <Num_Not_Resolved_Atoms>  (785) 
nan

$$$$
CHEMBL2207196
     RDKit          3D

  0  0  0  0  0  0  0  0  0  0999 V3000
M  V30 BEGIN CTAB
M  V30 COUNTS 65 68 0 0 0
M  V30 BEGIN ATOM
M  V30 1 C 1.873611 -3.134558 3.663667 0
M  V30 2 N 3.189443 -2.678615 4.003375 0
M  V30 3 C 4.102535 -3.089361 2.956122 0
M  V30 4 C 3.260756 -1.249730 4.245822 0
M  V30 5 C 2.848216 -0.456399 3.053404 0
M  V30 6 C 3.892110 -0.149076 2.193932 0
M  V30 7 C 3.668641 0.589643 1.031493 0
M  V30 8 C 2.356843 0.966349 0.834657 0
M  V30 9 N 2.100680 1.722020 -0.344280 0
M  V30 10 C 0.917037 2.285116 -0.903444 0
M  V30 11 N 0.483823 3.547129 -0.611642 0
M  V30 12 C -0.664574 3.984244 -1.206558 0
M  V30 13 C -1.401098 3.184593 -2.096324 0
M  V30 14 C -2.592114 3.912170 -2.524937 0
M  V30 15 C -3.685356 4.247896 -1.551045 0
M  V30 16 C -3.903555 3.377644 -2.832618 0
M  V30 17 C -0.934252 1.928180 -2.363928 0
M  V30 18 N -1.675788 1.187363 -3.312034 0
M  V30 19 C -1.427749 -0.158901 -3.761518 0
M  V30 20 C -1.792424 -1.255759 -2.836046 0
M  V30 21 C -1.151107 -1.280382 -1.495508 0
M  V30 22 N -1.640423 -2.476002 -0.769182 0
M  V30 23 C -1.221536 -2.791906 0.537824 0
M  V30 24 O -0.400710 -2.037418 1.120839 0
M  V30 25 C -1.735659 -3.990894 1.218756 0
M  V30 26 C -1.185168 -4.185465 2.616400 0
M  V30 27 C -2.565271 -4.705766 3.003399 0
M  V30 28 C -3.105047 -3.815620 1.879934 0
M  V30 29 N 0.194338 1.550661 -1.753778 0
M  V30 30 C 1.283837 0.688382 1.654608 0
M  V30 31 C 1.571565 -0.045951 2.788491 0
M  V30 32 H 1.702032 -3.161621 2.566717 0
M  V30 33 H 1.727549 -4.202078 3.996083 0
M  V30 34 H 1.075568 -2.580332 4.212469 0
M  V30 35 H 4.052638 -4.205484 2.919441 0
M  V30 36 H 3.804221 -2.740664 1.949545 0
M  V30 37 H 5.113765 -2.800225 3.261830 0
M  V30 38 H 2.516735 -1.009033 5.032107 0
M  V30 39 H 4.263921 -1.005756 4.610451 0
M  V30 40 H 4.917836 -0.457293 2.370681 0
M  V30 41 H 4.444282 0.857326 0.327227 0
M  V30 42 H 2.823115 2.001750 -1.043140 0
M  V30 43 H -0.869474 4.994284 -0.874235 0
M  V30 44 H -2.305944 4.832113 -3.125799 0
M  V30 45 H -4.187739 5.237065 -1.559734 0
M  V30 46 H -3.755259 3.752263 -0.581766 0
M  V30 47 H -4.318029 2.386031 -2.646250 0
M  V30 48 H -4.526472 3.896018 -3.624316 0
M  V30 49 H -2.504667 1.575130 -3.804261 0
M  V30 50 H -0.330285 -0.307692 -4.000233 0
M  V30 51 H -1.915011 -0.395067 -4.748659 0
M  V30 52 H -1.531701 -2.215541 -3.346452 0
M  V30 53 H -2.917738 -1.289308 -2.767411 0
M  V30 54 H -0.053799 -1.330445 -1.508314 0
M  V30 55 H -1.436836 -0.412920 -0.856184 0
M  V30 56 H -2.332127 -3.137580 -1.223937 0
M  V30 57 H -1.719646 -4.926988 0.630927 0
M  V30 58 H -0.371079 -4.934459 2.680255 0
M  V30 59 H -0.990738 -3.222758 3.134844 0
M  V30 60 H -2.896721 -4.412646 4.022385 0
M  V30 61 H -2.722276 -5.775799 2.746821 0
M  V30 62 H -3.243280 -2.755348 2.200684 0
M  V30 63 H -3.935971 -4.249517 1.311713 0
M  V30 64 H 0.287087 1.029417 1.413272 0
M  V30 65 H 0.793371 -0.310235 3.488147 0
M  V30 END ATOM
M  V30 BEGIN BOND
M  V30 1 1 1 2
M  V30 2 1 2 3
M  V30 3 1 2 4
M  V30 4 1 4 5
M  V30 5 2 5 6
M  V30 6 1 6 7
M  V30 7 2 7 8
M  V30 8 1 8 9
M  V30 9 1 9 10
M  V30 10 2 10 11
M  V30 11 1 11 12
M  V30 12 2 12 13
M  V30 13 1 13 14
M  V30 14 1 14 15
M  V30 15 1 15 16
M  V30 16 1 13 17
M  V30 17 1 17 18
M  V30 18 1 18 19
M  V30 19 1 19 20
M  V30 20 1 20 21
M  V30 21 1 21 22
M  V30 22 1 22 23
M  V30 23 2 23 24
M  V30 24 1 23 25
M  V30 25 1 25 26
M  V30 26 1 26 27
M  V30 27 1 27 28
M  V30 28 2 17 29
M  V30 29 1 8 30
M  V30 30 2 30 31
M  V30 31 1 31 5
M  V30 32 1 29 10
M  V30 33 1 16 14
M  V30 34 1 28 25
M  V30 35 1 1 32
M  V30 36 1 1 33
M  V30 37 1 1 34
M  V30 38 1 3 35
M  V30 39 1 3 36
M  V30 40 1 3 37
M  V30 41 1 4 38
M  V30 42 1 4 39
M  V30 43 1 6 40
M  V30 44 1 7 41
M  V30 45 1 9 42
M  V30 46 1 12 43
M  V30 47 1 14 44
M  V30 48 1 15 45
M  V30 49 1 15 46
M  V30 50 1 16 47
M  V30 51 1 16 48
M  V30 52 1 18 49
M  V30 53 1 19 50
M  V30 54 1 19 51
M  V30 55 1 20 52
M  V30 56 1 20 53
M  V30 57 1 21 54
M  V30 58 1 21 55
M  V30 59 1 22 56
M  V30 60 1 25 57
M  V30 61 1 26 58
M  V30 62 1 26 59
M  V30 63 1 27 60
M  V30 64 1 27 61
M  V30 65 1 28 62
M  V30 66 1 28 63
M  V30 67 1 30 64
M  V30 68 1 31 65
M  V30 END BOND
M  V30 END CTAB
M  END
>  <Dataset>  (786) 
ChEMBL_Kinases

>  <Ligand_Instance>  (786) 
nan

>  <PDB_ID>  (786) 
nan

>  <Standardized_SMILES>  (786) 
CN(C)Cc1ccc(Nc2ncc(C3CC3)c(NCCCNC(=O)C3CCC3)n2)cc1

>  <Name>  (786) 
nan

>  <Pocket>  (786) 
nan

>  <ATP_Site>  (786) 
nan

>  <Peripheral>  (786) 
nan

>  <Num_H_Atoms_ProtBoundConf>  (786) 
nan

>  <Num_Resolved_Atoms>  (786) 
nan

>  <Num_Not_Resolved_Atoms>  (786) 
nan

$$$$
CHEMBL2207197
     RDKit          3D

  0  0  0  0  0  0  0  0  0  0999 V3000
M  V30 BEGIN CTAB
M  V30 COUNTS 72 76 0 0 0
M  V30 BEGIN ATOM
M  V30 1 C 3.736273 -4.407108 1.144319 0
M  V30 2 N 3.695644 -3.223865 0.306205 0
M  V30 3 C 3.909461 -2.006879 1.062968 0
M  V30 4 C 4.778156 -1.004006 0.362256 0
M  V30 5 C 4.521019 -0.812422 -1.084401 0
M  V30 6 C 3.381670 0.063422 -1.433368 0
M  V30 7 C 2.102827 -0.279254 -1.111574 0
M  V30 8 C 1.071055 0.543681 -1.435881 0
M  V30 9 C 1.191112 1.748644 -2.089180 0
M  V30 10 N 0.146555 2.634457 -2.445506 0
M  V30 11 C -1.243669 2.459902 -2.247883 0
M  V30 12 N -2.105410 3.414305 -2.624090 0
M  V30 13 C -3.430281 3.334089 -2.477470 0
M  V30 14 C -3.995396 2.212653 -1.905283 0
M  V30 15 C -5.458526 2.290679 -1.769187 0
M  V30 16 C -6.068785 3.368788 -0.881929 0
M  V30 17 C -5.969225 1.979513 -0.403166 0
M  V30 18 C -3.137625 1.217412 -1.511239 0
M  V30 19 N -3.707582 0.051343 -0.964515 0
M  V30 20 C -2.780100 -0.967736 -0.555340 0
M  V30 21 C -3.542235 -2.136661 0.019167 0
M  V30 22 C -2.621226 -3.256173 0.470427 0
M  V30 23 N -1.704508 -2.792316 1.489689 0
M  V30 24 C -2.076301 -2.259500 2.751945 0
M  V30 25 O -3.288739 -2.156544 3.070005 0
M  V30 26 C -1.069293 -1.806958 3.738666 0
M  V30 27 C -1.678223 -1.272244 5.018976 0
M  V30 28 C -0.511598 -1.927455 5.753371 0
M  V30 29 C -0.470397 -2.917030 4.587591 0
M  V30 30 N -1.825415 1.390666 -1.699837 0
M  V30 31 C 2.492449 2.068471 -2.401652 0
M  V30 32 C 3.568215 1.269318 -2.094644 0
M  V30 33 C 4.279656 -2.152306 -1.736152 0
M  V30 34 C 4.605779 -3.312790 -0.822378 0
M  V30 35 H 2.737133 -4.860722 1.131461 0
M  V30 36 H 4.443617 -5.154363 0.721233 0
M  V30 37 H 3.962441 -4.145272 2.209182 0
M  V30 38 H 2.986205 -1.586105 1.506096 0
M  V30 39 H 4.508005 -2.342136 1.963573 0
M  V30 40 H 4.788913 -0.074019 0.957525 0
M  V30 41 H 5.841908 -1.382848 0.441683 0
M  V30 42 H 5.425130 -0.372584 -1.596332 0
M  V30 43 H 1.936091 -1.213701 -0.600341 0
M  V30 44 H 0.090179 0.207221 -1.148704 0
M  V30 45 H 0.437252 3.525444 -2.912009 0
M  V30 46 H -4.001977 4.198963 -2.835270 0
M  V30 47 H -6.050939 2.071035 -2.662002 0
M  V30 48 H -5.355821 4.114233 -0.443456 0
M  V30 49 H -7.047721 3.796162 -1.173283 0
M  V30 50 H -5.226513 1.745170 0.409392 0
M  V30 51 H -6.837843 1.300216 -0.382569 0
M  V30 52 H -4.712322 -0.111630 -0.858082 0
M  V30 53 H -2.240087 -1.286262 -1.490465 0
M  V30 54 H -2.062649 -0.584049 0.201809 0
M  V30 55 H -4.295255 -2.495150 -0.704714 0
M  V30 56 H -4.073329 -1.759550 0.914613 0
M  V30 57 H -2.022879 -3.639660 -0.372818 0
M  V30 58 H -3.289385 -4.075425 0.828468 0
M  V30 59 H -0.651763 -2.828745 1.334845 0
M  V30 60 H -0.259238 -1.181653 3.360749 0
M  V30 61 H -1.748861 -0.186578 5.112500 0
M  V30 62 H -2.605529 -1.843191 5.292511 0
M  V30 63 H 0.440957 -1.320843 5.711216 0
M  V30 64 H -0.753751 -2.360680 6.725581 0
M  V30 65 H 0.553633 -3.221844 4.300245 0
M  V30 66 H -1.201537 -3.726769 4.714537 0
M  V30 67 H 2.755951 2.989410 -2.919345 0
M  V30 68 H 4.584480 1.536736 -2.347677 0
M  V30 69 H 3.194229 -2.261936 -1.999111 0
M  V30 70 H 4.825066 -2.243957 -2.710052 0
M  V30 71 H 4.358909 -4.239092 -1.368384 0
M  V30 72 H 5.654233 -3.260053 -0.522881 0
M  V30 END ATOM
M  V30 BEGIN BOND
M  V30 1 1 1 2
M  V30 2 1 2 3
M  V30 3 1 3 4
M  V30 4 1 4 5
M  V30 5 1 5 6
M  V30 6 2 6 7
M  V30 7 1 7 8
M  V30 8 2 8 9
M  V30 9 1 9 10
M  V30 10 1 10 11
M  V30 11 2 11 12
M  V30 12 1 12 13
M  V30 13 2 13 14
M  V30 14 1 14 15
M  V30 15 1 15 16
M  V30 16 1 16 17
M  V30 17 1 14 18
M  V30 18 1 18 19
M  V30 19 1 19 20
M  V30 20 1 20 21
M  V30 21 1 21 22
M  V30 22 1 22 23
M  V30 23 1 23 24
M  V30 24 2 24 25
M  V30 25 1 24 26
M  V30 26 1 26 27
M  V30 27 1 27 28
M  V30 28 1 28 29
M  V30 29 2 18 30
M  V30 30 1 9 31
M  V30 31 2 31 32
M  V30 32 1 5 33
M  V30 33 1 33 34
M  V30 34 1 34 2
M  V30 35 1 32 6
M  V30 36 1 30 11
M  V30 37 1 17 15
M  V30 38 1 29 26
M  V30 39 1 1 35
M  V30 40 1 1 36
M  V30 41 1 1 37
M  V30 42 1 3 38
M  V30 43 1 3 39
M  V30 44 1 4 40
M  V30 45 1 4 41
M  V30 46 1 5 42
M  V30 47 1 7 43
M  V30 48 1 8 44
M  V30 49 1 10 45
M  V30 50 1 13 46
M  V30 51 1 15 47
M  V30 52 1 16 48
M  V30 53 1 16 49
M  V30 54 1 17 50
M  V30 55 1 17 51
M  V30 56 1 19 52
M  V30 57 1 20 53
M  V30 58 1 20 54
M  V30 59 1 21 55
M  V30 60 1 21 56
M  V30 61 1 22 57
M  V30 62 1 22 58
M  V30 63 1 23 59
M  V30 64 1 26 60
M  V30 65 1 27 61
M  V30 66 1 27 62
M  V30 67 1 28 63
M  V30 68 1 28 64
M  V30 69 1 29 65
M  V30 70 1 29 66
M  V30 71 1 31 67
M  V30 72 1 32 68
M  V30 73 1 33 69
M  V30 74 1 33 70
M  V30 75 1 34 71
M  V30 76 1 34 72
M  V30 END BOND
M  V30 END CTAB
M  END
>  <Dataset>  (787) 
ChEMBL_Kinases

>  <Ligand_Instance>  (787) 
nan

>  <PDB_ID>  (787) 
nan

>  <Standardized_SMILES>  (787) 
CN1CCC(c2ccc(Nc3ncc(C4CC4)c(NCCCNC(=O)C4CCC4)n3)cc2)CC1

>  <Name>  (787) 
nan

>  <Pocket>  (787) 
nan

>  <ATP_Site>  (787) 
nan

>  <Peripheral>  (787) 
nan

>  <Num_H_Atoms_ProtBoundConf>  (787) 
nan

>  <Num_Resolved_Atoms>  (787) 
nan

>  <Num_Not_Resolved_Atoms>  (787) 
nan

$$$$
CHEMBL2207198
     RDKit          3D

  0  0  0  0  0  0  0  0  0  0999 V3000
M  V30 BEGIN CTAB
M  V30 COUNTS 67 71 0 0 0
M  V30 BEGIN ATOM
M  V30 1 O 1.351288 -0.991908 6.032899 0
M  V30 2 C 1.004102 -0.266138 5.059606 0
M  V30 3 N 1.963233 0.142815 4.102374 0
M  V30 4 C 3.375836 -0.214606 4.140400 0
M  V30 5 C 4.085615 0.405659 2.955472 0
M  V30 6 C 3.524615 -0.058639 1.648519 0
M  V30 7 N 3.590618 -1.465485 1.410449 0
M  V30 8 C 3.051211 -1.904704 0.179103 0
M  V30 9 N 2.545568 -1.100149 -0.740579 0
M  V30 10 C 2.079168 -1.576307 -1.907089 0
M  V30 11 N 1.553022 -0.637878 -2.836564 0
M  V30 12 C 0.167692 -0.331733 -2.742283 0
M  V30 13 C -0.631591 -0.914189 -1.780800 0
M  V30 14 C -1.972620 -0.602909 -1.708996 0
M  V30 15 C -2.595825 0.277564 -2.555706 0
M  V30 16 N -3.976137 0.580004 -2.458341 0
M  V30 17 C -4.884654 0.085610 -1.445026 0
M  V30 18 C -5.998431 -0.697967 -2.104613 0
M  V30 19 O -5.943133 -0.653400 -3.476786 0
M  V30 20 C -5.791088 0.595991 -4.006607 0
M  V30 21 C -4.705379 1.436025 -3.371193 0
M  V30 22 C -1.794122 0.853935 -3.510847 0
M  V30 23 C -0.454514 0.553505 -3.595298 0
M  V30 24 N 2.095870 -2.890915 -2.213249 0
M  V30 25 C 2.616420 -3.724313 -1.266390 0
M  V30 26 C 3.108137 -3.255874 -0.043390 0
M  V30 27 C 3.566341 -4.364158 0.796417 0
M  V30 28 C 2.698524 -5.394739 1.377755 0
M  V30 29 C 3.107387 -4.221672 2.267395 0
M  V30 30 C -0.415163 0.158129 4.921352 0
M  V30 31 C -0.470830 1.673546 4.937956 0
M  V30 32 C -1.541118 1.570626 3.870788 0
M  V30 33 C -0.965036 0.213323 3.524562 0
M  V30 34 H 1.607198 0.749516 3.313771 0
M  V30 35 H 3.474169 -1.319155 4.071664 0
M  V30 36 H 3.857017 0.105927 5.075169 0
M  V30 37 H 5.161470 0.228214 3.059541 0
M  V30 38 H 3.929173 1.494473 3.032258 0
M  V30 39 H 4.059241 0.527314 0.845447 0
M  V30 40 H 2.463144 0.245107 1.534308 0
M  V30 41 H 4.044675 -1.970209 2.191026 0
M  V30 42 H 2.104731 -0.150427 -3.589711 0
M  V30 43 H -0.152198 -1.612164 -1.104107 0
M  V30 44 H -2.489332 -1.121236 -0.919458 0
M  V30 45 H -5.373987 0.992362 -0.979049 0
M  V30 46 H -4.366343 -0.478321 -0.671099 0
M  V30 47 H -5.812162 -1.773648 -1.825230 0
M  V30 48 H -6.963643 -0.445018 -1.652685 0
M  V30 49 H -6.762420 1.148626 -3.980755 0
M  V30 50 H -5.598116 0.465933 -5.111440 0
M  V30 51 H -5.210176 2.226854 -2.763768 0
M  V30 52 H -4.113939 1.861421 -4.181343 0
M  V30 53 H -2.139812 1.555850 -4.235296 0
M  V30 54 H 0.192912 1.003686 -4.348185 0
M  V30 55 H 2.587723 -4.767081 -1.603229 0
M  V30 56 H 4.655812 -4.595065 0.649059 0
M  V30 57 H 3.191803 -6.359894 1.635794 0
M  V30 58 H 1.632257 -5.482670 1.133537 0
M  V30 59 H 3.918499 -4.364189 3.009115 0
M  V30 60 H 2.293990 -3.489084 2.487947 0
M  V30 61 H -1.095918 -0.329801 5.649512 0
M  V30 62 H 0.466400 2.176405 4.642214 0
M  V30 63 H -0.938060 2.098974 5.852859 0
M  V30 64 H -2.573086 1.589775 4.248121 0
M  V30 65 H -1.322287 2.323197 3.061961 0
M  V30 66 H -0.253490 0.201336 2.690168 0
M  V30 67 H -1.809490 -0.516271 3.425369 0
M  V30 END ATOM
M  V30 BEGIN BOND
M  V30 1 2 1 2
M  V30 2 1 2 3
M  V30 3 1 3 4
M  V30 4 1 4 5
M  V30 5 1 5 6
M  V30 6 1 6 7
M  V30 7 1 7 8
M  V30 8 2 8 9
M  V30 9 1 9 10
M  V30 10 1 10 11
M  V30 11 1 11 12
M  V30 12 2 12 13
M  V30 13 1 13 14
M  V30 14 2 14 15
M  V30 15 1 15 16
M  V30 16 1 16 17
M  V30 17 1 17 18
M  V30 18 1 18 19
M  V30 19 1 19 20
M  V30 20 1 20 21
M  V30 21 1 15 22
M  V30 22 2 22 23
M  V30 23 2 10 24
M  V30 24 1 24 25
M  V30 25 2 25 26
M  V30 26 1 26 27
M  V30 27 1 27 28
M  V30 28 1 28 29
M  V30 29 1 2 30
M  V30 30 1 30 31
M  V30 31 1 31 32
M  V30 32 1 32 33
M  V30 33 1 26 8
M  V30 34 1 29 27
M  V30 35 1 33 30
M  V30 36 1 23 12
M  V30 37 1 21 16
M  V30 38 1 3 34
M  V30 39 1 4 35
M  V30 40 1 4 36
M  V30 41 1 5 37
M  V30 42 1 5 38
M  V30 43 1 6 39
M  V30 44 1 6 40
M  V30 45 1 7 41
M  V30 46 1 11 42
M  V30 47 1 13 43
M  V30 48 1 14 44
M  V30 49 1 17 45
M  V30 50 1 17 46
M  V30 51 1 18 47
M  V30 52 1 18 48
M  V30 53 1 20 49
M  V30 54 1 20 50
M  V30 55 1 21 51
M  V30 56 1 21 52
M  V30 57 1 22 53
M  V30 58 1 23 54
M  V30 59 1 25 55
M  V30 60 1 27 56
M  V30 61 1 28 57
M  V30 62 1 28 58
M  V30 63 1 29 59
M  V30 64 1 29 60
M  V30 65 1 30 61
M  V30 66 1 31 62
M  V30 67 1 31 63
M  V30 68 1 32 64
M  V30 69 1 32 65
M  V30 70 1 33 66
M  V30 71 1 33 67
M  V30 END BOND
M  V30 END CTAB
M  END
>  <Dataset>  (788) 
ChEMBL_Kinases

>  <Ligand_Instance>  (788) 
nan

>  <PDB_ID>  (788) 
nan

>  <Standardized_SMILES>  (788) 
O=C(NCCCNc1nc(Nc2ccc(N3CCOCC3)cc2)ncc1C1CC1)C1CCC1

>  <Name>  (788) 
nan

>  <Pocket>  (788) 
nan

>  <ATP_Site>  (788) 
nan

>  <Peripheral>  (788) 
nan

>  <Num_H_Atoms_ProtBoundConf>  (788) 
nan

>  <Num_Resolved_Atoms>  (788) 
nan

>  <Num_Not_Resolved_Atoms>  (788) 
nan

$$$$
CHEMBL2207199
     RDKit          3D

  0  0  0  0  0  0  0  0  0  0999 V3000
M  V30 BEGIN CTAB
M  V30 COUNTS 60 64 0 0 0
M  V30 BEGIN ATOM
M  V30 1 O -0.352917 -0.332597 1.932948 0
M  V30 2 C -0.708668 -1.554929 1.818274 0
M  V30 3 N -0.203441 -2.513452 2.727143 0
M  V30 4 C 0.664905 -2.062929 3.748613 0
M  V30 5 C 1.953845 -1.444467 3.397245 0
M  V30 6 C 2.992370 -2.231336 2.718151 0
M  V30 7 N 2.733416 -2.773309 1.436386 0
M  V30 8 C 2.427351 -2.103971 0.197547 0
M  V30 9 N 2.318698 -0.749714 0.265847 0
M  V30 10 C 2.014040 -0.032750 -0.849027 0
M  V30 11 N 1.946584 1.385318 -0.596607 0
M  V30 12 C 0.798416 2.196975 -0.417447 0
M  V30 13 C 0.802317 3.494098 -0.016144 0
M  V30 14 C -0.382386 4.185120 0.108720 0
M  V30 15 C -1.611153 3.594875 -0.166185 0
M  V30 16 N -2.879143 4.229516 -0.065734 0
M  V30 17 C -3.560715 5.099319 -0.830544 0
M  V30 18 N -4.752622 5.395435 -0.271780 0
M  V30 19 C -4.796051 4.675177 0.880005 0
M  V30 20 N -3.637733 3.962736 0.994381 0
M  V30 21 C -1.654017 2.276494 -0.577283 0
M  V30 22 C -0.426990 1.626664 -0.686148 0
M  V30 23 N 1.810225 -0.629473 -2.044722 0
M  V30 24 C 1.917187 -1.985702 -2.121248 0
M  V30 25 C 2.225520 -2.762539 -1.024120 0
M  V30 26 C 2.419457 -4.210181 -1.068866 0
M  V30 27 C 1.449788 -5.252348 -0.790761 0
M  V30 28 C 1.654966 -4.879019 -2.255647 0
M  V30 29 C -1.645042 -1.817321 0.707577 0
M  V30 30 C -3.017210 -2.334269 1.183136 0
M  V30 31 C -3.044792 -3.108813 -0.142509 0
M  V30 32 C -1.514440 -3.146330 0.003855 0
M  V30 33 H -0.555409 -3.488148 2.517495 0
M  V30 34 H 0.866028 -2.898899 4.508129 0
M  V30 35 H 0.123330 -1.298195 4.402941 0
M  V30 36 H 1.797558 -0.491121 2.791144 0
M  V30 37 H 2.417905 -1.026352 4.341856 0
M  V30 38 H 3.918012 -1.556063 2.619313 0
M  V30 39 H 3.370873 -3.084172 3.353355 0
M  V30 40 H 2.747417 -3.829466 1.283228 0
M  V30 41 H 2.856085 1.906778 -0.532353 0
M  V30 42 H 1.742364 3.962791 0.200018 0
M  V30 43 H -0.398529 5.210184 0.424225 0
M  V30 44 H -3.135219 5.461540 -1.755349 0
M  V30 45 H -5.644378 4.690674 1.579310 0
M  V30 46 H -2.565863 1.709544 -0.820876 0
M  V30 47 H -0.447056 0.597273 -1.014233 0
M  V30 48 H 1.754095 -2.464383 -3.076163 0
M  V30 49 H 3.502793 -4.531490 -1.054707 0
M  V30 50 H 0.416908 -5.154390 -0.478112 0
M  V30 51 H 1.861258 -6.275185 -0.545231 0
M  V30 52 H 2.210614 -5.553167 -2.903986 0
M  V30 53 H 0.883467 -4.284324 -2.758438 0
M  V30 54 H -1.824007 -1.004650 0.008092 0
M  V30 55 H -3.780818 -1.522872 1.249970 0
M  V30 56 H -2.911361 -2.991478 2.053519 0
M  V30 57 H -3.356378 -2.401841 -0.946526 0
M  V30 58 H -3.542346 -4.081076 -0.112973 0
M  V30 59 H -1.295909 -4.002176 0.693356 0
M  V30 60 H -0.996524 -3.140576 -0.957193 0
M  V30 END ATOM
M  V30 BEGIN BOND
M  V30 1 2 1 2
M  V30 2 1 2 3
M  V30 3 1 3 4
M  V30 4 1 4 5
M  V30 5 1 5 6
M  V30 6 1 6 7
M  V30 7 1 7 8
M  V30 8 2 8 9
M  V30 9 1 9 10
M  V30 10 1 10 11
M  V30 11 1 11 12
M  V30 12 2 12 13
M  V30 13 1 13 14
M  V30 14 2 14 15
M  V30 15 1 15 16
M  V30 16 1 16 17
M  V30 17 2 17 18
M  V30 18 1 18 19
M  V30 19 2 19 20
M  V30 20 1 15 21
M  V30 21 2 21 22
M  V30 22 2 10 23
M  V30 23 1 23 24
M  V30 24 2 24 25
M  V30 25 1 25 26
M  V30 26 1 26 27
M  V30 27 1 27 28
M  V30 28 1 2 29
M  V30 29 1 29 30
M  V30 30 1 30 31
M  V30 31 1 31 32
M  V30 32 1 25 8
M  V30 33 1 28 26
M  V30 34 1 32 29
M  V30 35 1 22 12
M  V30 36 1 20 16
M  V30 37 1 3 33
M  V30 38 1 4 34
M  V30 39 1 4 35
M  V30 40 1 5 36
M  V30 41 1 5 37
M  V30 42 1 6 38
M  V30 43 1 6 39
M  V30 44 1 7 40
M  V30 45 1 11 41
M  V30 46 1 13 42
M  V30 47 1 14 43
M  V30 48 1 17 44
M  V30 49 1 19 45
M  V30 50 1 21 46
M  V30 51 1 22 47
M  V30 52 1 24 48
M  V30 53 1 26 49
M  V30 54 1 27 50
M  V30 55 1 27 51
M  V30 56 1 28 52
M  V30 57 1 28 53
M  V30 58 1 29 54
M  V30 59 1 30 55
M  V30 60 1 30 56
M  V30 61 1 31 57
M  V30 62 1 31 58
M  V30 63 1 32 59
M  V30 64 1 32 60
M  V30 END BOND
M  V30 END CTAB
M  END
>  <Dataset>  (789) 
ChEMBL_Kinases

>  <Ligand_Instance>  (789) 
nan

>  <PDB_ID>  (789) 
nan

>  <Standardized_SMILES>  (789) 
O=C(NCCCNc1nc(Nc2ccc(-n3cncn3)cc2)ncc1C1CC1)C1CCC1

>  <Name>  (789) 
nan

>  <Pocket>  (789) 
nan

>  <ATP_Site>  (789) 
nan

>  <Peripheral>  (789) 
nan

>  <Num_H_Atoms_ProtBoundConf>  (789) 
nan

>  <Num_Resolved_Atoms>  (789) 
nan

>  <Num_Not_Resolved_Atoms>  (789) 
nan

$$$$
CHEMBL2207201
     RDKit          3D

  0  0  0  0  0  0  0  0  0  0999 V3000
M  V30 BEGIN CTAB
M  V30 COUNTS 66 70 0 0 0
M  V30 BEGIN ATOM
M  V30 1 O 0.711089 -2.552020 5.575193 0
M  V30 2 C 0.187736 -1.653112 4.844981 0
M  V30 3 N 1.097736 -0.772123 4.197956 0
M  V30 4 C 2.539156 -0.855555 4.332998 0
M  V30 5 C 3.257226 0.197402 3.542625 0
M  V30 6 C 2.957001 0.090978 2.080066 0
M  V30 7 N 3.339213 -1.173749 1.495113 0
M  V30 8 C 3.071454 -1.314769 0.112480 0
M  V30 9 N 2.470003 -0.382406 -0.629223 0
M  V30 10 C 2.213251 -0.607673 -1.948776 0
M  V30 11 N 1.570178 0.504318 -2.559105 0
M  V30 12 C 0.148540 0.580136 -2.553395 0
M  V30 13 C -0.550802 1.628161 -3.122017 0
M  V30 14 C -1.949175 1.652829 -3.087233 0
M  V30 15 C -2.660713 0.635450 -2.486649 0
M  V30 16 N -4.081312 0.652835 -2.445294 0
M  V30 17 C -4.882953 1.710132 -2.993471 0
M  V30 18 C -6.088770 1.860545 -2.072893 0
M  V30 19 O -6.862594 0.731129 -2.033010 0
M  V30 20 C -6.191796 -0.414458 -2.449337 0
M  V30 21 C -4.800758 -0.442348 -1.822788 0
M  V30 22 N -1.985495 -0.387619 -1.931347 0
M  V30 23 C -0.619722 -0.406329 -1.968413 0
M  V30 24 N 2.569143 -1.790461 -2.525283 0
M  V30 25 C 3.181201 -2.728752 -1.756447 0
M  V30 26 C 3.458371 -2.523944 -0.396442 0
M  V30 27 C 4.154035 -3.691309 0.146091 0
M  V30 28 C 5.575073 -3.845143 -0.434468 0
M  V30 29 C 5.314912 -3.658997 1.030921 0
M  V30 30 C -1.268774 -1.468889 4.630365 0
M  V30 31 C -1.812888 -0.130559 5.054110 0
M  V30 32 C -2.583338 -0.074787 3.751026 0
M  V30 33 C -1.671080 -1.149262 3.212864 0
M  V30 34 H 0.722188 -0.005196 3.578170 0
M  V30 35 H 2.758667 -0.716526 5.423980 0
M  V30 36 H 2.879528 -1.846511 4.004730 0
M  V30 37 H 4.328643 0.119107 3.730584 0
M  V30 38 H 2.902362 1.195680 3.875490 0
M  V30 39 H 1.867995 0.210103 1.899360 0
M  V30 40 H 3.507406 0.899683 1.541443 0
M  V30 41 H 3.758486 -1.835856 2.166575 0
M  V30 42 H 2.084201 1.288834 -3.023010 0
M  V30 43 H 0.035183 2.423511 -3.592368 0
M  V30 44 H -2.414886 2.488853 -3.544737 0
M  V30 45 H -4.325336 2.684255 -2.871141 0
M  V30 46 H -5.206189 1.556342 -4.030166 0
M  V30 47 H -6.702050 2.696862 -2.466524 0
M  V30 48 H -5.716350 2.195648 -1.070689 0
M  V30 49 H -6.039190 -0.328247 -3.545761 0
M  V30 50 H -6.730143 -1.336172 -2.222493 0
M  V30 51 H -4.828491 -0.317800 -0.732955 0
M  V30 52 H -4.331172 -1.418619 -2.049259 0
M  V30 53 H -0.167831 -1.276245 -1.491945 0
M  V30 54 H 3.391648 -3.604882 -2.380578 0
M  V30 55 H 3.536428 -4.622751 0.107679 0
M  V30 56 H 6.004804 -3.030794 -1.020031 0
M  V30 57 H 5.837099 -4.851860 -0.804533 0
M  V30 58 H 5.496211 -4.585074 1.640923 0
M  V30 59 H 5.756617 -2.772237 1.480557 0
M  V30 60 H -1.894565 -2.265446 5.069389 0
M  V30 61 H -2.495793 -0.167591 5.931927 0
M  V30 62 H -1.048342 0.678206 5.121816 0
M  V30 63 H -3.655256 -0.403228 3.861388 0
M  V30 64 H -2.485547 0.912602 3.230506 0
M  V30 65 H -0.883119 -0.742093 2.550052 0
M  V30 66 H -2.191573 -2.016512 2.757665 0
M  V30 END ATOM
M  V30 BEGIN BOND
M  V30 1 2 1 2
M  V30 2 1 2 3
M  V30 3 1 3 4
M  V30 4 1 4 5
M  V30 5 1 5 6
M  V30 6 1 6 7
M  V30 7 1 7 8
M  V30 8 2 8 9
M  V30 9 1 9 10
M  V30 10 1 10 11
M  V30 11 1 11 12
M  V30 12 2 12 13
M  V30 13 1 13 14
M  V30 14 2 14 15
M  V30 15 1 15 16
M  V30 16 1 16 17
M  V30 17 1 17 18
M  V30 18 1 18 19
M  V30 19 1 19 20
M  V30 20 1 20 21
M  V30 21 1 15 22
M  V30 22 2 22 23
M  V30 23 2 10 24
M  V30 24 1 24 25
M  V30 25 2 25 26
M  V30 26 1 26 27
M  V30 27 1 27 28
M  V30 28 1 28 29
M  V30 29 1 2 30
M  V30 30 1 30 31
M  V30 31 1 31 32
M  V30 32 1 32 33
M  V30 33 1 26 8
M  V30 34 1 29 27
M  V30 35 1 33 30
M  V30 36 1 23 12
M  V30 37 1 21 16
M  V30 38 1 3 34
M  V30 39 1 4 35
M  V30 40 1 4 36
M  V30 41 1 5 37
M  V30 42 1 5 38
M  V30 43 1 6 39
M  V30 44 1 6 40
M  V30 45 1 7 41
M  V30 46 1 11 42
M  V30 47 1 13 43
M  V30 48 1 14 44
M  V30 49 1 17 45
M  V30 50 1 17 46
M  V30 51 1 18 47
M  V30 52 1 18 48
M  V30 53 1 20 49
M  V30 54 1 20 50
M  V30 55 1 21 51
M  V30 56 1 21 52
M  V30 57 1 23 53
M  V30 58 1 25 54
M  V30 59 1 27 55
M  V30 60 1 28 56
M  V30 61 1 28 57
M  V30 62 1 29 58
M  V30 63 1 29 59
M  V30 64 1 30 60
M  V30 65 1 31 61
M  V30 66 1 31 62
M  V30 67 1 32 63
M  V30 68 1 32 64
M  V30 69 1 33 65
M  V30 70 1 33 66
M  V30 END BOND
M  V30 END CTAB
M  END
>  <Dataset>  (790) 
ChEMBL_Kinases

>  <Ligand_Instance>  (790) 
nan

>  <PDB_ID>  (790) 
nan

>  <Standardized_SMILES>  (790) 
O=C(NCCCNc1nc(Nc2ccc(N3CCOCC3)nc2)ncc1C1CC1)C1CCC1

>  <Name>  (790) 
nan

>  <Pocket>  (790) 
nan

>  <ATP_Site>  (790) 
nan

>  <Peripheral>  (790) 
nan

>  <Num_H_Atoms_ProtBoundConf>  (790) 
nan

>  <Num_Resolved_Atoms>  (790) 
nan

>  <Num_Not_Resolved_Atoms>  (790) 
nan

$$$$
CHEMBL2207213
     RDKit          3D

  0  0  0  0  0  0  0  0  0  0999 V3000
M  V30 BEGIN CTAB
M  V30 COUNTS 64 68 0 0 0
M  V30 BEGIN ATOM
M  V30 1 O 1.247053 -0.998094 4.740567 0
M  V30 2 C 0.333588 -1.849658 4.466984 0
M  V30 3 N -0.270080 -1.788124 3.185546 0
M  V30 4 C 0.054577 -0.837685 2.141308 0
M  V30 5 C 1.466326 -0.883112 1.676371 0
M  V30 6 C 1.907700 -2.193624 1.102168 0
M  V30 7 N 1.181615 -2.645141 -0.038512 0
M  V30 8 C 1.183284 -1.869059 -1.199280 0
M  V30 9 N 1.809992 -0.685620 -1.276401 0
M  V30 10 C 1.735302 0.026505 -2.419644 0
M  V30 11 N 2.387316 1.284904 -2.537024 0
M  V30 12 C 1.632406 2.447399 -2.137290 0
M  V30 13 C 2.019629 3.790856 -2.155941 0
M  V30 14 N 1.009125 4.549709 -1.695449 0
M  V30 15 N -0.006838 3.767927 -1.381639 0
M  V30 16 C -1.317893 4.083295 -0.848019 0
M  V30 17 C -1.655934 3.174849 0.305554 0
M  V30 18 C -2.832175 2.336998 -0.148960 0
M  V30 19 C -3.521614 3.200221 -1.203148 0
M  V30 20 C -2.418180 3.999356 -1.856070 0
M  V30 21 C 0.337404 2.495874 -1.636404 0
M  V30 22 N 1.043828 -0.412537 -3.505314 0
M  V30 23 C 0.405320 -1.617533 -3.430028 0
M  V30 24 C 0.467033 -2.377084 -2.256344 0
M  V30 25 C -0.253022 -3.650007 -2.421020 0
M  V30 26 C 0.290578 -4.641751 -3.403079 0
M  V30 27 C 0.466749 -4.863856 -1.946400 0
M  V30 28 C -0.049141 -2.853174 5.492744 0
M  V30 29 C 0.128358 -4.292529 5.127461 0
M  V30 30 C -1.229042 -4.568988 5.785891 0
M  V30 31 C -1.537190 -3.095257 5.607993 0
M  V30 32 H -1.016570 -2.533102 3.046811 0
M  V30 33 H -0.693014 -0.967970 1.338615 0
M  V30 34 H -0.112844 0.222342 2.496540 0
M  V30 35 H 2.103664 -0.709849 2.588855 0
M  V30 36 H 1.647551 -0.056763 0.996493 0
M  V30 37 H 2.962841 -2.012271 0.731056 0
M  V30 38 H 2.042579 -2.942626 1.905738 0
M  V30 39 H 0.693415 -3.546793 0.130407 0
M  V30 40 H 3.355840 1.485237 -2.879496 0
M  V30 41 H 2.999236 4.085543 -2.502978 0
M  V30 42 H -1.256449 5.139127 -0.492070 0
M  V30 43 H -1.899168 3.757598 1.207370 0
M  V30 44 H -0.775819 2.532946 0.553903 0
M  V30 45 H -2.530967 1.358654 -0.543025 0
M  V30 46 H -3.530579 2.235084 0.692628 0
M  V30 47 H -3.979801 2.481039 -1.919471 0
M  V30 48 H -4.295258 3.838614 -0.720642 0
M  V30 49 H -2.130211 3.479317 -2.784782 0
M  V30 50 H -2.869405 4.998658 -2.083877 0
M  V30 51 H -0.242817 1.593390 -1.501248 0
M  V30 52 H -0.117570 -1.874304 -4.352669 0
M  V30 53 H -1.352268 -3.604883 -2.212909 0
M  V30 54 H 1.148207 -4.377291 -4.027697 0
M  V30 55 H -0.492557 -5.238636 -3.946796 0
M  V30 56 H -0.120604 -5.650867 -1.467311 0
M  V30 57 H 1.526408 -4.829212 -1.609328 0
M  V30 58 H 0.358015 -2.589882 6.490170 0
M  V30 59 H -0.002268 -4.442561 4.023558 0
M  V30 60 H 0.974148 -4.817336 5.595764 0
M  V30 61 H -1.883244 -5.257981 5.213862 0
M  V30 62 H -1.158924 -4.807738 6.873091 0
M  V30 63 H -2.022607 -2.592306 6.466267 0
M  V30 64 H -2.134565 -2.975618 4.690266 0
M  V30 END ATOM
M  V30 BEGIN BOND
M  V30 1 2 1 2
M  V30 2 1 2 3
M  V30 3 1 3 4
M  V30 4 1 4 5
M  V30 5 1 5 6
M  V30 6 1 6 7
M  V30 7 1 7 8
M  V30 8 2 8 9
M  V30 9 1 9 10
M  V30 10 1 10 11
M  V30 11 1 11 12
M  V30 12 1 12 13
M  V30 13 2 13 14
M  V30 14 1 14 15
M  V30 15 1 15 16
M  V30 16 1 16 17
M  V30 17 1 17 18
M  V30 18 1 18 19
M  V30 19 1 19 20
M  V30 20 1 15 21
M  V30 21 2 10 22
M  V30 22 1 22 23
M  V30 23 2 23 24
M  V30 24 1 24 25
M  V30 25 1 25 26
M  V30 26 1 26 27
M  V30 27 1 2 28
M  V30 28 1 28 29
M  V30 29 1 29 30
M  V30 30 1 30 31
M  V30 31 1 24 8
M  V30 32 1 27 25
M  V30 33 1 31 28
M  V30 34 2 21 12
M  V30 35 1 20 16
M  V30 36 1 3 32
M  V30 37 1 4 33
M  V30 38 1 4 34
M  V30 39 1 5 35
M  V30 40 1 5 36
M  V30 41 1 6 37
M  V30 42 1 6 38
M  V30 43 1 7 39
M  V30 44 1 11 40
M  V30 45 1 13 41
M  V30 46 1 16 42
M  V30 47 1 17 43
M  V30 48 1 17 44
M  V30 49 1 18 45
M  V30 50 1 18 46
M  V30 51 1 19 47
M  V30 52 1 19 48
M  V30 53 1 20 49
M  V30 54 1 20 50
M  V30 55 1 21 51
M  V30 56 1 23 52
M  V30 57 1 25 53
M  V30 58 1 26 54
M  V30 59 1 26 55
M  V30 60 1 27 56
M  V30 61 1 27 57
M  V30 62 1 28 58
M  V30 63 1 29 59
M  V30 64 1 29 60
M  V30 65 1 30 61
M  V30 66 1 30 62
M  V30 67 1 31 63
M  V30 68 1 31 64
M  V30 END BOND
M  V30 END CTAB
M  END
>  <Dataset>  (791) 
ChEMBL_Kinases

>  <Ligand_Instance>  (791) 
nan

>  <PDB_ID>  (791) 
nan

>  <Standardized_SMILES>  (791) 
O=C(NCCCNc1nc(Nc2cnn(C3CCCC3)c2)ncc1C1CC1)C1CCC1

>  <Name>  (791) 
nan

>  <Pocket>  (791) 
nan

>  <ATP_Site>  (791) 
nan

>  <Peripheral>  (791) 
nan

>  <Num_H_Atoms_ProtBoundConf>  (791) 
nan

>  <Num_Resolved_Atoms>  (791) 
nan

>  <Num_Not_Resolved_Atoms>  (791) 
nan

$$$$
CHEMBL2207204
     RDKit          3D

  0  0  0  0  0  0  0  0  0  0999 V3000
M  V30 BEGIN CTAB
M  V30 COUNTS 70 75 0 0 0
M  V30 BEGIN ATOM
M  V30 1 O 2.563471 2.970297 3.840747 0
M  V30 2 C 1.438857 2.771927 3.313122 0
M  V30 3 N 0.895587 1.486338 3.170102 0
M  V30 4 C 1.546439 0.247335 3.596235 0
M  V30 5 C 2.841209 0.107057 2.833151 0
M  V30 6 C 3.630775 -1.109952 3.164176 0
M  V30 7 N 3.006697 -2.367504 2.945186 0
M  V30 8 C 2.535101 -2.685381 1.663072 0
M  V30 9 N 2.685239 -1.857321 0.615882 0
M  V30 10 C 2.269247 -2.183871 -0.621136 0
M  V30 11 N 2.339726 -1.424237 -1.815288 0
M  V30 12 C 1.150296 -0.990930 -2.508852 0
M  V30 13 C 1.247753 -0.247105 -3.680178 0
M  V30 14 C 0.127157 0.159414 -4.362303 0
M  V30 15 C -1.116337 -0.152999 -3.913431 0
M  V30 16 C -1.273285 -0.895598 -2.745363 0
M  V30 17 C -0.121806 -1.294292 -2.074111 0
M  V30 18 C -2.493096 -1.368337 -2.040192 0
M  V30 19 N -3.629723 -0.825660 -2.723126 0
M  V30 20 C -4.830454 -1.341748 -2.169094 0
M  V30 21 C -4.996047 -0.949495 -0.678322 0
M  V30 22 C -5.987923 -0.553046 -1.741777 0
M  V30 23 C -3.457625 -0.915161 -4.127567 0
M  V30 24 C -2.445275 0.181312 -4.507775 0
M  V30 25 N 1.686350 -3.388171 -0.786462 0
M  V30 26 C 1.497482 -4.277316 0.215602 0
M  V30 27 C 1.938440 -3.913358 1.497154 0
M  V30 28 C 1.616870 -4.969342 2.477413 0
M  V30 29 C 0.204682 -5.325555 2.797704 0
M  V30 30 C 1.025453 -4.580827 3.802112 0
M  V30 31 C 0.713563 3.989957 2.846298 0
M  V30 32 C 0.495944 3.945049 1.361770 0
M  V30 33 C -0.988151 3.867346 1.593811 0
M  V30 34 C -0.760577 3.972634 3.068191 0
M  V30 35 H -0.049394 1.449807 2.720402 0
M  V30 36 H 0.887978 -0.601520 3.430893 0
M  V30 37 H 1.743189 0.362313 4.689302 0
M  V30 38 H 2.683965 0.277046 1.746657 0
M  V30 39 H 3.489821 0.980205 3.143937 0
M  V30 40 H 3.903012 -1.023080 4.252167 0
M  V30 41 H 4.585673 -1.065531 2.593495 0
M  V30 42 H 2.935819 -3.021290 3.749693 0
M  V30 43 H 3.255223 -1.156697 -2.227956 0
M  V30 44 H 2.200710 0.039668 -4.097280 0
M  V30 45 H 0.133369 0.738350 -5.277368 0
M  V30 46 H -0.103673 -1.881629 -1.142526 0
M  V30 47 H -2.503974 -2.479970 -1.995031 0
M  V30 48 H -2.456313 -0.941307 -1.005865 0
M  V30 49 H -4.954795 -2.453410 -2.304712 0
M  V30 50 H -5.203746 -1.725544 0.052020 0
M  V30 51 H -4.415199 -0.094845 -0.297142 0
M  V30 52 H -6.956681 -1.128240 -1.652334 0
M  V30 53 H -6.142618 0.479669 -2.042711 0
M  V30 54 H -2.996767 -1.866955 -4.474562 0
M  V30 55 H -4.350123 -0.768464 -4.739836 0
M  V30 56 H -2.392881 0.256017 -5.611900 0
M  V30 57 H -2.798466 1.163182 -4.132110 0
M  V30 58 H 1.012691 -5.221089 -0.045879 0
M  V30 59 H 2.340956 -5.811737 2.540422 0
M  V30 60 H -0.036852 -6.376132 2.960368 0
M  V30 61 H -0.643916 -4.757260 2.353643 0
M  V30 62 H 0.726481 -3.537017 4.010165 0
M  V30 63 H 1.297281 -5.161508 4.713110 0
M  V30 64 H 1.158373 4.950076 3.177488 0
M  V30 65 H 0.832599 4.896417 0.857327 0
M  V30 66 H 0.939023 3.068827 0.850399 0
M  V30 67 H -1.375476 2.885258 1.250433 0
M  V30 68 H -1.501446 4.737607 1.134550 0
M  V30 69 H -1.150211 3.137438 3.682442 0
M  V30 70 H -1.167897 4.935560 3.450051 0
M  V30 END ATOM
M  V30 BEGIN BOND
M  V30 1 2 1 2
M  V30 2 1 2 3
M  V30 3 1 3 4
M  V30 4 1 4 5
M  V30 5 1 5 6
M  V30 6 1 6 7
M  V30 7 1 7 8
M  V30 8 2 8 9
M  V30 9 1 9 10
M  V30 10 1 10 11
M  V30 11 1 11 12
M  V30 12 2 12 13
M  V30 13 1 13 14
M  V30 14 2 14 15
M  V30 15 1 15 16
M  V30 16 2 16 17
M  V30 17 1 16 18
M  V30 18 1 18 19
M  V30 19 1 19 20
M  V30 20 1 20 21
M  V30 21 1 21 22
M  V30 22 1 19 23
M  V30 23 1 23 24
M  V30 24 2 10 25
M  V30 25 1 25 26
M  V30 26 2 26 27
M  V30 27 1 27 28
M  V30 28 1 28 29
M  V30 29 1 29 30
M  V30 30 1 2 31
M  V30 31 1 31 32
M  V30 32 1 32 33
M  V30 33 1 33 34
M  V30 34 1 27 8
M  V30 35 1 30 28
M  V30 36 1 34 31
M  V30 37 1 17 12
M  V30 38 1 22 20
M  V30 39 1 24 15
M  V30 40 1 3 35
M  V30 41 1 4 36
M  V30 42 1 4 37
M  V30 43 1 5 38
M  V30 44 1 5 39
M  V30 45 1 6 40
M  V30 46 1 6 41
M  V30 47 1 7 42
M  V30 48 1 11 43
M  V30 49 1 13 44
M  V30 50 1 14 45
M  V30 51 1 17 46
M  V30 52 1 18 47
M  V30 53 1 18 48
M  V30 54 1 20 49
M  V30 55 1 21 50
M  V30 56 1 21 51
M  V30 57 1 22 52
M  V30 58 1 22 53
M  V30 59 1 23 54
M  V30 60 1 23 55
M  V30 61 1 24 56
M  V30 62 1 24 57
M  V30 63 1 26 58
M  V30 64 1 28 59
M  V30 65 1 29 60
M  V30 66 1 29 61
M  V30 67 1 30 62
M  V30 68 1 30 63
M  V30 69 1 31 64
M  V30 70 1 32 65
M  V30 71 1 32 66
M  V30 72 1 33 67
M  V30 73 1 33 68
M  V30 74 1 34 69
M  V30 75 1 34 70
M  V30 END BOND
M  V30 END CTAB
M  END
>  <Dataset>  (792) 
ChEMBL_Kinases

>  <Ligand_Instance>  (792) 
nan

>  <PDB_ID>  (792) 
nan

>  <Standardized_SMILES>  (792) 
O=C(NCCCNc1nc(Nc2ccc3c(c2)CN(C2CC2)CC3)ncc1C1CC1)C1CCC1

>  <Name>  (792) 
nan

>  <Pocket>  (792) 
nan

>  <ATP_Site>  (792) 
nan

>  <Peripheral>  (792) 
nan

>  <Num_H_Atoms_ProtBoundConf>  (792) 
nan

>  <Num_Resolved_Atoms>  (792) 
nan

>  <Num_Not_Resolved_Atoms>  (792) 
nan

$$$$
CHEMBL2207205
     RDKit          3D

  0  0  0  0  0  0  0  0  0  0999 V3000
M  V30 BEGIN CTAB
M  V30 COUNTS 60 64 0 0 0
M  V30 BEGIN ATOM
M  V30 1 C 1.421990 -5.110914 5.067924 0
M  V30 2 N 1.302264 -3.703240 4.727124 0
M  V30 3 N 0.444381 -2.823487 5.232817 0
M  V30 4 C 0.610804 -1.606703 4.676552 0
M  V30 5 C 1.638414 -1.738356 3.766441 0
M  V30 6 C 2.208000 -0.814536 2.927922 0
M  V30 7 C 3.231784 -1.229939 2.108603 0
M  V30 8 N 3.861042 -0.350153 1.188013 0
M  V30 9 C 3.387877 1.011018 1.097634 0
M  V30 10 N 3.937879 2.173627 1.460809 0
M  V30 11 C 3.230711 3.324943 1.252762 0
M  V30 12 C 1.981034 3.239260 0.678187 0
M  V30 13 C 1.306145 4.545089 0.532932 0
M  V30 14 C 0.820767 5.363646 1.644343 0
M  V30 15 C -0.191638 4.548809 0.907334 0
M  V30 16 C 1.398415 2.059373 0.298443 0
M  V30 17 N 0.122388 1.977532 -0.322254 0
M  V30 18 C -0.298633 0.643231 -0.609557 0
M  V30 19 C -1.654189 0.490131 -1.211450 0
M  V30 20 C -1.854183 -1.019744 -1.405344 0
M  V30 21 N -3.145539 -1.324001 -1.987626 0
M  V30 22 C -3.212007 -2.738342 -2.112232 0
M  V30 23 O -2.142694 -3.299900 -1.683068 0
M  V30 24 C -4.309720 -3.567544 -2.647620 0
M  V30 25 C -4.746963 -3.353022 -4.048375 0
M  V30 26 C -3.849133 -4.462537 -4.524096 0
M  V30 27 C -3.735074 -4.919619 -3.102430 0
M  V30 28 N 2.170611 1.002881 0.545448 0
M  V30 29 C 3.648101 -2.559004 2.162126 0
M  V30 30 C 3.078050 -3.484626 3.002118 0
M  V30 31 C 2.053690 -3.050092 3.814328 0
M  V30 32 H 1.304898 -5.686644 4.114218 0
M  V30 33 H 2.367569 -5.352893 5.563744 0
M  V30 34 H 0.557195 -5.408522 5.717023 0
M  V30 35 H 0.003906 -0.757943 4.956995 0
M  V30 36 H 1.861985 0.229080 2.903773 0
M  V30 37 H 4.647608 -0.682572 0.594119 0
M  V30 38 H 3.724025 4.215998 1.562560 0
M  V30 39 H 1.565382 5.048395 -0.429748 0
M  V30 40 H 0.797811 6.472396 1.489526 0
M  V30 41 H 1.063483 5.048917 2.680751 0
M  V30 42 H -0.874327 5.024883 0.206345 0
M  V30 43 H -0.576243 3.653714 1.452778 0
M  V30 44 H -0.565533 2.673243 -0.624912 0
M  V30 45 H -0.218291 -0.018370 0.297582 0
M  V30 46 H 0.415671 0.199729 -1.365290 0
M  V30 47 H -2.433708 0.829417 -0.474640 0
M  V30 48 H -1.757002 1.019320 -2.154871 0
M  V30 49 H -1.050823 -1.429698 -2.054658 0
M  V30 50 H -1.730364 -1.540382 -0.412888 0
M  V30 51 H -4.009519 -0.820127 -2.326808 0
M  V30 52 H -5.117624 -3.687986 -1.903051 0
M  V30 53 H -4.600407 -2.359319 -4.510874 0
M  V30 54 H -5.810750 -3.709146 -4.162903 0
M  V30 55 H -2.903632 -4.066727 -4.977188 0
M  V30 56 H -4.327199 -5.230489 -5.179581 0
M  V30 57 H -4.331293 -5.786071 -2.802988 0
M  V30 58 H -2.660551 -5.065006 -2.844234 0
M  V30 59 H 4.454603 -2.885416 1.516491 0
M  V30 60 H 3.445231 -4.496526 2.995792 0
M  V30 END ATOM
M  V30 BEGIN BOND
M  V30 1 1 1 2
M  V30 2 1 2 3
M  V30 3 2 3 4
M  V30 4 1 4 5
M  V30 5 2 5 6
M  V30 6 1 6 7
M  V30 7 1 7 8
M  V30 8 1 8 9
M  V30 9 2 9 10
M  V30 10 1 10 11
M  V30 11 2 11 12
M  V30 12 1 12 13
M  V30 13 1 13 14
M  V30 14 1 14 15
M  V30 15 1 12 16
M  V30 16 1 16 17
M  V30 17 1 17 18
M  V30 18 1 18 19
M  V30 19 1 19 20
M  V30 20 1 20 21
M  V30 21 1 21 22
M  V30 22 2 22 23
M  V30 23 1 22 24
M  V30 24 1 24 25
M  V30 25 1 25 26
M  V30 26 1 26 27
M  V30 27 2 16 28
M  V30 28 2 7 29
M  V30 29 1 29 30
M  V30 30 2 30 31
M  V30 31 1 31 2
M  V30 32 1 31 5
M  V30 33 1 28 9
M  V30 34 1 15 13
M  V30 35 1 27 24
M  V30 36 1 1 32
M  V30 37 1 1 33
M  V30 38 1 1 34
M  V30 39 1 4 35
M  V30 40 1 6 36
M  V30 41 1 8 37
M  V30 42 1 11 38
M  V30 43 1 13 39
M  V30 44 1 14 40
M  V30 45 1 14 41
M  V30 46 1 15 42
M  V30 47 1 15 43
M  V30 48 1 17 44
M  V30 49 1 18 45
M  V30 50 1 18 46
M  V30 51 1 19 47
M  V30 52 1 19 48
M  V30 53 1 20 49
M  V30 54 1 20 50
M  V30 55 1 21 51
M  V30 56 1 24 52
M  V30 57 1 25 53
M  V30 58 1 25 54
M  V30 59 1 26 55
M  V30 60 1 26 56
M  V30 61 1 27 57
M  V30 62 1 27 58
M  V30 63 1 29 59
M  V30 64 1 30 60
M  V30 END BOND
M  V30 END CTAB
M  END
>  <Dataset>  (793) 
ChEMBL_Kinases

>  <Ligand_Instance>  (793) 
nan

>  <PDB_ID>  (793) 
nan

>  <Standardized_SMILES>  (793) 
Cn1ncc2cc(Nc3ncc(C4CC4)c(NCCCNC(=O)C4CCC4)n3)ccc21

>  <Name>  (793) 
nan

>  <Pocket>  (793) 
nan

>  <ATP_Site>  (793) 
nan

>  <Peripheral>  (793) 
nan

>  <Num_H_Atoms_ProtBoundConf>  (793) 
nan

>  <Num_Resolved_Atoms>  (793) 
nan

>  <Num_Not_Resolved_Atoms>  (793) 
nan

$$$$
CHEMBL2207206
     RDKit          3D

  0  0  0  0  0  0  0  0  0  0999 V3000
M  V30 BEGIN CTAB
M  V30 COUNTS 63 67 0 0 0
M  V30 BEGIN ATOM
M  V30 1 C 3.447646 2.884851 6.800443 0
M  V30 2 C 3.751661 2.137132 5.552827 0
M  V30 3 N 4.873744 1.520015 5.141739 0
M  V30 4 N 4.717935 0.968037 3.951185 0
M  V30 5 C 5.745020 0.229497 3.235026 0
M  V30 6 C 3.440079 1.232720 3.562149 0
M  V30 7 C 2.758704 0.893556 2.415042 0
M  V30 8 C 1.447857 1.243767 2.170004 0
M  V30 9 N 0.813331 0.858332 0.966549 0
M  V30 10 C -0.514428 1.140656 0.559648 0
M  V30 11 N -1.422665 1.837580 1.256371 0
M  V30 12 C -2.677695 2.088647 0.838474 0
M  V30 13 C -3.075995 1.597693 -0.400846 0
M  V30 14 C -4.446584 1.998198 -0.706069 0
M  V30 15 C -4.699981 3.502658 -0.991923 0
M  V30 16 C -5.007388 2.377350 -1.973324 0
M  V30 17 C -2.154942 0.879438 -1.126675 0
M  V30 18 N -2.590135 0.370049 -2.352978 0
M  V30 19 C -1.640905 -0.374621 -3.127452 0
M  V30 20 C -1.120367 -1.617414 -2.447556 0
M  V30 21 C -2.213503 -2.591079 -2.116920 0
M  V30 22 N -1.725302 -3.798439 -1.457049 0
M  V30 23 C -0.786316 -4.661007 -2.081974 0
M  V30 24 O -0.310633 -4.470943 -3.213402 0
M  V30 25 C -0.318995 -5.874841 -1.373339 0
M  V30 26 C 0.666909 -6.718459 -2.111626 0
M  V30 27 C -0.116785 -7.932217 -1.607436 0
M  V30 28 C -1.327353 -6.991693 -1.539272 0
M  V30 29 N -0.929753 0.681034 -0.629527 0
M  V30 30 C 0.889598 1.970665 3.195928 0
M  V30 31 C 1.514820 2.341853 4.365811 0
M  V30 32 C 2.818312 1.964110 4.551840 0
M  V30 33 H 4.299887 2.741553 7.496282 0
M  V30 34 H 3.185724 3.934631 6.623024 0
M  V30 35 H 2.586952 2.363434 7.310651 0
M  V30 36 H 6.453715 0.933075 2.754221 0
M  V30 37 H 6.297822 -0.363737 4.011346 0
M  V30 38 H 5.233122 -0.428076 2.500186 0
M  V30 39 H 3.317853 0.309240 1.668410 0
M  V30 40 H 1.411034 0.295874 0.305694 0
M  V30 41 H -3.259208 2.676323 1.558677 0
M  V30 42 H -5.180172 1.608445 0.064110 0
M  V30 43 H -5.498999 4.015019 -0.461636 0
M  V30 44 H -3.774235 4.074948 -1.119699 0
M  V30 45 H -4.542182 2.559519 -2.940583 0
M  V30 46 H -6.122307 2.243124 -2.107935 0
M  V30 47 H -3.546015 0.483693 -2.732983 0
M  V30 48 H -0.771602 0.279389 -3.412414 0
M  V30 49 H -2.104329 -0.693385 -4.070338 0
M  V30 50 H -0.510368 -1.448578 -1.563626 0
M  V30 51 H -0.464168 -2.143576 -3.200293 0
M  V30 52 H -2.964105 -2.143180 -1.435422 0
M  V30 53 H -2.784406 -2.914523 -3.012526 0
M  V30 54 H -2.052441 -4.078761 -0.485313 0
M  V30 55 H -0.015399 -5.677148 -0.327072 0
M  V30 56 H 1.691359 -6.743699 -1.663879 0
M  V30 57 H 0.656708 -6.655243 -3.208243 0
M  V30 58 H -0.257980 -8.735462 -2.336280 0
M  V30 59 H 0.156537 -8.213965 -0.579958 0
M  V30 60 H -1.814633 -6.952415 -2.513628 0
M  V30 61 H -1.963868 -7.161762 -0.649306 0
M  V30 62 H -0.133371 2.299741 3.114158 0
M  V30 63 H 1.007722 2.915809 5.129000 0
M  V30 END ATOM
M  V30 BEGIN BOND
M  V30 1 1 1 2
M  V30 2 2 2 3
M  V30 3 1 3 4
M  V30 4 1 4 5
M  V30 5 1 4 6
M  V30 6 2 6 7
M  V30 7 1 7 8
M  V30 8 1 8 9
M  V30 9 1 9 10
M  V30 10 2 10 11
M  V30 11 1 11 12
M  V30 12 2 12 13
M  V30 13 1 13 14
M  V30 14 1 14 15
M  V30 15 1 15 16
M  V30 16 1 13 17
M  V30 17 1 17 18
M  V30 18 1 18 19
M  V30 19 1 19 20
M  V30 20 1 20 21
M  V30 21 1 21 22
M  V30 22 1 22 23
M  V30 23 2 23 24
M  V30 24 1 23 25
M  V30 25 1 25 26
M  V30 26 1 26 27
M  V30 27 1 27 28
M  V30 28 2 17 29
M  V30 29 2 8 30
M  V30 30 1 30 31
M  V30 31 2 31 32
M  V30 32 1 32 2
M  V30 33 1 32 6
M  V30 34 1 29 10
M  V30 35 1 16 14
M  V30 36 1 28 25
M  V30 37 1 1 33
M  V30 38 1 1 34
M  V30 39 1 1 35
M  V30 40 1 5 36
M  V30 41 1 5 37
M  V30 42 1 5 38
M  V30 43 1 7 39
M  V30 44 1 9 40
M  V30 45 1 12 41
M  V30 46 1 14 42
M  V30 47 1 15 43
M  V30 48 1 15 44
M  V30 49 1 16 45
M  V30 50 1 16 46
M  V30 51 1 18 47
M  V30 52 1 19 48
M  V30 53 1 19 49
M  V30 54 1 20 50
M  V30 55 1 20 51
M  V30 56 1 21 52
M  V30 57 1 21 53
M  V30 58 1 22 54
M  V30 59 1 25 55
M  V30 60 1 26 56
M  V30 61 1 26 57
M  V30 62 1 27 58
M  V30 63 1 27 59
M  V30 64 1 28 60
M  V30 65 1 28 61
M  V30 66 1 30 62
M  V30 67 1 31 63
M  V30 END BOND
M  V30 END CTAB
M  END
>  <Dataset>  (794) 
ChEMBL_Kinases

>  <Ligand_Instance>  (794) 
nan

>  <PDB_ID>  (794) 
nan

>  <Standardized_SMILES>  (794) 
Cc1nn(C)c2cc(Nc3ncc(C4CC4)c(NCCCNC(=O)C4CCC4)n3)ccc12

>  <Name>  (794) 
nan

>  <Pocket>  (794) 
nan

>  <ATP_Site>  (794) 
nan

>  <Peripheral>  (794) 
nan

>  <Num_H_Atoms_ProtBoundConf>  (794) 
nan

>  <Num_Resolved_Atoms>  (794) 
nan

>  <Num_Not_Resolved_Atoms>  (794) 
nan

$$$$
CHEMBL2207208
     RDKit          3D

  0  0  0  0  0  0  0  0  0  0999 V3000
M  V30 BEGIN CTAB
M  V30 COUNTS 54 57 0 0 0
M  V30 BEGIN ATOM
M  V30 1 C 0.586650 -4.694052 3.534937 0
M  V30 2 N 1.337642 -4.512621 2.304437 0
M  V30 3 C 1.709810 -3.368604 1.705213 0
M  V30 4 C 2.411601 -3.623609 0.547390 0
M  V30 5 N 2.971163 -2.711466 -0.379193 0
M  V30 6 C 2.815169 -1.302723 -0.353153 0
M  V30 7 N 3.458744 -0.545905 -1.259739 0
M  V30 8 C 3.352131 0.791066 -1.293869 0
M  V30 9 C 2.557362 1.429119 -0.373213 0
M  V30 10 C 2.588492 2.906402 -0.516244 0
M  V30 11 C 3.960716 3.517240 -0.297578 0
M  V30 12 C 2.922998 3.698867 0.756151 0
M  V30 13 C 1.881123 0.683884 0.569627 0
M  V30 14 N 1.046712 1.367189 1.480404 0
M  V30 15 C 0.295296 0.719372 2.501479 0
M  V30 16 C -0.795261 -0.203214 2.030192 0
M  V30 17 C -1.851219 0.495871 1.192334 0
M  V30 18 N -2.821861 -0.546521 0.831716 0
M  V30 19 C -3.974163 -0.280086 0.037960 0
M  V30 20 O -4.111117 0.932048 -0.344508 0
M  V30 21 C -4.944764 -1.352302 -0.314199 0
M  V30 22 C -4.307532 -2.504527 -1.105256 0
M  V30 23 C -4.374701 -1.560212 -2.300216 0
M  V30 24 C -5.629446 -0.989304 -1.627503 0
M  V30 25 N 2.051847 -0.638421 0.522845 0
M  V30 26 C 2.442578 -5.000249 0.481017 0
M  V30 27 N 1.781960 -5.499899 1.562056 0
M  V30 28 H 1.095714 -5.395808 4.193362 0
M  V30 29 H -0.471770 -4.992402 3.301456 0
M  V30 30 H 0.477436 -3.731839 4.084772 0
M  V30 31 H 1.506039 -2.370146 2.061553 0
M  V30 32 H 3.556899 -3.123313 -1.157852 0
M  V30 33 H 3.922893 1.266045 -2.072452 0
M  V30 34 H 1.911683 3.394955 -1.237801 0
M  V30 35 H 4.236157 4.423380 -0.902181 0
M  V30 36 H 4.820956 2.856075 -0.088465 0
M  V30 37 H 3.110522 3.129082 1.693222 0
M  V30 38 H 2.479360 4.706733 0.837386 0
M  V30 39 H 0.937369 2.403226 1.423331 0
M  V30 40 H -0.199200 1.464872 3.154192 0
M  V30 41 H 0.931158 0.117141 3.189307 0
M  V30 42 H -1.324252 -0.533015 2.955550 0
M  V30 43 H -0.442340 -1.132927 1.555722 0
M  V30 44 H -1.460246 1.012760 0.318687 0
M  V30 45 H -2.406100 1.157664 1.890073 0
M  V30 46 H -2.734661 -1.542939 1.129135 0
M  V30 47 H -5.587598 -1.714895 0.488999 0
M  V30 48 H -5.037795 -3.309878 -1.197094 0
M  V30 49 H -3.295001 -2.768104 -0.756037 0
M  V30 50 H -4.543933 -2.056890 -3.264435 0
M  V30 51 H -3.561058 -0.833014 -2.213660 0
M  V30 52 H -5.763346 0.088934 -1.773194 0
M  V30 53 H -6.528100 -1.621360 -1.822123 0
M  V30 54 H 2.898240 -5.625131 -0.275839 0
M  V30 END ATOM
M  V30 BEGIN BOND
M  V30 1 1 1 2
M  V30 2 1 2 3
M  V30 3 2 3 4
M  V30 4 1 4 5
M  V30 5 1 5 6
M  V30 6 2 6 7
M  V30 7 1 7 8
M  V30 8 2 8 9
M  V30 9 1 9 10
M  V30 10 1 10 11
M  V30 11 1 11 12
M  V30 12 1 9 13
M  V30 13 1 13 14
M  V30 14 1 14 15
M  V30 15 1 15 16
M  V30 16 1 16 17
M  V30 17 1 17 18
M  V30 18 1 18 19
M  V30 19 2 19 20
M  V30 20 1 19 21
M  V30 21 1 21 22
M  V30 22 1 22 23
M  V30 23 1 23 24
M  V30 24 2 13 25
M  V30 25 1 4 26
M  V30 26 2 26 27
M  V30 27 1 27 2
M  V30 28 1 25 6
M  V30 29 1 12 10
M  V30 30 1 24 21
M  V30 31 1 1 28
M  V30 32 1 1 29
M  V30 33 1 1 30
M  V30 34 1 3 31
M  V30 35 1 5 32
M  V30 36 1 8 33
M  V30 37 1 10 34
M  V30 38 1 11 35
M  V30 39 1 11 36
M  V30 40 1 12 37
M  V30 41 1 12 38
M  V30 42 1 14 39
M  V30 43 1 15 40
M  V30 44 1 15 41
M  V30 45 1 16 42
M  V30 46 1 16 43
M  V30 47 1 17 44
M  V30 48 1 17 45
M  V30 49 1 18 46
M  V30 50 1 21 47
M  V30 51 1 22 48
M  V30 52 1 22 49
M  V30 53 1 23 50
M  V30 54 1 23 51
M  V30 55 1 24 52
M  V30 56 1 24 53
M  V30 57 1 26 54
M  V30 END BOND
M  V30 END CTAB
M  END
>  <Dataset>  (795) 
ChEMBL_Kinases

>  <Ligand_Instance>  (795) 
nan

>  <PDB_ID>  (795) 
nan

>  <Standardized_SMILES>  (795) 
Cn1cc(Nc2ncc(C3CC3)c(NCCCNC(=O)C3CCC3)n2)cn1

>  <Name>  (795) 
nan

>  <Pocket>  (795) 
nan

>  <ATP_Site>  (795) 
nan

>  <Peripheral>  (795) 
nan

>  <Num_H_Atoms_ProtBoundConf>  (795) 
nan

>  <Num_Resolved_Atoms>  (795) 
nan

>  <Num_Not_Resolved_Atoms>  (795) 
nan

$$$$
CHEMBL2207209
     RDKit          3D

  0  0  0  0  0  0  0  0  0  0999 V3000
M  V30 BEGIN CTAB
M  V30 COUNTS 60 63 0 0 0
M  V30 BEGIN ATOM
M  V30 1 C 1.167609 -5.484015 2.119719 0
M  V30 2 C 2.358888 -4.575103 2.333821 0
M  V30 3 C 3.004645 -4.332734 0.984892 0
M  V30 4 N 1.917433 -3.327647 2.924658 0
M  V30 5 C 1.653296 -2.139801 2.346430 0
M  V30 6 C 1.282610 -1.351570 3.411243 0
M  V30 7 N 0.899019 0.013836 3.354867 0
M  V30 8 C 0.696941 1.069827 2.436950 0
M  V30 9 N 1.797972 1.794410 2.100941 0
M  V30 10 C 1.748779 2.842301 1.242994 0
M  V30 11 C 0.519017 3.125186 0.735830 0
M  V30 12 C 0.367934 4.266888 -0.222300 0
M  V30 13 C 0.508806 4.065936 -1.677605 0
M  V30 14 C 1.567208 4.805063 -0.930136 0
M  V30 15 C -0.640262 2.439750 1.027044 0
M  V30 16 N -1.921229 2.786203 0.482048 0
M  V30 17 C -3.098207 2.013403 0.828838 0
M  V30 18 C -3.005638 0.589708 0.335998 0
M  V30 19 C -2.879245 0.517525 -1.166207 0
M  V30 20 N -2.792582 -0.878487 -1.535312 0
M  V30 21 C -1.811434 -1.793504 -1.141934 0
M  V30 22 O -0.867474 -1.419394 -0.377624 0
M  V30 23 C -1.759647 -3.213784 -1.544594 0
M  V30 24 C -0.563361 -3.966363 -1.001806 0
M  V30 25 C -0.469730 -4.650104 -2.350124 0
M  V30 26 C -1.209255 -3.462387 -2.931817 0
M  V30 27 N -0.492619 1.406625 1.894681 0
M  V30 28 C 1.317361 -2.028198 4.597432 0
M  V30 29 N 1.720326 -3.246843 4.211611 0
M  V30 30 H 0.984261 -6.060501 3.051805 0
M  V30 31 H 0.262729 -4.824382 2.017613 0
M  V30 32 H 1.248551 -6.096749 1.209613 0
M  V30 33 H 3.087123 -5.097489 3.016216 0
M  V30 34 H 2.267992 -3.893727 0.285529 0
M  V30 35 H 3.293244 -5.324796 0.558219 0
M  V30 36 H 3.940652 -3.769655 1.083341 0
M  V30 37 H 1.731074 -1.913259 1.293400 0
M  V30 38 H 0.644101 0.585532 4.189180 0
M  V30 39 H 2.632846 3.403497 0.990236 0
M  V30 40 H -0.388297 5.053444 0.054868 0
M  V30 41 H 0.831744 3.058222 -2.054067 0
M  V30 42 H -0.159962 4.587421 -2.375002 0
M  V30 43 H 2.569542 4.353154 -0.828081 0
M  V30 44 H 1.610634 5.899623 -1.163278 0
M  V30 45 H -1.924476 3.609500 -0.158836 0
M  V30 46 H -3.981363 2.526096 0.406271 0
M  V30 47 H -3.244315 1.967373 1.927332 0
M  V30 48 H -3.942541 0.069561 0.617202 0
M  V30 49 H -2.174551 0.069974 0.850068 0
M  V30 50 H -2.011336 1.086779 -1.550718 0
M  V30 51 H -3.774307 0.938636 -1.664825 0
M  V30 52 H -3.514394 -1.332205 -2.170527 0
M  V30 53 H -2.682303 -3.792325 -1.381946 0
M  V30 54 H -0.743603 -4.636198 -0.149559 0
M  V30 55 H 0.266535 -3.227654 -0.850784 0
M  V30 56 H 0.560034 -4.781235 -2.733084 0
M  V30 57 H -1.096933 -5.576903 -2.368108 0
M  V30 58 H -1.968934 -3.709438 -3.701211 0
M  V30 59 H -0.472711 -2.680724 -3.229146 0
M  V30 60 H 1.088481 -1.703265 5.602614 0
M  V30 END ATOM
M  V30 BEGIN BOND
M  V30 1 1 1 2
M  V30 2 1 2 3
M  V30 3 1 2 4
M  V30 4 1 4 5
M  V30 5 2 5 6
M  V30 6 1 6 7
M  V30 7 1 7 8
M  V30 8 2 8 9
M  V30 9 1 9 10
M  V30 10 2 10 11
M  V30 11 1 11 12
M  V30 12 1 12 13
M  V30 13 1 13 14
M  V30 14 1 11 15
M  V30 15 1 15 16
M  V30 16 1 16 17
M  V30 17 1 17 18
M  V30 18 1 18 19
M  V30 19 1 19 20
M  V30 20 1 20 21
M  V30 21 2 21 22
M  V30 22 1 21 23
M  V30 23 1 23 24
M  V30 24 1 24 25
M  V30 25 1 25 26
M  V30 26 2 15 27
M  V30 27 1 6 28
M  V30 28 2 28 29
M  V30 29 1 29 4
M  V30 30 1 27 8
M  V30 31 1 14 12
M  V30 32 1 26 23
M  V30 33 1 1 30
M  V30 34 1 1 31
M  V30 35 1 1 32
M  V30 36 1 2 33
M  V30 37 1 3 34
M  V30 38 1 3 35
M  V30 39 1 3 36
M  V30 40 1 5 37
M  V30 41 1 7 38
M  V30 42 1 10 39
M  V30 43 1 12 40
M  V30 44 1 13 41
M  V30 45 1 13 42
M  V30 46 1 14 43
M  V30 47 1 14 44
M  V30 48 1 16 45
M  V30 49 1 17 46
M  V30 50 1 17 47
M  V30 51 1 18 48
M  V30 52 1 18 49
M  V30 53 1 19 50
M  V30 54 1 19 51
M  V30 55 1 20 52
M  V30 56 1 23 53
M  V30 57 1 24 54
M  V30 58 1 24 55
M  V30 59 1 25 56
M  V30 60 1 25 57
M  V30 61 1 26 58
M  V30 62 1 26 59
M  V30 63 1 28 60
M  V30 END BOND
M  V30 END CTAB
M  END
>  <Dataset>  (796) 
ChEMBL_Kinases

>  <Ligand_Instance>  (796) 
nan

>  <PDB_ID>  (796) 
nan

>  <Standardized_SMILES>  (796) 
CC(C)n1cc(Nc2ncc(C3CC3)c(NCCCNC(=O)C3CCC3)n2)cn1

>  <Name>  (796) 
nan

>  <Pocket>  (796) 
nan

>  <ATP_Site>  (796) 
nan

>  <Peripheral>  (796) 
nan

>  <Num_H_Atoms_ProtBoundConf>  (796) 
nan

>  <Num_Resolved_Atoms>  (796) 
nan

>  <Num_Not_Resolved_Atoms>  (796) 
nan

$$$$
CHEMBL2207210
     RDKit          3D

  0  0  0  0  0  0  0  0  0  0999 V3000
M  V30 BEGIN CTAB
M  V30 COUNTS 57 60 0 0 0
M  V30 BEGIN ATOM
M  V30 1 C -1.059176 -4.380050 2.857742 0
M  V30 2 C -0.473435 -4.469292 1.462982 0
M  V30 3 N 0.938192 -4.072141 1.553187 0
M  V30 4 C 1.409177 -2.816800 1.416200 0
M  V30 5 C 2.777500 -2.776749 1.554961 0
M  V30 6 N 3.677128 -1.677996 1.486637 0
M  V30 7 C 3.280099 -0.335371 1.245062 0
M  V30 8 N 4.172288 0.670275 1.189843 0
M  V30 9 C 3.810198 1.936758 0.963309 0
M  V30 10 C 2.514447 2.300861 0.772261 0
M  V30 11 C 2.067442 3.683223 0.519548 0
M  V30 12 C 1.733395 4.469047 1.805595 0
M  V30 13 C 2.853340 4.863703 0.889849 0
M  V30 14 C 1.588345 1.284493 0.825491 0
M  V30 15 N 0.204580 1.558427 0.638601 0
M  V30 16 C -0.808327 0.516702 0.686381 0
M  V30 17 C -2.199677 1.075996 0.456726 0
M  V30 18 C -3.244265 -0.016742 0.508656 0
M  V30 19 N -3.031642 -1.031376 -0.484839 0
M  V30 20 C -3.028457 -0.726103 -1.873487 0
M  V30 21 O -3.216321 0.470058 -2.287103 0
M  V30 22 C -2.802621 -1.819678 -2.852225 0
M  V30 23 C -3.809827 -2.947814 -2.821467 0
M  V30 24 C -2.745731 -3.848893 -2.263251 0
M  V30 25 C -1.728829 -2.801307 -2.567972 0
M  V30 26 N 2.001476 0.033211 1.055158 0
M  V30 27 C 3.113982 -4.092881 1.786397 0
M  V30 28 N 1.993258 -4.818583 1.775849 0
M  V30 29 H -1.059229 -5.393649 3.309055 0
M  V30 30 H -0.460837 -3.658288 3.464356 0
M  V30 31 H -2.107438 -4.045534 2.792216 0
M  V30 32 H -0.558316 -5.508583 1.112655 0
M  V30 33 H -1.010881 -3.737155 0.823133 0
M  V30 34 H 0.765434 -1.979374 1.223499 0
M  V30 35 H 4.693857 -1.856259 1.620556 0
M  V30 36 H 4.583713 2.703614 0.931053 0
M  V30 37 H 1.316086 3.756724 -0.312639 0
M  V30 38 H 0.768263 5.032094 1.786589 0
M  V30 39 H 2.043682 4.038953 2.769088 0
M  V30 40 H 3.876956 4.794050 1.265494 0
M  V30 41 H 2.620744 5.793509 0.307635 0
M  V30 42 H -0.122439 2.532830 0.459262 0
M  V30 43 H -0.793821 0.111911 1.706082 0
M  V30 44 H -0.560660 -0.223714 -0.098936 0
M  V30 45 H -2.235944 1.616770 -0.508156 0
M  V30 46 H -2.363865 1.804925 1.276255 0
M  V30 47 H -3.253254 -0.407842 1.526002 0
M  V30 48 H -4.233729 0.445247 0.335613 0
M  V30 49 H -2.878572 -2.007010 -0.147012 0
M  V30 50 H -2.693943 -1.409347 -3.892622 0
M  V30 51 H -4.694064 -2.793391 -2.173836 0
M  V30 52 H -4.094236 -3.289975 -3.848088 0
M  V30 53 H -2.600874 -4.799912 -2.853342 0
M  V30 54 H -2.859245 -4.158882 -1.203935 0
M  V30 55 H -1.014801 -2.555162 -1.761324 0
M  V30 56 H -1.120514 -3.089697 -3.465680 0
M  V30 57 H 4.123400 -4.461584 1.948025 0
M  V30 END ATOM
M  V30 BEGIN BOND
M  V30 1 1 1 2
M  V30 2 1 2 3
M  V30 3 1 3 4
M  V30 4 2 4 5
M  V30 5 1 5 6
M  V30 6 1 6 7
M  V30 7 2 7 8
M  V30 8 1 8 9
M  V30 9 2 9 10
M  V30 10 1 10 11
M  V30 11 1 11 12
M  V30 12 1 12 13
M  V30 13 1 10 14
M  V30 14 1 14 15
M  V30 15 1 15 16
M  V30 16 1 16 17
M  V30 17 1 17 18
M  V30 18 1 18 19
M  V30 19 1 19 20
M  V30 20 2 20 21
M  V30 21 1 20 22
M  V30 22 1 22 23
M  V30 23 1 23 24
M  V30 24 1 24 25
M  V30 25 2 14 26
M  V30 26 1 5 27
M  V30 27 2 27 28
M  V30 28 1 28 3
M  V30 29 1 26 7
M  V30 30 1 13 11
M  V30 31 1 25 22
M  V30 32 1 1 29
M  V30 33 1 1 30
M  V30 34 1 1 31
M  V30 35 1 2 32
M  V30 36 1 2 33
M  V30 37 1 4 34
M  V30 38 1 6 35
M  V30 39 1 9 36
M  V30 40 1 11 37
M  V30 41 1 12 38
M  V30 42 1 12 39
M  V30 43 1 13 40
M  V30 44 1 13 41
M  V30 45 1 15 42
M  V30 46 1 16 43
M  V30 47 1 16 44
M  V30 48 1 17 45
M  V30 49 1 17 46
M  V30 50 1 18 47
M  V30 51 1 18 48
M  V30 52 1 19 49
M  V30 53 1 22 50
M  V30 54 1 23 51
M  V30 55 1 23 52
M  V30 56 1 24 53
M  V30 57 1 24 54
M  V30 58 1 25 55
M  V30 59 1 25 56
M  V30 60 1 27 57
M  V30 END BOND
M  V30 END CTAB
M  END
>  <Dataset>  (797) 
ChEMBL_Kinases

>  <Ligand_Instance>  (797) 
nan

>  <PDB_ID>  (797) 
nan

>  <Standardized_SMILES>  (797) 
CCn1cc(Nc2ncc(C3CC3)c(NCCCNC(=O)C3CCC3)n2)cn1

>  <Name>  (797) 
nan

>  <Pocket>  (797) 
nan

>  <ATP_Site>  (797) 
nan

>  <Peripheral>  (797) 
nan

>  <Num_H_Atoms_ProtBoundConf>  (797) 
nan

>  <Num_Resolved_Atoms>  (797) 
nan

>  <Num_Not_Resolved_Atoms>  (797) 
nan

$$$$
CHEMBL2207211
     RDKit          3D

  0  0  0  0  0  0  0  0  0  0999 V3000
M  V30 BEGIN CTAB
M  V30 COUNTS 58 62 0 0 0
M  V30 BEGIN ATOM
M  V30 1 O -0.826192 -5.081087 0.065669 0
M  V30 2 C 0.384175 -5.186670 -0.282271 0
M  V30 3 N 1.101405 -3.960692 -0.333027 0
M  V30 4 C 0.267757 -2.821612 0.035111 0
M  V30 5 C 1.100233 -1.578053 -0.045263 0
M  V30 6 C 0.317013 -0.336411 0.321086 0
M  V30 7 N -0.815772 -0.142040 -0.560617 0
M  V30 8 C -1.721837 0.952792 -0.437452 0
M  V30 9 N -1.511190 1.860980 0.556655 0
M  V30 10 C -2.296697 2.928019 0.765421 0
M  V30 11 N -2.058981 3.864918 1.808591 0
M  V30 12 C -0.985905 3.789772 2.737834 0
M  V30 13 C -0.695970 4.678037 3.780752 0
M  V30 14 N 0.389058 4.239548 4.404915 0
M  V30 15 N 0.854415 3.137277 3.875957 0
M  V30 16 C 2.027747 2.423587 4.342157 0
M  V30 17 C 3.303159 3.153719 4.545648 0
M  V30 18 C 3.183237 2.285955 3.326211 0
M  V30 19 C 0.021683 2.855355 2.858001 0
M  V30 20 N -3.335458 3.089511 -0.056967 0
M  V30 21 C -3.582737 2.219545 -1.051311 0
M  V30 22 C -2.796858 1.123751 -1.285147 0
M  V30 23 C -2.970171 0.110642 -2.336360 0
M  V30 24 C -3.779148 -1.106611 -2.127262 0
M  V30 25 C -4.370403 0.031764 -2.917878 0
M  V30 26 C 1.043882 -6.471279 -0.619856 0
M  V30 27 C 1.592601 -6.548712 -2.015790 0
M  V30 28 C 2.990806 -6.535706 -1.449880 0
M  V30 29 C 2.421836 -6.679615 -0.070325 0
M  V30 30 H 2.107648 -3.908876 -0.605454 0
M  V30 31 H -0.650066 -2.767046 -0.587009 0
M  V30 32 H -0.071524 -3.044089 1.074714 0
M  V30 33 H 1.565899 -1.525246 -1.034985 0
M  V30 34 H 1.894252 -1.671259 0.747488 0
M  V30 35 H 0.984104 0.534273 0.270456 0
M  V30 36 H -0.029335 -0.450918 1.361100 0
M  V30 37 H -1.008387 -0.829884 -1.346291 0
M  V30 38 H -2.711980 4.676675 1.915743 0
M  V30 39 H -1.316190 5.561803 3.975451 0
M  V30 40 H 1.837659 1.498063 4.937436 0
M  V30 41 H 4.007217 2.783343 5.304430 0
M  V30 42 H 3.284633 4.242286 4.334187 0
M  V30 43 H 3.721936 1.319087 3.284175 0
M  V30 44 H 3.029810 2.768067 2.333602 0
M  V30 45 H 0.159614 1.987510 2.229530 0
M  V30 46 H -4.430601 2.353936 -1.719935 0
M  V30 47 H -2.112097 0.034832 -3.024571 0
M  V30 48 H -3.509562 -1.996949 -2.723782 0
M  V30 49 H -4.293316 -1.320458 -1.177343 0
M  V30 50 H -5.195409 0.607934 -2.476172 0
M  V30 51 H -4.439521 -0.076025 -4.027155 0
M  V30 52 H 0.393867 -7.337966 -0.395528 0
M  V30 53 H 1.328212 -5.680520 -2.622970 0
M  V30 54 H 1.386929 -7.519312 -2.529479 0
M  V30 55 H 3.511811 -5.564554 -1.627752 0
M  V30 56 H 3.649320 -7.372841 -1.780356 0
M  V30 57 H 2.624527 -7.714880 0.304107 0
M  V30 58 H 2.773471 -5.921520 0.659029 0
M  V30 END ATOM
M  V30 BEGIN BOND
M  V30 1 2 1 2
M  V30 2 1 2 3
M  V30 3 1 3 4
M  V30 4 1 4 5
M  V30 5 1 5 6
M  V30 6 1 6 7
M  V30 7 1 7 8
M  V30 8 2 8 9
M  V30 9 1 9 10
M  V30 10 1 10 11
M  V30 11 1 11 12
M  V30 12 1 12 13
M  V30 13 2 13 14
M  V30 14 1 14 15
M  V30 15 1 15 16
M  V30 16 1 16 17
M  V30 17 1 17 18
M  V30 18 1 15 19
M  V30 19 2 10 20
M  V30 20 1 20 21
M  V30 21 2 21 22
M  V30 22 1 22 23
M  V30 23 1 23 24
M  V30 24 1 24 25
M  V30 25 1 2 26
M  V30 26 1 26 27
M  V30 27 1 27 28
M  V30 28 1 28 29
M  V30 29 1 22 8
M  V30 30 1 25 23
M  V30 31 1 29 26
M  V30 32 2 19 12
M  V30 33 1 18 16
M  V30 34 1 3 30
M  V30 35 1 4 31
M  V30 36 1 4 32
M  V30 37 1 5 33
M  V30 38 1 5 34
M  V30 39 1 6 35
M  V30 40 1 6 36
M  V30 41 1 7 37
M  V30 42 1 11 38
M  V30 43 1 13 39
M  V30 44 1 16 40
M  V30 45 1 17 41
M  V30 46 1 17 42
M  V30 47 1 18 43
M  V30 48 1 18 44
M  V30 49 1 19 45
M  V30 50 1 21 46
M  V30 51 1 23 47
M  V30 52 1 24 48
M  V30 53 1 24 49
M  V30 54 1 25 50
M  V30 55 1 25 51
M  V30 56 1 26 52
M  V30 57 1 27 53
M  V30 58 1 27 54
M  V30 59 1 28 55
M  V30 60 1 28 56
M  V30 61 1 29 57
M  V30 62 1 29 58
M  V30 END BOND
M  V30 END CTAB
M  END
>  <Dataset>  (798) 
ChEMBL_Kinases

>  <Ligand_Instance>  (798) 
nan

>  <PDB_ID>  (798) 
nan

>  <Standardized_SMILES>  (798) 
O=C(NCCCNc1nc(Nc2cnn(C3CC3)c2)ncc1C1CC1)C1CCC1

>  <Name>  (798) 
nan

>  <Pocket>  (798) 
nan

>  <ATP_Site>  (798) 
nan

>  <Peripheral>  (798) 
nan

>  <Num_H_Atoms_ProtBoundConf>  (798) 
nan

>  <Num_Resolved_Atoms>  (798) 
nan

>  <Num_Not_Resolved_Atoms>  (798) 
nan

$$$$
CHEMBL2207212
     RDKit          3D

  0  0  0  0  0  0  0  0  0  0999 V3000
M  V30 BEGIN CTAB
M  V30 COUNTS 61 65 0 0 0
M  V30 BEGIN ATOM
M  V30 1 O 0.462149 -1.541333 1.153028 0
M  V30 2 C 0.961813 -2.477800 1.845085 0
M  V30 3 N 2.059247 -3.106607 1.176576 0
M  V30 4 C 2.532553 -2.729630 -0.105117 0
M  V30 5 C 3.018125 -1.324313 -0.258854 0
M  V30 6 C 3.469881 -1.175906 -1.696264 0
M  V30 7 N 2.329659 -1.444904 -2.548156 0
M  V30 8 C 1.140308 -0.666774 -2.560000 0
M  V30 9 N 0.969114 0.403817 -1.790238 0
M  V30 10 C -0.116635 1.177808 -1.762801 0
M  V30 11 N -0.326385 2.323927 -0.958948 0
M  V30 12 C -0.868918 2.677345 0.302183 0
M  V30 13 C -0.897616 3.962355 0.790570 0
M  V30 14 N -1.487829 3.820860 1.985591 0
M  V30 15 N -1.816047 2.595033 2.267430 0
M  V30 16 C -2.462190 2.283970 3.526790 0
M  V30 17 C -3.555873 3.317487 3.817127 0
M  V30 18 C -4.494724 2.378313 3.046254 0
M  V30 19 C -3.539965 1.258777 3.469863 0
M  V30 20 C -1.441255 1.838244 1.225732 0
M  V30 21 N -1.122591 0.838555 -2.588919 0
M  V30 22 C -1.087383 -0.217410 -3.421044 0
M  V30 23 C 0.066091 -0.966659 -3.391888 0
M  V30 24 C 0.214263 -2.154654 -4.273740 0
M  V30 25 C -0.210884 -3.513179 -3.776711 0
M  V30 26 C -1.066907 -2.838240 -4.762125 0
M  V30 27 C 0.548970 -2.964887 3.205371 0
M  V30 28 C 0.138817 -4.424705 3.162077 0
M  V30 29 C 1.342783 -4.857701 3.968570 0
M  V30 30 C 1.727213 -3.391163 4.041328 0
M  V30 31 H 2.524926 -3.903485 1.705265 0
M  V30 32 H 3.365475 -3.390796 -0.410377 0
M  V30 33 H 1.733274 -2.910519 -0.881623 0
M  V30 34 H 2.286348 -0.539793 -0.066259 0
M  V30 35 H 3.951003 -1.195244 0.356696 0
M  V30 36 H 4.274851 -1.898775 -1.948020 0
M  V30 37 H 3.826992 -0.117564 -1.880190 0
M  V30 38 H 2.351844 -2.260573 -3.211409 0
M  V30 39 H 0.082533 3.011774 -1.606254 0
M  V30 40 H -0.544116 4.915822 0.366526 0
M  V30 41 H -1.743915 2.170560 4.373440 0
M  V30 42 H -3.410792 4.292687 3.350058 0
M  V30 43 H -3.808623 3.275450 4.880099 0
M  V30 44 H -5.487477 2.259202 3.510046 0
M  V30 45 H -4.486758 2.531604 1.969615 0
M  V30 46 H -3.479068 0.447827 2.750798 0
M  V30 47 H -3.760456 0.855643 4.476481 0
M  V30 48 H -1.592833 0.769663 1.187220 0
M  V30 49 H -1.913436 -0.462940 -4.072758 0
M  V30 50 H 1.004444 -2.143858 -5.025193 0
M  V30 51 H -0.567924 -3.552014 -2.745449 0
M  V30 52 H 0.354720 -4.403413 -4.126639 0
M  V30 53 H -2.045059 -2.460447 -4.435011 0
M  V30 54 H -1.084063 -3.255438 -5.796772 0
M  V30 55 H -0.148531 -2.274861 3.698438 0
M  V30 56 H -0.811533 -4.629162 3.694445 0
M  V30 57 H 0.079529 -4.873124 2.152221 0
M  V30 58 H 2.061516 -5.506838 3.425466 0
M  V30 59 H 1.059673 -5.298271 4.956592 0
M  V30 60 H 2.710816 -3.144294 3.599294 0
M  V30 61 H 1.703038 -3.050062 5.099918 0
M  V30 END ATOM
M  V30 BEGIN BOND
M  V30 1 2 1 2
M  V30 2 1 2 3
M  V30 3 1 3 4
M  V30 4 1 4 5
M  V30 5 1 5 6
M  V30 6 1 6 7
M  V30 7 1 7 8
M  V30 8 2 8 9
M  V30 9 1 9 10
M  V30 10 1 10 11
M  V30 11 1 11 12
M  V30 12 1 12 13
M  V30 13 2 13 14
M  V30 14 1 14 15
M  V30 15 1 15 16
M  V30 16 1 16 17
M  V30 17 1 17 18
M  V30 18 1 18 19
M  V30 19 1 15 20
M  V30 20 2 10 21
M  V30 21 1 21 22
M  V30 22 2 22 23
M  V30 23 1 23 24
M  V30 24 1 24 25
M  V30 25 1 25 26
M  V30 26 1 2 27
M  V30 27 1 27 28
M  V30 28 1 28 29
M  V30 29 1 29 30
M  V30 30 1 23 8
M  V30 31 1 26 24
M  V30 32 1 30 27
M  V30 33 2 20 12
M  V30 34 1 19 16
M  V30 35 1 3 31
M  V30 36 1 4 32
M  V30 37 1 4 33
M  V30 38 1 5 34
M  V30 39 1 5 35
M  V30 40 1 6 36
M  V30 41 1 6 37
M  V30 42 1 7 38
M  V30 43 1 11 39
M  V30 44 1 13 40
M  V30 45 1 16 41
M  V30 46 1 17 42
M  V30 47 1 17 43
M  V30 48 1 18 44
M  V30 49 1 18 45
M  V30 50 1 19 46
M  V30 51 1 19 47
M  V30 52 1 20 48
M  V30 53 1 22 49
M  V30 54 1 24 50
M  V30 55 1 25 51
M  V30 56 1 25 52
M  V30 57 1 26 53
M  V30 58 1 26 54
M  V30 59 1 27 55
M  V30 60 1 28 56
M  V30 61 1 28 57
M  V30 62 1 29 58
M  V30 63 1 29 59
M  V30 64 1 30 60
M  V30 65 1 30 61
M  V30 END BOND
M  V30 END CTAB
M  END
>  <Dataset>  (799) 
ChEMBL_Kinases

>  <Ligand_Instance>  (799) 
nan

>  <PDB_ID>  (799) 
nan

>  <Standardized_SMILES>  (799) 
O=C(NCCCNc1nc(Nc2cnn(C3CCC3)c2)ncc1C1CC1)C1CCC1

>  <Name>  (799) 
nan

>  <Pocket>  (799) 
nan

>  <ATP_Site>  (799) 
nan

>  <Peripheral>  (799) 
nan

>  <Num_H_Atoms_ProtBoundConf>  (799) 
nan

>  <Num_Resolved_Atoms>  (799) 
nan

>  <Num_Not_Resolved_Atoms>  (799) 
nan

$$$$
CHEMBL2207202
     RDKit          3D

  0  0  0  0  0  0  0  0  0  0999 V3000
M  V30 BEGIN CTAB
M  V30 COUNTS 71 75 0 0 0
M  V30 BEGIN ATOM
M  V30 1 O -0.212475 -3.383971 3.593499 0
M  V30 2 C -0.724452 -2.228378 3.521050 0
M  V30 3 N 0.247247 -1.186826 3.339065 0
M  V30 4 C 1.657435 -1.444326 3.248412 0
M  V30 5 C 2.484484 -0.185494 3.047745 0
M  V30 6 C 3.951750 -0.537723 2.974155 0
M  V30 7 N 4.274980 -1.454469 1.930803 0
M  V30 8 C 3.997866 -1.192334 0.583880 0
M  V30 9 N 3.382663 -0.010372 0.266446 0
M  V30 10 C 3.082527 0.270818 -1.019217 0
M  V30 11 N 2.463878 1.474934 -1.469364 0
M  V30 12 C 1.092494 1.782228 -1.322054 0
M  V30 13 C 0.439878 2.877280 -1.858459 0
M  V30 14 C -0.902476 3.019402 -1.580093 0
M  V30 15 C -1.606222 2.122298 -0.798077 0
M  V30 16 C -3.050552 2.215722 -0.465461 0
M  V30 17 N -3.874740 1.530021 -1.368511 0
M  V30 18 C -5.255508 1.561811 -1.129678 0
M  V30 19 C -5.791113 0.168880 -1.303403 0
M  V30 20 C -5.272824 -0.517591 -2.498387 0
M  V30 21 C -4.294053 0.183444 -3.361463 0
M  V30 22 C -3.393061 1.144540 -2.629788 0
M  V30 23 N -0.928186 1.051628 -0.284897 0
M  V30 24 C 0.378645 0.897179 -0.545474 0
M  V30 25 N 3.382647 -0.604575 -1.997534 0
M  V30 26 C 3.978409 -1.747568 -1.686382 0
M  V30 27 C 4.318847 -2.107661 -0.396735 0
M  V30 28 C 4.999065 -3.368943 -0.119759 0
M  V30 29 C 4.483768 -4.592062 0.421651 0
M  V30 30 C 4.481966 -4.492553 -1.074974 0
M  V30 31 C -2.160001 -1.880771 3.602875 0
M  V30 32 C -2.714388 -1.169892 2.387384 0
M  V30 33 C -3.029356 -2.523531 1.792510 0
M  V30 34 C -3.047130 -3.055334 3.223198 0
M  V30 35 H -0.074237 -0.203006 3.268912 0
M  V30 36 H 1.863717 -2.142101 2.378381 0
M  V30 37 H 1.973201 -2.017526 4.128506 0
M  V30 38 H 2.112982 0.443948 2.241995 0
M  V30 39 H 2.370128 0.417645 3.978716 0
M  V30 40 H 4.527441 0.423573 2.905255 0
M  V30 41 H 4.209900 -0.979498 3.955313 0
M  V30 42 H 4.746916 -2.378155 2.180932 0
M  V30 43 H 3.125029 2.147406 -1.938634 0
M  V30 44 H 1.010114 3.551153 -2.456832 0
M  V30 45 H -1.451955 3.858341 -1.977793 0
M  V30 46 H -3.352230 3.293033 -0.301463 0
M  V30 47 H -3.180631 1.736029 0.548122 0
M  V30 48 H -5.426164 1.842035 -0.065200 0
M  V30 49 H -5.828857 2.232281 -1.813018 0
M  V30 50 H -5.564696 -0.438086 -0.376806 0
M  V30 51 H -6.917681 0.242331 -1.318226 0
M  V30 52 H -4.887094 -1.539939 -2.197046 0
M  V30 53 H -6.151488 -0.778181 -3.163430 0
M  V30 54 H -3.638715 -0.591459 -3.814066 0
M  V30 55 H -4.799372 0.691195 -4.218476 0
M  V30 56 H -3.280280 2.048595 -3.264228 0
M  V30 57 H -2.355448 0.729968 -2.524717 0
M  V30 58 H 0.829523 0.004514 -0.088043 0
M  V30 59 H 4.230745 -2.472500 -2.469012 0
M  V30 60 H 6.124038 -3.260130 -0.200173 0
M  V30 61 H 5.250640 -5.334227 0.797010 0
M  V30 62 H 3.525434 -4.771128 0.889709 0
M  V30 63 H 5.214030 -5.023097 -1.685903 0
M  V30 64 H 3.523725 -4.318730 -1.593491 0
M  V30 65 H -2.461185 -1.439978 4.581121 0
M  V30 66 H -3.639704 -0.609968 2.558186 0
M  V30 67 H -1.936822 -0.586014 1.899061 0
M  V30 68 H -2.243019 -2.970372 1.149712 0
M  V30 69 H -3.998261 -2.571982 1.274335 0
M  V30 70 H -4.057127 -2.929475 3.685815 0
M  V30 71 H -2.597335 -4.051738 3.292109 0
M  V30 END ATOM
M  V30 BEGIN BOND
M  V30 1 2 1 2
M  V30 2 1 2 3
M  V30 3 1 3 4
M  V30 4 1 4 5
M  V30 5 1 5 6
M  V30 6 1 6 7
M  V30 7 1 7 8
M  V30 8 2 8 9
M  V30 9 1 9 10
M  V30 10 1 10 11
M  V30 11 1 11 12
M  V30 12 2 12 13
M  V30 13 1 13 14
M  V30 14 2 14 15
M  V30 15 1 15 16
M  V30 16 1 16 17
M  V30 17 1 17 18
M  V30 18 1 18 19
M  V30 19 1 19 20
M  V30 20 1 20 21
M  V30 21 1 21 22
M  V30 22 1 15 23
M  V30 23 2 23 24
M  V30 24 2 10 25
M  V30 25 1 25 26
M  V30 26 2 26 27
M  V30 27 1 27 28
M  V30 28 1 28 29
M  V30 29 1 29 30
M  V30 30 1 2 31
M  V30 31 1 31 32
M  V30 32 1 32 33
M  V30 33 1 33 34
M  V30 34 1 27 8
M  V30 35 1 30 28
M  V30 36 1 34 31
M  V30 37 1 24 12
M  V30 38 1 22 17
M  V30 39 1 3 35
M  V30 40 1 4 36
M  V30 41 1 4 37
M  V30 42 1 5 38
M  V30 43 1 5 39
M  V30 44 1 6 40
M  V30 45 1 6 41
M  V30 46 1 7 42
M  V30 47 1 11 43
M  V30 48 1 13 44
M  V30 49 1 14 45
M  V30 50 1 16 46
M  V30 51 1 16 47
M  V30 52 1 18 48
M  V30 53 1 18 49
M  V30 54 1 19 50
M  V30 55 1 19 51
M  V30 56 1 20 52
M  V30 57 1 20 53
M  V30 58 1 21 54
M  V30 59 1 21 55
M  V30 60 1 22 56
M  V30 61 1 22 57
M  V30 62 1 24 58
M  V30 63 1 26 59
M  V30 64 1 28 60
M  V30 65 1 29 61
M  V30 66 1 29 62
M  V30 67 1 30 63
M  V30 68 1 30 64
M  V30 69 1 31 65
M  V30 70 1 32 66
M  V30 71 1 32 67
M  V30 72 1 33 68
M  V30 73 1 33 69
M  V30 74 1 34 70
M  V30 75 1 34 71
M  V30 END BOND
M  V30 END CTAB
M  END
>  <Dataset>  (800) 
ChEMBL_Kinases

>  <Ligand_Instance>  (800) 
nan

>  <PDB_ID>  (800) 
nan

>  <Standardized_SMILES>  (800) 
O=C(NCCCNc1nc(Nc2ccc(CN3CCCCC3)nc2)ncc1C1CC1)C1CCC1

>  <Name>  (800) 
nan

>  <Pocket>  (800) 
nan

>  <ATP_Site>  (800) 
nan

>  <Peripheral>  (800) 
nan

>  <Num_H_Atoms_ProtBoundConf>  (800) 
nan

>  <Num_Resolved_Atoms>  (800) 
nan

>  <Num_Not_Resolved_Atoms>  (800) 
nan

$$$$
CHEMBL2203844
     RDKit          3D

  0  0  0  0  0  0  0  0  0  0999 V3000
M  V30 BEGIN CTAB
M  V30 COUNTS 49 52 0 0 0
M  V30 BEGIN ATOM
M  V30 1 C -1.026227 -2.156409 2.904894 0
M  V30 2 O -2.028083 -1.735618 2.002372 0
M  V30 3 C -1.989733 -0.521883 1.328905 0
M  V30 4 C -0.951162 0.396788 1.478491 0
M  V30 5 C -0.974386 1.577336 0.783496 0
M  V30 6 N 0.046992 2.570507 0.875052 0
M  V30 7 C 0.866440 2.071028 -0.203181 0
M  V30 8 C 0.734081 2.379058 -1.535223 0
M  V30 9 N 1.592117 1.813260 -2.406278 0
M  V30 10 C 2.564118 0.967165 -2.028939 0
M  V30 11 C 3.472814 0.369528 -2.967759 0
M  V30 12 N 4.210889 -0.092721 -3.725460 0
M  V30 13 C 2.712776 0.643581 -0.680675 0
M  V30 14 O 3.698623 -0.230687 -0.185584 0
M  V30 15 C 3.697377 -0.410587 1.210273 0 CFG=2
M  V30 16 C 5.018723 -0.071878 1.866512 0
M  V30 17 C 4.773489 -0.708799 3.241236 0
M  V30 18 N 3.921012 -1.844206 3.018575 0
M  V30 19 C 3.537706 -1.861094 1.627539 0
M  V30 20 N 1.842869 1.220876 0.177093 0
M  V30 21 N -2.010690 1.860173 -0.056332 0
M  V30 22 C -3.046992 0.994356 -0.234960 0
M  V30 23 C -3.017892 -0.197754 0.470286 0
M  V30 24 C -4.169658 -1.060632 0.201207 0
M  V30 25 C -5.546135 -0.954582 0.113300 0
M  V30 26 N -6.053195 -2.165221 -0.183924 0
M  V30 27 N -5.049318 -3.042657 -0.289132 0
M  V30 28 C -5.202156 -4.463747 -0.605918 0
M  V30 29 C -3.867783 -2.402477 -0.058493 0
M  V30 30 H -0.019138 -1.831174 2.573259 0
M  V30 31 H -1.272450 -1.665683 3.876216 0
M  V30 32 H -1.096284 -3.274962 2.985328 0
M  V30 33 H -0.132364 0.175336 2.140899 0
M  V30 34 H 0.136470 3.367703 1.514531 0
M  V30 35 H -0.056945 3.060014 -1.785656 0
M  V30 36 H 2.921701 0.228121 1.709588 0
M  V30 37 H 5.845129 -0.623829 1.404363 0
M  V30 38 H 5.182196 1.020668 1.933215 0
M  V30 39 H 5.704946 -0.952745 3.760778 0
M  V30 40 H 4.181612 0.034313 3.815751 0
M  V30 41 H 3.032678 -1.806068 3.567801 0
M  V30 42 H 2.500319 -2.221665 1.475332 0
M  V30 43 H 4.293593 -2.446608 1.065217 0
M  V30 44 H -3.825562 1.291171 -0.914371 0
M  V30 45 H -5.943856 0.037652 0.292351 0
M  V30 46 H -6.269782 -4.697798 -0.726101 0
M  V30 47 H -4.744069 -4.681364 -1.614105 0
M  V30 48 H -4.675425 -5.110261 0.133199 0
M  V30 49 H -2.926485 -2.952978 -0.099369 0
M  V30 END ATOM
M  V30 BEGIN BOND
M  V30 1 1 1 2
M  V30 2 1 2 3
M  V30 3 2 3 4
M  V30 4 1 4 5
M  V30 5 1 5 6
M  V30 6 1 6 7
M  V30 7 2 7 8
M  V30 8 1 8 9
M  V30 9 2 9 10
M  V30 10 1 10 11
M  V30 11 3 11 12
M  V30 12 1 10 13
M  V30 13 1 13 14
M  V30 14 1 14 15
M  V30 15 1 15 16
M  V30 16 1 16 17
M  V30 17 1 17 18
M  V30 18 1 18 19
M  V30 19 2 13 20
M  V30 20 2 5 21
M  V30 21 1 21 22
M  V30 22 2 22 23
M  V30 23 1 23 24
M  V30 24 1 24 25
M  V30 25 2 25 26
M  V30 26 1 26 27
M  V30 27 1 27 28
M  V30 28 1 27 29
M  V30 29 1 23 3
M  V30 30 2 29 24
M  V30 31 1 20 7
M  V30 32 1 19 15
M  V30 33 1 1 30
M  V30 34 1 1 31
M  V30 35 1 1 32
M  V30 36 1 4 33
M  V30 37 1 6 34
M  V30 38 1 8 35
M  V30 39 1 15 36 CFG=1
M  V30 40 1 16 37
M  V30 41 1 16 38
M  V30 42 1 17 39
M  V30 43 1 17 40
M  V30 44 1 18 41
M  V30 45 1 19 42
M  V30 46 1 19 43
M  V30 47 1 22 44
M  V30 48 1 25 45
M  V30 49 1 28 46
M  V30 50 1 28 47
M  V30 51 1 28 48
M  V30 52 1 29 49
M  V30 END BOND
M  V30 END CTAB
M  END
>  <Dataset>  (801) 
ChEMBL_Kinases

>  <Ligand_Instance>  (801) 
nan

>  <PDB_ID>  (801) 
nan

>  <Standardized_SMILES>  (801) 
COc1cc(Nc2cnc(C#N)c(O[C@@H]3CCNC3)n2)ncc1-c1cnn(C)c1

>  <Name>  (801) 
nan

>  <Pocket>  (801) 
nan

>  <ATP_Site>  (801) 
nan

>  <Peripheral>  (801) 
nan

>  <Num_H_Atoms_ProtBoundConf>  (801) 
nan

>  <Num_Resolved_Atoms>  (801) 
nan

>  <Num_Not_Resolved_Atoms>  (801) 
nan

$$$$
CHEMBL2203843
     RDKit          3D

  0  0  0  0  0  0  0  0  0  0999 V3000
M  V30 BEGIN CTAB
M  V30 COUNTS 54 56 0 0 0
M  V30 BEGIN ATOM
M  V30 1 C -2.013730 -2.005415 3.128718 0
M  V30 2 O -1.574007 -3.075712 2.330068 0
M  V30 3 C -0.329000 -3.240793 1.789630 0
M  V30 4 C 0.584461 -2.250751 2.062162 0
M  V30 5 C 1.853915 -2.364685 1.543456 0
M  V30 6 N 3.030845 -1.543472 1.627761 0
M  V30 7 C 2.803408 -0.607818 0.548742 0
M  V30 8 C 3.130443 -1.057381 -0.714598 0
M  V30 9 N 2.937593 -0.212566 -1.746283 0
M  V30 10 C 2.445806 1.014089 -1.528357 0
M  V30 11 C 2.234893 1.933739 -2.602888 0
M  V30 12 N 2.066402 2.660777 -3.483312 0
M  V30 13 C 2.109654 1.496180 -0.285973 0
M  V30 14 O 1.613732 2.649585 0.203896 0
M  V30 15 C 1.199373 3.847799 -0.284952 0 CFG=2
M  V30 16 C 2.138785 4.931083 0.302740 0
M  V30 17 C -0.188044 4.123284 0.319678 0
M  V30 18 N -1.141637 3.098904 -0.027486 0
M  V30 19 C -2.408966 3.447169 0.588273 0
M  V30 20 C -1.342117 2.942904 -1.435449 0
M  V30 21 N 2.311334 0.625040 0.746757 0
M  V30 22 N 2.179728 -3.447544 0.775538 0
M  V30 23 C 1.283802 -4.427907 0.502787 0
M  V30 24 C 0.005426 -4.329914 1.014915 0
M  V30 25 C -0.981696 -5.364210 0.738846 0
M  V30 26 C -1.113241 -5.864532 -0.547101 0
M  V30 27 N -2.092162 -6.807972 -0.538610 0
M  V30 28 N -2.577661 -6.920837 0.688831 0
M  V30 29 C -3.638836 -7.812074 1.144601 0
M  V30 30 C -1.928683 -6.060467 1.492670 0
M  V30 31 H -3.032415 -2.250352 3.516758 0
M  V30 32 H -2.085481 -1.052684 2.562983 0
M  V30 33 H -1.373014 -1.847905 4.014884 0
M  V30 34 H 0.494859 -1.345941 2.639482 0
M  V30 35 H 3.833941 -1.609564 2.293942 0
M  V30 36 H 3.529500 -2.018368 -0.995118 0
M  V30 37 H 1.108500 3.994698 -1.361291 0
M  V30 38 H 2.930070 4.496595 0.919284 0
M  V30 39 H 1.548376 5.613095 0.940782 0
M  V30 40 H 2.569480 5.531948 -0.531618 0
M  V30 41 H -0.138747 4.145088 1.437388 0
M  V30 42 H -0.549941 5.135169 0.018114 0
M  V30 43 H -2.873460 2.538858 1.021015 0
M  V30 44 H -2.308093 4.194724 1.409347 0
M  V30 45 H -3.126022 3.849911 -0.146256 0
M  V30 46 H -2.327825 2.460933 -1.606548 0
M  V30 47 H -1.363637 3.922701 -1.957960 0
M  V30 48 H -0.568744 2.293073 -1.911091 0
M  V30 49 H 1.488313 -5.300639 -0.095120 0
M  V30 50 H -0.658072 -5.702609 -1.505596 0
M  V30 51 H -3.471529 -8.083586 2.205210 0
M  V30 52 H -3.679401 -8.724893 0.525051 0
M  V30 53 H -4.636783 -7.299890 1.109895 0
M  V30 54 H -2.018735 -5.840317 2.550102 0
M  V30 END ATOM
M  V30 BEGIN BOND
M  V30 1 1 1 2
M  V30 2 1 2 3
M  V30 3 2 3 4
M  V30 4 1 4 5
M  V30 5 1 5 6
M  V30 6 1 6 7
M  V30 7 2 7 8
M  V30 8 1 8 9
M  V30 9 2 9 10
M  V30 10 1 10 11
M  V30 11 3 11 12
M  V30 12 1 10 13
M  V30 13 1 13 14
M  V30 14 1 14 15
M  V30 15 1 15 16
M  V30 16 1 15 17
M  V30 17 1 17 18
M  V30 18 1 18 19
M  V30 19 1 18 20
M  V30 20 2 13 21
M  V30 21 2 5 22
M  V30 22 1 22 23
M  V30 23 2 23 24
M  V30 24 1 24 25
M  V30 25 1 25 26
M  V30 26 2 26 27
M  V30 27 1 27 28
M  V30 28 1 28 29
M  V30 29 1 28 30
M  V30 30 1 24 3
M  V30 31 2 30 25
M  V30 32 1 21 7
M  V30 33 1 1 31
M  V30 34 1 1 32
M  V30 35 1 1 33
M  V30 36 1 4 34
M  V30 37 1 6 35
M  V30 38 1 8 36
M  V30 39 1 15 37 CFG=3
M  V30 40 1 16 38
M  V30 41 1 16 39
M  V30 42 1 16 40
M  V30 43 1 17 41
M  V30 44 1 17 42
M  V30 45 1 19 43
M  V30 46 1 19 44
M  V30 47 1 19 45
M  V30 48 1 20 46
M  V30 49 1 20 47
M  V30 50 1 20 48
M  V30 51 1 23 49
M  V30 52 1 26 50
M  V30 53 1 29 51
M  V30 54 1 29 52
M  V30 55 1 29 53
M  V30 56 1 30 54
M  V30 END BOND
M  V30 END CTAB
M  END
>  <Dataset>  (802) 
ChEMBL_Kinases

>  <Ligand_Instance>  (802) 
nan

>  <PDB_ID>  (802) 
nan

>  <Standardized_SMILES>  (802) 
COc1cc(Nc2cnc(C#N)c(O[C@H](C)CN(C)C)n2)ncc1-c1cnn(C)c1

>  <Name>  (802) 
nan

>  <Pocket>  (802) 
nan

>  <ATP_Site>  (802) 
nan

>  <Peripheral>  (802) 
nan

>  <Num_H_Atoms_ProtBoundConf>  (802) 
nan

>  <Num_Resolved_Atoms>  (802) 
nan

>  <Num_Not_Resolved_Atoms>  (802) 
nan

$$$$
CHEMBL2203842
     RDKit          3D

  0  0  0  0  0  0  0  0  0  0999 V3000
M  V30 BEGIN CTAB
M  V30 COUNTS 53 56 0 0 0
M  V30 BEGIN ATOM
M  V30 1 C -0.806236 -0.779517 -1.425247 0
M  V30 2 N -0.560048 -2.199141 -1.492558 0
M  V30 3 C 0.467469 -2.737247 -0.716780 0
M  V30 4 C 1.250681 -1.980300 0.127332 0
M  V30 5 C 2.266567 -2.458128 0.925446 0
M  V30 6 N 3.025986 -1.604929 1.771923 0
M  V30 7 C 2.754217 -0.214854 1.765372 0
M  V30 8 C 3.840785 0.517430 1.350394 0
M  V30 9 N 3.771028 1.880370 1.270986 0
M  V30 10 C 2.590803 2.470461 1.616837 0
M  V30 11 C 2.419608 3.881043 1.566918 0
M  V30 12 N 2.300504 5.028538 1.523514 0
M  V30 13 C 1.489643 1.767512 2.033606 0
M  V30 14 O 0.250365 2.063612 2.419266 0
M  V30 15 C -0.546939 3.146092 2.605449 0 CFG=1
M  V30 16 C -1.811551 3.113280 1.724019 0
M  V30 17 C -2.715029 2.222882 2.543357 0
M  V30 18 N -2.470444 2.584732 3.906729 0
M  V30 19 C -3.538713 3.369671 4.485515 0
M  V30 20 C -1.187614 3.199648 3.987956 0
M  V30 21 N 1.600420 0.409327 2.099763 0
M  V30 22 N 2.543156 -3.795229 0.897537 0
M  V30 23 C 1.802223 -4.601778 0.079930 0
M  V30 24 C 0.791368 -4.083438 -0.705662 0
M  V30 25 C 0.082110 -5.037278 -1.546559 0
M  V30 26 C -0.434185 -6.255195 -1.087341 0
M  V30 27 N -1.014015 -6.883587 -2.140619 0
M  V30 28 N -0.894449 -6.140505 -3.225757 0
M  V30 29 C -1.354326 -6.389805 -4.586120 0
M  V30 30 C -0.225180 -4.998014 -2.895367 0
M  V30 31 H -1.657037 -0.461825 -2.058428 0
M  V30 32 H 0.070433 -0.185046 -1.757629 0
M  V30 33 H -0.975868 -0.493030 -0.354864 0
M  V30 34 H -1.174873 -2.752831 -2.121503 0
M  V30 35 H 1.051541 -0.907310 0.167966 0
M  V30 36 H 3.765852 -2.000746 2.383495 0
M  V30 37 H 4.808760 0.169009 1.058201 0
M  V30 38 H -0.067755 4.123328 2.409817 0
M  V30 39 H -1.587998 2.615670 0.752675 0
M  V30 40 H -2.192829 4.139961 1.627228 0
M  V30 41 H -3.782253 2.339068 2.258273 0
M  V30 42 H -2.387564 1.183945 2.388904 0
M  V30 43 H -3.182604 4.384115 4.719652 0
M  V30 44 H -4.334965 3.450698 3.699871 0
M  V30 45 H -3.983973 2.822618 5.330971 0
M  V30 46 H -0.548011 2.575774 4.669379 0
M  V30 47 H -1.201669 4.216635 4.401591 0
M  V30 48 H 2.101088 -5.636979 0.131292 0
M  V30 49 H -0.405564 -6.672701 -0.085319 0
M  V30 50 H -0.513836 -6.713131 -5.241246 0
M  V30 51 H -1.711395 -5.413148 -5.021810 0
M  V30 52 H -2.218326 -7.089595 -4.609976 0
M  V30 53 H 0.026706 -4.204113 -3.560776 0
M  V30 END ATOM
M  V30 BEGIN BOND
M  V30 1 1 1 2
M  V30 2 1 2 3
M  V30 3 2 3 4
M  V30 4 1 4 5
M  V30 5 1 5 6
M  V30 6 1 6 7
M  V30 7 2 7 8
M  V30 8 1 8 9
M  V30 9 2 9 10
M  V30 10 1 10 11
M  V30 11 3 11 12
M  V30 12 1 10 13
M  V30 13 1 13 14
M  V30 14 1 14 15
M  V30 15 1 15 16
M  V30 16 1 16 17
M  V30 17 1 17 18
M  V30 18 1 18 19
M  V30 19 1 18 20
M  V30 20 2 13 21
M  V30 21 2 5 22
M  V30 22 1 22 23
M  V30 23 2 23 24
M  V30 24 1 24 25
M  V30 25 1 25 26
M  V30 26 2 26 27
M  V30 27 1 27 28
M  V30 28 1 28 29
M  V30 29 1 28 30
M  V30 30 1 24 3
M  V30 31 2 30 25
M  V30 32 1 21 7
M  V30 33 1 20 15
M  V30 34 1 1 31
M  V30 35 1 1 32
M  V30 36 1 1 33
M  V30 37 1 2 34
M  V30 38 1 4 35
M  V30 39 1 6 36
M  V30 40 1 8 37
M  V30 41 1 15 38 CFG=3
M  V30 42 1 16 39
M  V30 43 1 16 40
M  V30 44 1 17 41
M  V30 45 1 17 42
M  V30 46 1 19 43
M  V30 47 1 19 44
M  V30 48 1 19 45
M  V30 49 1 20 46
M  V30 50 1 20 47
M  V30 51 1 23 48
M  V30 52 1 26 49
M  V30 53 1 29 50
M  V30 54 1 29 51
M  V30 55 1 29 52
M  V30 56 1 30 53
M  V30 END BOND
M  V30 END CTAB
M  END
>  <Dataset>  (803) 
ChEMBL_Kinases

>  <Ligand_Instance>  (803) 
nan

>  <PDB_ID>  (803) 
nan

>  <Standardized_SMILES>  (803) 
CNc1cc(Nc2cnc(C#N)c(O[C@H]3CCN(C)C3)n2)ncc1-c1cnn(C)c1

>  <Name>  (803) 
nan

>  <Pocket>  (803) 
nan

>  <ATP_Site>  (803) 
nan

>  <Peripheral>  (803) 
nan

>  <Num_H_Atoms_ProtBoundConf>  (803) 
nan

>  <Num_Resolved_Atoms>  (803) 
nan

>  <Num_Not_Resolved_Atoms>  (803) 
nan

$$$$
CHEMBL2203841
     RDKit          3D

  0  0  0  0  0  0  0  0  0  0999 V3000
M  V30 BEGIN CTAB
M  V30 COUNTS 53 56 0 0 0
M  V30 BEGIN ATOM
M  V30 1 C -1.835310 -2.235802 -1.175935 0
M  V30 2 N -0.807950 -3.252762 -1.067705 0
M  V30 3 C 0.516844 -2.843786 -0.882758 0
M  V30 4 C 0.872129 -1.513967 -0.790976 0
M  V30 5 C 2.173722 -1.091601 -0.600503 0
M  V30 6 N 2.473928 0.297949 -0.514950 0
M  V30 7 C 1.376029 1.201756 -0.628488 0
M  V30 8 C 0.853177 1.759480 -1.786989 0
M  V30 9 N -0.193679 2.600217 -1.696218 0
M  V30 10 C -0.749542 2.917109 -0.516490 0
M  V30 11 C -1.876187 3.827181 -0.465431 0
M  V30 12 N -2.782882 4.549467 -0.412258 0
M  V30 13 C -0.234659 2.365073 0.649554 0
M  V30 14 O -0.850915 2.730909 1.833838 0
M  V30 15 C -0.453790 2.268136 3.100189 0 CFG=2
M  V30 16 C -1.603470 1.667417 3.894618 0
M  V30 17 C -2.363814 2.885323 4.319491 0
M  V30 18 N -1.362713 3.914202 4.540471 0
M  V30 19 C -1.818218 5.173404 3.937847 0
M  V30 20 C -0.138032 3.488922 3.937043 0
M  V30 21 N 0.804849 1.531729 0.546164 0
M  V30 22 N 3.119993 -2.048103 -0.503394 0
M  V30 23 C 2.787087 -3.354907 -0.591497 0
M  V30 24 C 1.477776 -3.815960 -0.784488 0
M  V30 25 C 1.281651 -5.256677 -0.868700 0
M  V30 26 C 1.879081 -6.083427 0.091903 0
M  V30 27 N 1.546628 -7.364841 -0.218143 0
M  V30 28 N 0.795206 -7.393002 -1.288853 0
M  V30 29 C 0.198052 -8.530293 -1.996247 0
M  V30 30 C 0.627905 -6.120611 -1.692211 0
M  V30 31 H -2.809397 -2.664724 -1.413209 0
M  V30 32 H -1.606545 -1.539910 -2.036309 0
M  V30 33 H -1.935172 -1.646937 -0.237042 0
M  V30 34 H -1.109900 -4.240366 -1.130905 0
M  V30 35 H 0.066513 -0.796184 -0.876792 0
M  V30 36 H 3.451041 0.595686 -0.377146 0
M  V30 37 H 1.353659 1.455950 -2.690871 0
M  V30 38 H 0.400116 1.590540 3.038927 0
M  V30 39 H -1.141260 1.217999 4.800310 0
M  V30 40 H -2.208775 0.958635 3.301805 0
M  V30 41 H -3.068092 3.244872 3.519437 0
M  V30 42 H -2.944763 2.657727 5.230571 0
M  V30 43 H -2.378721 5.806298 4.643449 0
M  V30 44 H -2.496368 4.951509 3.065666 0
M  V30 45 H -0.946482 5.734553 3.555981 0
M  V30 46 H 0.548357 3.146901 4.747199 0
M  V30 47 H 0.303171 4.272101 3.291761 0
M  V30 48 H 3.634093 -4.038325 -0.498896 0
M  V30 49 H 2.511750 -5.875433 0.969301 0
M  V30 50 H 0.937725 -8.815566 -2.776618 0
M  V30 51 H -0.054071 -9.365080 -1.327194 0
M  V30 52 H -0.705552 -8.189029 -2.560432 0
M  V30 53 H 0.071845 -5.747731 -2.540274 0
M  V30 END ATOM
M  V30 BEGIN BOND
M  V30 1 1 1 2
M  V30 2 1 2 3
M  V30 3 2 3 4
M  V30 4 1 4 5
M  V30 5 1 5 6
M  V30 6 1 6 7
M  V30 7 2 7 8
M  V30 8 1 8 9
M  V30 9 2 9 10
M  V30 10 1 10 11
M  V30 11 3 11 12
M  V30 12 1 10 13
M  V30 13 1 13 14
M  V30 14 1 14 15
M  V30 15 1 15 16
M  V30 16 1 16 17
M  V30 17 1 17 18
M  V30 18 1 18 19
M  V30 19 1 18 20
M  V30 20 2 13 21
M  V30 21 2 5 22
M  V30 22 1 22 23
M  V30 23 2 23 24
M  V30 24 1 24 25
M  V30 25 1 25 26
M  V30 26 2 26 27
M  V30 27 1 27 28
M  V30 28 1 28 29
M  V30 29 1 28 30
M  V30 30 1 24 3
M  V30 31 2 30 25
M  V30 32 1 21 7
M  V30 33 1 20 15
M  V30 34 1 1 31
M  V30 35 1 1 32
M  V30 36 1 1 33
M  V30 37 1 2 34
M  V30 38 1 4 35
M  V30 39 1 6 36
M  V30 40 1 8 37
M  V30 41 1 15 38 CFG=3
M  V30 42 1 16 39
M  V30 43 1 16 40
M  V30 44 1 17 41
M  V30 45 1 17 42
M  V30 46 1 19 43
M  V30 47 1 19 44
M  V30 48 1 19 45
M  V30 49 1 20 46
M  V30 50 1 20 47
M  V30 51 1 23 48
M  V30 52 1 26 49
M  V30 53 1 29 50
M  V30 54 1 29 51
M  V30 55 1 29 52
M  V30 56 1 30 53
M  V30 END BOND
M  V30 END CTAB
M  END
>  <Dataset>  (804) 
ChEMBL_Kinases

>  <Ligand_Instance>  (804) 
nan

>  <PDB_ID>  (804) 
nan

>  <Standardized_SMILES>  (804) 
CNc1cc(Nc2cnc(C#N)c(O[C@@H]3CCN(C)C3)n2)ncc1-c1cnn(C)c1

>  <Name>  (804) 
nan

>  <Pocket>  (804) 
nan

>  <ATP_Site>  (804) 
nan

>  <Peripheral>  (804) 
nan

>  <Num_H_Atoms_ProtBoundConf>  (804) 
nan

>  <Num_Resolved_Atoms>  (804) 
nan

>  <Num_Not_Resolved_Atoms>  (804) 
nan

$$$$
CHEMBL2203840
     RDKit          3D

  0  0  0  0  0  0  0  0  0  0999 V3000
M  V30 BEGIN CTAB
M  V30 COUNTS 50 53 0 0 0
M  V30 BEGIN ATOM
M  V30 1 C -0.557033 -2.138946 -0.896816 0
M  V30 2 N -1.278677 -2.331150 0.346981 0
M  V30 3 C -1.266972 -1.624358 1.580252 0
M  V30 4 C -0.488680 -0.512725 1.815929 0
M  V30 5 C -0.511260 0.145594 3.010849 0
M  V30 6 N 0.242933 1.285687 3.348735 0
M  V30 7 C 1.174922 2.008043 2.568732 0
M  V30 8 C 1.821855 3.115105 3.088120 0
M  V30 9 N 2.712479 3.835192 2.394501 0
M  V30 10 C 3.028810 3.498202 1.109562 0
M  V30 11 C 3.990893 4.318487 0.434592 0
M  V30 12 N 4.772053 4.964771 -0.121905 0
M  V30 13 C 2.399688 2.399654 0.565973 0
M  V30 14 O 2.795151 2.160037 -0.722210 0
M  V30 15 C 2.374032 1.146144 -1.575177 0 CFG=1
M  V30 16 C 1.734457 1.642632 -2.839240 0
M  V30 17 C 2.857971 1.662601 -3.831948 0
M  V30 18 N 3.896464 0.795807 -3.363500 0
M  V30 19 C 3.509185 0.286797 -2.084371 0
M  V30 20 N 1.519967 1.729571 1.323317 0
M  V30 21 N -1.338027 -0.361798 3.932471 0
M  V30 22 C -2.116181 -1.437790 3.758945 0
M  V30 23 C -2.102922 -2.108909 2.562683 0
M  V30 24 C -2.985869 -3.266614 2.509325 0
M  V30 25 C -4.320334 -3.219144 2.929683 0
M  V30 26 N -4.854544 -4.454928 2.755919 0
M  V30 27 N -3.963444 -5.271845 2.261255 0
M  V30 28 C -4.097618 -6.677485 1.918990 0
M  V30 29 C -2.825149 -4.574404 2.103964 0
M  V30 30 H 0.112470 -1.269330 -0.753373 0
M  V30 31 H -0.011370 -3.040664 -1.241342 0
M  V30 32 H -1.320985 -1.784069 -1.648489 0
M  V30 33 H -1.863943 -3.147315 0.167950 0
M  V30 34 H 0.144947 -0.163469 1.040706 0
M  V30 35 H 0.107382 1.679059 4.331548 0
M  V30 36 H 1.644228 3.468226 4.096776 0
M  V30 37 H 1.633410 0.532342 -1.028518 0
M  V30 38 H 1.270398 2.642554 -2.725764 0
M  V30 39 H 0.972936 0.905311 -3.153964 0
M  V30 40 H 3.192745 2.699291 -4.036481 0
M  V30 41 H 2.453680 1.294829 -4.809452 0
M  V30 42 H 4.836437 1.219601 -3.365040 0
M  V30 43 H 4.337753 0.260799 -1.350145 0
M  V30 44 H 3.157078 -0.752567 -2.193807 0
M  V30 45 H -2.735173 -1.730543 4.600569 0
M  V30 46 H -4.871522 -2.370163 3.329404 0
M  V30 47 H -4.288975 -6.776072 0.810906 0
M  V30 48 H -4.950574 -7.154574 2.407555 0
M  V30 49 H -3.155614 -7.224661 2.083897 0
M  V30 50 H -1.887939 -4.944249 1.720716 0
M  V30 END ATOM
M  V30 BEGIN BOND
M  V30 1 1 1 2
M  V30 2 1 2 3
M  V30 3 2 3 4
M  V30 4 1 4 5
M  V30 5 1 5 6
M  V30 6 1 6 7
M  V30 7 2 7 8
M  V30 8 1 8 9
M  V30 9 2 9 10
M  V30 10 1 10 11
M  V30 11 3 11 12
M  V30 12 1 10 13
M  V30 13 1 13 14
M  V30 14 1 14 15
M  V30 15 1 15 16
M  V30 16 1 16 17
M  V30 17 1 17 18
M  V30 18 1 18 19
M  V30 19 2 13 20
M  V30 20 2 5 21
M  V30 21 1 21 22
M  V30 22 2 22 23
M  V30 23 1 23 24
M  V30 24 1 24 25
M  V30 25 2 25 26
M  V30 26 1 26 27
M  V30 27 1 27 28
M  V30 28 1 27 29
M  V30 29 1 23 3
M  V30 30 2 29 24
M  V30 31 1 20 7
M  V30 32 1 19 15
M  V30 33 1 1 30
M  V30 34 1 1 31
M  V30 35 1 1 32
M  V30 36 1 2 33
M  V30 37 1 4 34
M  V30 38 1 6 35
M  V30 39 1 8 36
M  V30 40 1 15 37 CFG=1
M  V30 41 1 16 38
M  V30 42 1 16 39
M  V30 43 1 17 40
M  V30 44 1 17 41
M  V30 45 1 18 42
M  V30 46 1 19 43
M  V30 47 1 19 44
M  V30 48 1 22 45
M  V30 49 1 25 46
M  V30 50 1 28 47
M  V30 51 1 28 48
M  V30 52 1 28 49
M  V30 53 1 29 50
M  V30 END BOND
M  V30 END CTAB
M  END
>  <Dataset>  (805) 
ChEMBL_Kinases

>  <Ligand_Instance>  (805) 
nan

>  <PDB_ID>  (805) 
nan

>  <Standardized_SMILES>  (805) 
CNc1cc(Nc2cnc(C#N)c(O[C@H]3CCNC3)n2)ncc1-c1cnn(C)c1

>  <Name>  (805) 
nan

>  <Pocket>  (805) 
nan

>  <ATP_Site>  (805) 
nan

>  <Peripheral>  (805) 
nan

>  <Num_H_Atoms_ProtBoundConf>  (805) 
nan

>  <Num_Resolved_Atoms>  (805) 
nan

>  <Num_Not_Resolved_Atoms>  (805) 
nan

$$$$
CHEMBL2203839
     RDKit          3D

  0  0  0  0  0  0  0  0  0  0999 V3000
M  V30 BEGIN CTAB
M  V30 COUNTS 50 53 0 0 0
M  V30 BEGIN ATOM
M  V30 1 C -2.760396 -0.800776 -2.185334 0
M  V30 2 N -2.471616 -2.070972 -1.554391 0
M  V30 3 C -1.348457 -2.457204 -0.790486 0
M  V30 4 C -0.315223 -1.583924 -0.532857 0
M  V30 5 C 0.730419 -2.053094 0.229369 0
M  V30 6 N 1.846731 -1.271322 0.554184 0
M  V30 7 C 2.340904 0.035420 0.365411 0
M  V30 8 C 2.959547 0.226195 -0.870872 0
M  V30 9 N 3.480517 1.462573 -1.130594 0
M  V30 10 C 3.369267 2.402785 -0.199116 0
M  V30 11 C 3.938659 3.687513 -0.528460 0
M  V30 12 N 4.385277 4.720522 -0.795216 0
M  V30 13 C 2.767955 2.256868 1.033172 0
M  V30 14 O 2.738334 3.337963 1.894171 0
M  V30 15 C 2.155040 3.307297 3.168742 0 CFG=2
M  V30 16 C 1.274280 4.468523 3.487946 0
M  V30 17 C 1.603312 4.690687 4.974438 0
M  V30 18 N 3.067299 4.625779 4.885325 0
M  V30 19 C 3.238920 3.335881 4.253735 0
M  V30 20 N 2.257751 1.035053 1.277349 0
M  V30 21 N 0.746736 -3.297030 0.701131 0
M  V30 22 C -0.249194 -4.165669 0.462189 0
M  V30 23 C -1.336196 -3.747772 -0.305743 0
M  V30 24 C -2.339386 -4.785330 -0.510370 0
M  V30 25 C -2.888391 -5.575834 0.507334 0
M  V30 26 N -3.743888 -6.393897 -0.125652 0
M  V30 27 N -3.769404 -6.183089 -1.409472 0
M  V30 28 C -4.585470 -6.895591 -2.393448 0
M  V30 29 C -2.904355 -5.176197 -1.729816 0
M  V30 30 H -1.886652 -0.113745 -2.135389 0
M  V30 31 H -2.949891 -0.948159 -3.266006 0
M  V30 32 H -3.668161 -0.337738 -1.734546 0
M  V30 33 H -3.276105 -2.694777 -1.760031 0
M  V30 34 H -0.324240 -0.572586 -0.912786 0
M  V30 35 H 2.663482 -1.615201 1.109502 0
M  V30 36 H 3.048270 -0.537843 -1.623832 0
M  V30 37 H 1.673861 2.316747 3.280735 0
M  V30 38 H 0.221076 4.253022 3.319203 0
M  V30 39 H 1.641808 5.367670 2.938560 0
M  V30 40 H 1.310601 3.818225 5.561647 0
M  V30 41 H 1.250174 5.654940 5.346397 0
M  V30 42 H 3.463766 4.624734 5.863031 0
M  V30 43 H 4.197913 3.223522 3.753383 0
M  V30 44 H 3.102828 2.543994 5.005874 0
M  V30 45 H -0.177011 -5.167366 0.875335 0
M  V30 46 H -2.664509 -5.525893 1.552643 0
M  V30 47 H -4.391084 -6.489169 -3.420536 0
M  V30 48 H -5.649887 -6.850872 -2.175688 0
M  V30 49 H -4.162145 -7.941412 -2.413296 0
M  V30 50 H -2.711545 -4.784890 -2.727607 0
M  V30 END ATOM
M  V30 BEGIN BOND
M  V30 1 1 1 2
M  V30 2 1 2 3
M  V30 3 2 3 4
M  V30 4 1 4 5
M  V30 5 1 5 6
M  V30 6 1 6 7
M  V30 7 2 7 8
M  V30 8 1 8 9
M  V30 9 2 9 10
M  V30 10 1 10 11
M  V30 11 3 11 12
M  V30 12 1 10 13
M  V30 13 1 13 14
M  V30 14 1 14 15
M  V30 15 1 15 16
M  V30 16 1 16 17
M  V30 17 1 17 18
M  V30 18 1 18 19
M  V30 19 2 13 20
M  V30 20 2 5 21
M  V30 21 1 21 22
M  V30 22 2 22 23
M  V30 23 1 23 24
M  V30 24 1 24 25
M  V30 25 2 25 26
M  V30 26 1 26 27
M  V30 27 1 27 28
M  V30 28 1 27 29
M  V30 29 1 23 3
M  V30 30 2 29 24
M  V30 31 1 20 7
M  V30 32 1 19 15
M  V30 33 1 1 30
M  V30 34 1 1 31
M  V30 35 1 1 32
M  V30 36 1 2 33
M  V30 37 1 4 34
M  V30 38 1 6 35
M  V30 39 1 8 36
M  V30 40 1 15 37 CFG=3
M  V30 41 1 16 38
M  V30 42 1 16 39
M  V30 43 1 17 40
M  V30 44 1 17 41
M  V30 45 1 18 42
M  V30 46 1 19 43
M  V30 47 1 19 44
M  V30 48 1 22 45
M  V30 49 1 25 46
M  V30 50 1 28 47
M  V30 51 1 28 48
M  V30 52 1 28 49
M  V30 53 1 29 50
M  V30 END BOND
M  V30 END CTAB
M  END
>  <Dataset>  (806) 
ChEMBL_Kinases

>  <Ligand_Instance>  (806) 
nan

>  <PDB_ID>  (806) 
nan

>  <Standardized_SMILES>  (806) 
CNc1cc(Nc2cnc(C#N)c(O[C@@H]3CCNC3)n2)ncc1-c1cnn(C)c1

>  <Name>  (806) 
nan

>  <Pocket>  (806) 
nan

>  <ATP_Site>  (806) 
nan

>  <Peripheral>  (806) 
nan

>  <Num_H_Atoms_ProtBoundConf>  (806) 
nan

>  <Num_Resolved_Atoms>  (806) 
nan

>  <Num_Not_Resolved_Atoms>  (806) 
nan

$$$$
CHEMBL2203838
     RDKit          3D

  0  0  0  0  0  0  0  0  0  0999 V3000
M  V30 BEGIN CTAB
M  V30 COUNTS 55 57 0 0 0
M  V30 BEGIN ATOM
M  V30 1 C -1.488362 -2.051408 1.566802 0
M  V30 2 N -0.769640 -3.097867 0.825256 0
M  V30 3 C 0.652420 -3.066160 0.650895 0
M  V30 4 C 1.306372 -1.988194 1.221432 0
M  V30 5 C 2.687338 -1.807122 1.140809 0
M  V30 6 N 3.455120 -0.724256 1.699945 0
M  V30 7 C 2.951783 0.266422 0.769306 0
M  V30 8 C 3.304964 0.490550 -0.545777 0
M  V30 9 N 2.695619 1.475845 -1.258198 0
M  V30 10 C 1.734213 2.233910 -0.650956 0
M  V30 11 C 1.172375 3.236920 -1.521873 0
M  V30 12 N 0.722045 4.055765 -2.226044 0
M  V30 13 C 1.367997 2.024547 0.668838 0
M  V30 14 O 0.386678 2.887111 1.117728 0
M  V30 15 C -0.161120 2.999395 2.382915 0 CFG=1
M  V30 16 C -0.420548 4.425573 2.813450 0
M  V30 17 C -1.512435 2.268460 2.473679 0
M  V30 18 N -2.459423 2.797908 1.522716 0
M  V30 19 C -2.075020 2.481655 0.165386 0
M  V30 20 C -3.720088 2.070434 1.757788 0
M  V30 21 N 2.005712 1.038896 1.315804 0
M  V30 22 N 3.402825 -2.741959 0.470689 0
M  V30 23 C 2.794684 -3.812530 -0.101293 0
M  V30 24 C 1.430308 -3.981493 -0.018450 0
M  V30 25 C 0.714856 -5.097450 -0.646141 0
M  V30 26 C 0.766163 -6.472290 -0.648928 0
M  V30 27 N -0.158042 -6.968586 -1.494059 0
M  V30 28 N -0.826937 -5.947192 -2.052947 0
M  V30 29 C -1.916210 -5.980762 -3.033816 0
M  V30 30 C -0.314501 -4.807480 -1.555069 0
M  V30 31 H -2.569367 -2.154495 1.452153 0
M  V30 32 H -1.151860 -1.030022 1.218814 0
M  V30 33 H -1.117246 -2.094502 2.610764 0
M  V30 34 H -1.346457 -3.855324 0.434070 0
M  V30 35 H 0.819089 -1.190271 1.776641 0
M  V30 36 H 4.133367 -0.705620 2.500312 0
M  V30 37 H 4.072564 -0.199376 -0.857700 0
M  V30 38 H 0.471137 2.474577 3.144005 0
M  V30 39 H 0.125760 4.680650 3.752965 0
M  V30 40 H -1.502696 4.605229 3.078132 0
M  V30 41 H -0.062725 5.149199 2.049949 0
M  V30 42 H -1.908494 2.363795 3.502944 0
M  V30 43 H -1.251424 1.196450 2.263154 0
M  V30 44 H -1.417710 3.228106 -0.300289 0
M  V30 45 H -3.004333 2.472981 -0.426171 0
M  V30 46 H -1.642042 1.459160 0.108962 0
M  V30 47 H -4.566199 2.534458 1.207714 0
M  V30 48 H -3.890031 2.038308 2.844397 0
M  V30 49 H -3.612336 1.019407 1.383973 0
M  V30 50 H 3.317857 -4.601488 -0.655381 0
M  V30 51 H 1.506075 -6.948329 -0.004213 0
M  V30 52 H -2.126538 -6.982211 -3.407413 0
M  V30 53 H -2.813844 -5.446265 -2.633302 0
M  V30 54 H -1.569996 -5.342524 -3.905835 0
M  V30 55 H -0.676619 -3.821470 -1.841284 0
M  V30 END ATOM
M  V30 BEGIN BOND
M  V30 1 1 1 2
M  V30 2 1 2 3
M  V30 3 2 3 4
M  V30 4 1 4 5
M  V30 5 1 5 6
M  V30 6 1 6 7
M  V30 7 2 7 8
M  V30 8 1 8 9
M  V30 9 2 9 10
M  V30 10 1 10 11
M  V30 11 3 11 12
M  V30 12 1 10 13
M  V30 13 1 13 14
M  V30 14 1 14 15
M  V30 15 1 15 16
M  V30 16 1 15 17
M  V30 17 1 17 18
M  V30 18 1 18 19
M  V30 19 1 18 20
M  V30 20 2 13 21
M  V30 21 2 5 22
M  V30 22 1 22 23
M  V30 23 2 23 24
M  V30 24 1 24 25
M  V30 25 1 25 26
M  V30 26 2 26 27
M  V30 27 1 27 28
M  V30 28 1 28 29
M  V30 29 1 28 30
M  V30 30 1 24 3
M  V30 31 2 30 25
M  V30 32 1 21 7
M  V30 33 1 1 31
M  V30 34 1 1 32
M  V30 35 1 1 33
M  V30 36 1 2 34
M  V30 37 1 4 35
M  V30 38 1 6 36
M  V30 39 1 8 37
M  V30 40 1 15 38 CFG=1
M  V30 41 1 16 39
M  V30 42 1 16 40
M  V30 43 1 16 41
M  V30 44 1 17 42
M  V30 45 1 17 43
M  V30 46 1 19 44
M  V30 47 1 19 45
M  V30 48 1 19 46
M  V30 49 1 20 47
M  V30 50 1 20 48
M  V30 51 1 20 49
M  V30 52 1 23 50
M  V30 53 1 26 51
M  V30 54 1 29 52
M  V30 55 1 29 53
M  V30 56 1 29 54
M  V30 57 1 30 55
M  V30 END BOND
M  V30 END CTAB
M  END
>  <Dataset>  (807) 
ChEMBL_Kinases

>  <Ligand_Instance>  (807) 
nan

>  <PDB_ID>  (807) 
nan

>  <Standardized_SMILES>  (807) 
CNc1cc(Nc2cnc(C#N)c(O[C@@H](C)CN(C)C)n2)ncc1-c1cnn(C)c1

>  <Name>  (807) 
nan

>  <Pocket>  (807) 
nan

>  <ATP_Site>  (807) 
nan

>  <Peripheral>  (807) 
nan

>  <Num_H_Atoms_ProtBoundConf>  (807) 
nan

>  <Num_Resolved_Atoms>  (807) 
nan

>  <Num_Not_Resolved_Atoms>  (807) 
nan

$$$$
CHEMBL2203775
     RDKit          3D

  0  0  0  0  0  0  0  0  0  0999 V3000
M  V30 BEGIN CTAB
M  V30 COUNTS 67 72 0 0 0
M  V30 BEGIN ATOM
M  V30 1 C 6.703599 1.004651 6.604641 0
M  V30 2 C 6.465740 0.902029 5.144726 0
M  V30 3 C 5.279802 0.800535 4.458593 0
M  V30 4 C 5.523880 0.729171 3.110157 0
M  V30 5 C 4.623630 0.612259 1.937835 0
M  V30 6 N 4.240780 1.918926 1.430417 0
M  V30 7 C 3.534115 2.603222 2.512829 0
M  V30 8 C 2.484295 3.456399 1.803022 0
M  V30 9 N 1.394756 2.638854 1.367937 0
M  V30 10 C 0.001006 2.503952 1.591255 0
M  V30 11 C -0.733736 3.279024 2.455691 0
M  V30 12 Cl -0.000978 4.544352 3.405686 0
M  V30 13 C -2.084370 3.181330 2.693863 0
M  V30 14 N -2.724956 2.208353 1.984780 0
M  V30 15 C -2.062100 1.422858 1.128595 0
M  V30 16 N -2.534919 0.432044 0.360076 0
M  V30 17 C -1.531694 -0.096533 -0.352789 0
M  V30 18 C -1.584266 -1.190330 -1.315078 0
M  V30 19 C -0.433320 -1.584804 -1.962379 0
M  V30 20 C -0.519169 -2.618906 -2.866026 0
M  V30 21 C -1.734145 -3.223125 -3.096381 0
M  V30 22 C -2.900530 -2.856279 -2.469844 0
M  V30 23 N -4.127068 -3.505602 -2.743384 0
M  V30 24 C -4.350083 -4.473011 -3.792788 0
M  V30 25 C -4.534208 -5.805527 -3.116279 0
M  V30 26 N -5.091301 -5.761860 -1.811010 0
M  V30 27 C -4.164639 -6.118937 -0.762522 0
M  V30 28 C -5.907914 -4.631759 -1.499469 0
M  V30 29 C -5.359520 -3.325601 -2.019146 0
M  V30 30 C -2.789184 -1.821577 -1.572029 0
M  V30 31 N -0.446337 0.601455 0.007358 0
M  V30 32 C -0.721799 1.547101 0.916381 0
M  V30 33 C 1.979556 1.713967 0.450050 0
M  V30 34 C 3.447345 1.841525 0.244111 0
M  V30 35 N 6.881777 0.791647 3.033177 0
M  V30 36 O 7.390571 0.891235 4.229553 0
M  V30 37 H 7.074809 0.072439 7.058500 0
M  V30 38 H 5.808257 1.353436 7.161576 0
M  V30 39 H 7.482666 1.789936 6.821731 0
M  V30 40 H 4.294982 0.777873 4.890181 0
M  V30 41 H 5.183657 0.099105 1.136858 0
M  V30 42 H 3.732494 0.008659 2.211080 0
M  V30 43 H 4.254579 3.247535 3.021202 0
M  V30 44 H 3.027592 1.874960 3.177016 0
M  V30 45 H 3.035585 3.934227 0.955016 0
M  V30 46 H 2.197026 4.239160 2.511248 0
M  V30 47 H -2.658521 3.785675 3.368640 0
M  V30 48 H -3.514067 0.109392 0.308961 0
M  V30 49 H 0.491485 -1.071957 -1.740034 0
M  V30 50 H 0.402549 -2.899855 -3.352295 0
M  V30 51 H -1.669795 -4.019057 -3.823212 0
M  V30 52 H -3.492644 -4.553808 -4.481949 0
M  V30 53 H -5.247026 -4.179815 -4.383688 0
M  V30 54 H -5.232040 -6.399022 -3.764587 0
M  V30 55 H -3.572022 -6.362192 -3.157352 0
M  V30 56 H -3.152297 -6.363692 -1.136179 0
M  V30 57 H -4.176668 -5.308493 -0.003833 0
M  V30 58 H -4.570524 -7.024969 -0.254823 0
M  V30 59 H -5.949421 -4.550137 -0.389930 0
M  V30 60 H -6.945295 -4.813145 -1.833313 0
M  V30 61 H -5.328891 -2.539669 -1.242377 0
M  V30 62 H -6.114963 -2.938694 -2.765114 0
M  V30 63 H -3.638910 -1.455806 -1.029081 0
M  V30 64 H 1.482984 1.830893 -0.556269 0
M  V30 65 H 1.782013 0.639979 0.746544 0
M  V30 66 H 3.640500 2.678597 -0.489874 0
M  V30 67 H 3.768049 0.927195 -0.351476 0
M  V30 END ATOM
M  V30 BEGIN BOND
M  V30 1 1 1 2
M  V30 2 2 2 3
M  V30 3 1 3 4
M  V30 4 1 4 5
M  V30 5 1 5 6
M  V30 6 1 6 7
M  V30 7 1 7 8
M  V30 8 1 8 9
M  V30 9 1 9 10
M  V30 10 2 10 11
M  V30 11 1 11 12
M  V30 12 1 11 13
M  V30 13 2 13 14
M  V30 14 1 14 15
M  V30 15 1 15 16
M  V30 16 1 16 17
M  V30 17 1 17 18
M  V30 18 2 18 19
M  V30 19 1 19 20
M  V30 20 2 20 21
M  V30 21 1 21 22
M  V30 22 1 22 23
M  V30 23 1 23 24
M  V30 24 1 24 25
M  V30 25 1 25 26
M  V30 26 1 26 27
M  V30 27 1 26 28
M  V30 28 1 28 29
M  V30 29 2 22 30
M  V30 30 2 17 31
M  V30 31 1 31 32
M  V30 32 1 9 33
M  V30 33 1 33 34
M  V30 34 2 4 35
M  V30 35 1 35 36
M  V30 36 1 36 2
M  V30 37 1 34 6
M  V30 38 1 32 10
M  V30 39 2 32 15
M  V30 40 1 30 18
M  V30 41 1 29 23
M  V30 42 1 1 37
M  V30 43 1 1 38
M  V30 44 1 1 39
M  V30 45 1 3 40
M  V30 46 1 5 41
M  V30 47 1 5 42
M  V30 48 1 7 43
M  V30 49 1 7 44
M  V30 50 1 8 45
M  V30 51 1 8 46
M  V30 52 1 13 47
M  V30 53 1 16 48
M  V30 54 1 19 49
M  V30 55 1 20 50
M  V30 56 1 21 51
M  V30 57 1 24 52
M  V30 58 1 24 53
M  V30 59 1 25 54
M  V30 60 1 25 55
M  V30 61 1 27 56
M  V30 62 1 27 57
M  V30 63 1 27 58
M  V30 64 1 28 59
M  V30 65 1 28 60
M  V30 66 1 29 61
M  V30 67 1 29 62
M  V30 68 1 30 63
M  V30 69 1 33 64
M  V30 70 1 33 65
M  V30 71 1 34 66
M  V30 72 1 34 67
M  V30 END BOND
M  V30 END CTAB
M  END
>  <Dataset>  (808) 
ChEMBL_Kinases

>  <Ligand_Instance>  (808) 
nan

>  <PDB_ID>  (808) 
nan

>  <Standardized_SMILES>  (808) 
Cc1cc(CN2CCN(c3c(Cl)cnc4[nH]c(-c5cccc(N6CCN(C)CC6)c5)nc34)CC2)no1

>  <Name>  (808) 
nan

>  <Pocket>  (808) 
nan

>  <ATP_Site>  (808) 
nan

>  <Peripheral>  (808) 
nan

>  <Num_H_Atoms_ProtBoundConf>  (808) 
nan

>  <Num_Resolved_Atoms>  (808) 
nan

>  <Num_Not_Resolved_Atoms>  (808) 
nan

$$$$
CHEMBL2203774
     RDKit          3D

  0  0  0  0  0  0  0  0  0  0999 V3000
M  V30 BEGIN CTAB
M  V30 COUNTS 66 71 0 0 0
M  V30 BEGIN ATOM
M  V30 1 C 3.881448 -1.574814 5.884861 0
M  V30 2 C 3.322547 -0.835426 4.699641 0
M  V30 3 C 4.062747 -0.123809 3.774959 0
M  V30 4 C 3.074482 0.352269 2.905599 0
M  V30 5 C 3.292607 1.193528 1.701414 0
M  V30 6 N 3.250645 2.592122 1.980184 0
M  V30 7 C 1.995532 2.998896 2.521349 0
M  V30 8 C 1.292347 4.039373 1.676013 0
M  V30 9 N 1.251769 3.570627 0.290864 0
M  V30 10 C 0.106919 3.453801 -0.550658 0
M  V30 11 C -0.306822 4.512607 -1.361625 0
M  V30 12 Cl 0.648916 5.991593 -1.295469 0
M  V30 13 C -1.430868 4.360309 -2.170324 0
M  V30 14 N -2.111194 3.189737 -2.163235 0
M  V30 15 C -1.742570 2.149094 -1.395884 0
M  V30 16 N -2.271497 0.899554 -1.233986 0
M  V30 17 C -1.502062 0.258777 -0.337362 0
M  V30 18 C -1.633482 -1.100652 0.185924 0
M  V30 19 C -0.769995 -1.651060 1.113573 0
M  V30 20 C -0.906518 -2.936036 1.598699 0
M  V30 21 C -1.962472 -3.684447 1.118903 0
M  V30 22 C -2.874043 -3.187849 0.178556 0
M  V30 23 C -3.924922 -4.118961 -0.213190 0
M  V30 24 N -3.683035 -4.961990 -1.308832 0
M  V30 25 C -3.415245 -4.379147 -2.559133 0
M  V30 26 C -2.572117 -5.170900 -3.503826 0
M  V30 27 O -2.861781 -6.512522 -3.385170 0
M  V30 28 C -2.410541 -6.909987 -2.123804 0
M  V30 29 C -3.309353 -6.295288 -1.084170 0
M  V30 30 C -2.681753 -1.891033 -0.268517 0
M  V30 31 N -0.515728 1.093713 0.049297 0
M  V30 32 C -0.627828 2.285221 -0.587044 0
M  V30 33 C 2.552835 3.188381 -0.255333 0
M  V30 34 C 3.625811 3.316344 0.787602 0
M  V30 35 N 1.852783 -0.079008 3.335327 0
M  V30 36 O 2.040221 -0.795638 4.424197 0
M  V30 37 H 3.555722 -2.626810 5.784906 0
M  V30 38 H 3.420515 -1.198887 6.827398 0
M  V30 39 H 4.962115 -1.426613 5.976221 0
M  V30 40 H 5.122077 0.033232 3.722345 0
M  V30 41 H 4.288799 0.946004 1.282569 0
M  V30 42 H 2.538648 0.858044 0.947166 0
M  V30 43 H 2.228991 3.536258 3.486766 0
M  V30 44 H 1.311970 2.179495 2.815871 0
M  V30 45 H 0.215801 3.999278 2.014645 0
M  V30 46 H 1.742847 5.032910 1.773110 0
M  V30 47 H -1.725657 5.208774 -2.791462 0
M  V30 48 H -3.122911 0.489027 -1.710622 0
M  V30 49 H 0.019006 -0.975615 1.418470 0
M  V30 50 H -0.201903 -3.317169 2.324340 0
M  V30 51 H -2.032901 -4.684992 1.524552 0
M  V30 52 H -4.832759 -3.494068 -0.460237 0
M  V30 53 H -4.251388 -4.749308 0.645915 0
M  V30 54 H -2.995054 -3.336458 -2.534578 0
M  V30 55 H -4.410672 -4.240058 -3.076996 0
M  V30 56 H -2.822816 -4.854933 -4.556761 0
M  V30 57 H -1.483490 -4.998528 -3.405482 0
M  V30 58 H -1.353840 -6.581330 -1.935760 0
M  V30 59 H -2.432400 -7.996683 -2.026113 0
M  V30 60 H -4.245435 -6.916444 -1.074042 0
M  V30 61 H -2.801512 -6.427651 -0.110144 0
M  V30 62 H -3.404049 -1.541187 -0.993566 0
M  V30 63 H 2.782114 3.798764 -1.153202 0
M  V30 64 H 2.436903 2.149272 -0.627739 0
M  V30 65 H 4.570588 2.952476 0.351861 0
M  V30 66 H 3.739690 4.371517 1.048404 0
M  V30 END ATOM
M  V30 BEGIN BOND
M  V30 1 1 1 2
M  V30 2 2 2 3
M  V30 3 1 3 4
M  V30 4 1 4 5
M  V30 5 1 5 6
M  V30 6 1 6 7
M  V30 7 1 7 8
M  V30 8 1 8 9
M  V30 9 1 9 10
M  V30 10 2 10 11
M  V30 11 1 11 12
M  V30 12 1 11 13
M  V30 13 2 13 14
M  V30 14 1 14 15
M  V30 15 1 15 16
M  V30 16 1 16 17
M  V30 17 1 17 18
M  V30 18 2 18 19
M  V30 19 1 19 20
M  V30 20 2 20 21
M  V30 21 1 21 22
M  V30 22 1 22 23
M  V30 23 1 23 24
M  V30 24 1 24 25
M  V30 25 1 25 26
M  V30 26 1 26 27
M  V30 27 1 27 28
M  V30 28 1 28 29
M  V30 29 2 22 30
M  V30 30 2 17 31
M  V30 31 1 31 32
M  V30 32 1 9 33
M  V30 33 1 33 34
M  V30 34 2 4 35
M  V30 35 1 35 36
M  V30 36 1 36 2
M  V30 37 1 34 6
M  V30 38 1 32 10
M  V30 39 2 32 15
M  V30 40 1 30 18
M  V30 41 1 29 24
M  V30 42 1 1 37
M  V30 43 1 1 38
M  V30 44 1 1 39
M  V30 45 1 3 40
M  V30 46 1 5 41
M  V30 47 1 5 42
M  V30 48 1 7 43
M  V30 49 1 7 44
M  V30 50 1 8 45
M  V30 51 1 8 46
M  V30 52 1 13 47
M  V30 53 1 16 48
M  V30 54 1 19 49
M  V30 55 1 20 50
M  V30 56 1 21 51
M  V30 57 1 23 52
M  V30 58 1 23 53
M  V30 59 1 25 54
M  V30 60 1 25 55
M  V30 61 1 26 56
M  V30 62 1 26 57
M  V30 63 1 28 58
M  V30 64 1 28 59
M  V30 65 1 29 60
M  V30 66 1 29 61
M  V30 67 1 30 62
M  V30 68 1 33 63
M  V30 69 1 33 64
M  V30 70 1 34 65
M  V30 71 1 34 66
M  V30 END BOND
M  V30 END CTAB
M  END
>  <Dataset>  (809) 
ChEMBL_Kinases

>  <Ligand_Instance>  (809) 
nan

>  <PDB_ID>  (809) 
nan

>  <Standardized_SMILES>  (809) 
Cc1cc(CN2CCN(c3c(Cl)cnc4[nH]c(-c5cccc(CN6CCOCC6)c5)nc34)CC2)no1

>  <Name>  (809) 
nan

>  <Pocket>  (809) 
nan

>  <ATP_Site>  (809) 
nan

>  <Peripheral>  (809) 
nan

>  <Num_H_Atoms_ProtBoundConf>  (809) 
nan

>  <Num_Resolved_Atoms>  (809) 
nan

>  <Num_Not_Resolved_Atoms>  (809) 
nan

$$$$
CHEMBL2203773
     RDKit          3D

  0  0  0  0  0  0  0  0  0  0999 V3000
M  V30 BEGIN CTAB
M  V30 COUNTS 61 65 0 0 0
M  V30 BEGIN ATOM
M  V30 1 C 6.706148 -3.955337 1.609230 0
M  V30 2 C 5.257227 -3.830248 1.896212 0
M  V30 3 C 4.739984 -2.961474 2.840921 0
M  V30 4 C 3.354507 -3.099028 2.852821 0
M  V30 5 C 2.439204 -2.328854 3.740488 0
M  V30 6 N 1.998468 -1.102003 3.148359 0
M  V30 7 C 3.021433 -0.174948 2.803893 0
M  V30 8 C 2.379970 1.210129 2.633534 0
M  V30 9 N 1.265153 1.176586 1.724239 0
M  V30 10 C 0.405612 2.274793 1.503934 0
M  V30 11 C 0.584179 3.495912 2.104578 0
M  V30 12 Cl 1.906378 3.871628 3.178256 0
M  V30 13 C -0.243081 4.580836 1.928338 0
M  V30 14 N -1.325718 4.473699 1.106822 0
M  V30 15 C -1.554156 3.298842 0.487610 0
M  V30 16 N -2.547811 2.974309 -0.351211 0
M  V30 17 C -2.365604 1.693780 -0.713422 0
M  V30 18 C -3.197316 0.897940 -1.617062 0
M  V30 19 C -4.290370 1.547688 -2.151557 0
M  V30 20 C -5.077315 0.784520 -3.009602 0
M  V30 21 C -4.780266 -0.531469 -3.302409 0
M  V30 22 C -3.656844 -1.142184 -2.731107 0
M  V30 23 C -3.275721 -2.554763 -2.999872 0
M  V30 24 N -3.875023 -3.472894 -2.066490 0
M  V30 25 C -3.503900 -3.215651 -0.696565 0
M  V30 26 C -3.658920 -4.824589 -2.471613 0
M  V30 27 C -2.849694 -0.412512 -1.871484 0
M  V30 28 N -1.261444 1.286984 -0.076757 0
M  V30 29 C -0.703497 2.235329 0.689209 0
M  V30 30 C 1.188567 -0.106580 1.083897 0
M  V30 31 C 1.072385 -1.248992 2.063711 0
M  V30 32 N 3.108376 -4.044385 1.913780 0
M  V30 33 O 4.220626 -4.444728 1.382282 0
M  V30 34 H 7.220420 -2.965524 1.607491 0
M  V30 35 H 7.234308 -4.580420 2.356543 0
M  V30 36 H 6.890099 -4.427605 0.612549 0
M  V30 37 H 5.281907 -2.285432 3.472095 0
M  V30 38 H 1.514890 -2.971971 3.831201 0
M  V30 39 H 2.852049 -2.183972 4.736860 0
M  V30 40 H 3.516289 -0.462064 1.863808 0
M  V30 41 H 3.826412 -0.111038 3.578401 0
M  V30 42 H 3.136525 1.905375 2.242649 0
M  V30 43 H 2.036935 1.491950 3.660096 0
M  V30 44 H -0.143141 5.555484 2.377610 0
M  V30 45 H -3.323624 3.618858 -0.660568 0
M  V30 46 H -4.531959 2.576671 -1.929274 0
M  V30 47 H -5.943034 1.251866 -3.451416 0
M  V30 48 H -5.374513 -1.149096 -3.966249 0
M  V30 49 H -2.173910 -2.643591 -2.905534 0
M  V30 50 H -3.525486 -2.871771 -4.019701 0
M  V30 51 H -2.395762 -3.294433 -0.661975 0
M  V30 52 H -3.938938 -4.037531 -0.086598 0
M  V30 53 H -3.869720 -2.217682 -0.404334 0
M  V30 54 H -2.641230 -5.135606 -2.130812 0
M  V30 55 H -3.629220 -4.850617 -3.591620 0
M  V30 56 H -4.429956 -5.466805 -2.046389 0
M  V30 57 H -1.973063 -0.860340 -1.414468 0
M  V30 58 H 0.405954 -0.182776 0.292458 0
M  V30 59 H 2.145843 -0.199118 0.484031 0
M  V30 60 H 0.037441 -1.322222 2.477280 0
M  V30 61 H 1.285132 -2.193541 1.478331 0
M  V30 END ATOM
M  V30 BEGIN BOND
M  V30 1 1 1 2
M  V30 2 2 2 3
M  V30 3 1 3 4
M  V30 4 1 4 5
M  V30 5 1 5 6
M  V30 6 1 6 7
M  V30 7 1 7 8
M  V30 8 1 8 9
M  V30 9 1 9 10
M  V30 10 2 10 11
M  V30 11 1 11 12
M  V30 12 1 11 13
M  V30 13 2 13 14
M  V30 14 1 14 15
M  V30 15 1 15 16
M  V30 16 1 16 17
M  V30 17 1 17 18
M  V30 18 2 18 19
M  V30 19 1 19 20
M  V30 20 2 20 21
M  V30 21 1 21 22
M  V30 22 1 22 23
M  V30 23 1 23 24
M  V30 24 1 24 25
M  V30 25 1 24 26
M  V30 26 2 22 27
M  V30 27 2 17 28
M  V30 28 1 28 29
M  V30 29 1 9 30
M  V30 30 1 30 31
M  V30 31 2 4 32
M  V30 32 1 32 33
M  V30 33 1 33 2
M  V30 34 1 31 6
M  V30 35 1 29 10
M  V30 36 2 29 15
M  V30 37 1 27 18
M  V30 38 1 1 34
M  V30 39 1 1 35
M  V30 40 1 1 36
M  V30 41 1 3 37
M  V30 42 1 5 38
M  V30 43 1 5 39
M  V30 44 1 7 40
M  V30 45 1 7 41
M  V30 46 1 8 42
M  V30 47 1 8 43
M  V30 48 1 13 44
M  V30 49 1 16 45
M  V30 50 1 19 46
M  V30 51 1 20 47
M  V30 52 1 21 48
M  V30 53 1 23 49
M  V30 54 1 23 50
M  V30 55 1 25 51
M  V30 56 1 25 52
M  V30 57 1 25 53
M  V30 58 1 26 54
M  V30 59 1 26 55
M  V30 60 1 26 56
M  V30 61 1 27 57
M  V30 62 1 30 58
M  V30 63 1 30 59
M  V30 64 1 31 60
M  V30 65 1 31 61
M  V30 END BOND
M  V30 END CTAB
M  END
>  <Dataset>  (810) 
ChEMBL_Kinases

>  <Ligand_Instance>  (810) 
nan

>  <PDB_ID>  (810) 
nan

>  <Standardized_SMILES>  (810) 
Cc1cc(CN2CCN(c3c(Cl)cnc4[nH]c(-c5cccc(CN(C)C)c5)nc34)CC2)no1

>  <Name>  (810) 
nan

>  <Pocket>  (810) 
nan

>  <ATP_Site>  (810) 
nan

>  <Peripheral>  (810) 
nan

>  <Num_H_Atoms_ProtBoundConf>  (810) 
nan

>  <Num_Resolved_Atoms>  (810) 
nan

>  <Num_Not_Resolved_Atoms>  (810) 
nan

$$$$
CHEMBL2203772
     RDKit          3D

  0  0  0  0  0  0  0  0  0  0999 V3000
M  V30 BEGIN CTAB
M  V30 COUNTS 65 69 0 0 0
M  V30 BEGIN ATOM
M  V30 1 C 1.812803 -1.321393 1.339660 0
M  V30 2 C 2.359508 0.036791 1.192479 0
M  V30 3 C 2.689350 0.775435 0.079974 0
M  V30 4 C 3.155035 1.978562 0.535662 0
M  V30 5 C 3.644669 3.147347 -0.224050 0
M  V30 6 N 2.671418 4.115734 -0.571343 0
M  V30 7 C 1.647715 3.619487 -1.390580 0
M  V30 8 C 0.304694 3.350556 -0.737467 0
M  V30 9 N 0.361292 3.779425 0.646827 0
M  V30 10 C -0.015338 2.995496 1.739752 0
M  V30 11 C 0.079888 3.371400 3.057556 0
M  V30 12 Cl 0.750731 4.900187 3.528650 0
M  V30 13 C -0.302398 2.626723 4.150138 0
M  V30 14 N -0.832157 1.386061 3.928253 0
M  V30 15 C -0.947253 0.969503 2.659809 0
M  V30 16 N -1.440738 -0.209400 2.255331 0
M  V30 17 C -1.376605 -0.223122 0.916061 0
M  V30 18 C -1.782498 -1.260155 -0.034063 0
M  V30 19 C -1.604912 -1.055951 -1.393356 0
M  V30 20 C -1.969287 -1.992758 -2.333627 0
M  V30 21 C -2.521323 -3.145520 -1.837456 0
M  V30 22 C -2.743876 -3.456184 -0.520135 0
M  V30 23 O -3.265237 -4.526527 0.131162 0
M  V30 24 C -3.746484 -5.712476 -0.326763 0
M  V30 25 C -2.702339 -6.543703 -1.009995 0
M  V30 26 N -1.588791 -6.903344 -0.185831 0
M  V30 27 C -0.720420 -5.843687 0.194374 0
M  V30 28 C -1.873228 -7.832461 0.864248 0
M  V30 29 C -2.347748 -2.453666 0.382330 0
M  V30 30 N -0.847524 0.944885 0.549067 0
M  V30 31 C -0.556703 1.735467 1.585086 0
M  V30 32 C 0.855191 5.139149 0.615606 0
M  V30 33 C 2.356432 5.012532 0.483042 0
M  V30 34 N 3.080321 1.898088 1.897030 0
M  V30 35 O 2.613371 0.754426 2.237069 0
M  V30 36 H 1.320512 -1.699055 0.421051 0
M  V30 37 H 2.652555 -2.022417 1.558915 0
M  V30 38 H 1.125817 -1.408845 2.219115 0
M  V30 39 H 2.588815 0.439181 -0.929497 0
M  V30 40 H 4.256528 2.793699 -1.093613 0
M  V30 41 H 4.419031 3.643405 0.438735 0
M  V30 42 H 1.981897 2.595464 -1.748708 0
M  V30 43 H 1.546138 4.183276 -2.363328 0
M  V30 44 H -0.398556 4.089888 -1.249204 0
M  V30 45 H -0.103292 2.394101 -0.964140 0
M  V30 46 H -0.228427 2.919359 5.183762 0
M  V30 47 H -1.812585 -0.990842 2.836818 0
M  V30 48 H -1.163949 -0.125961 -1.739184 0
M  V30 49 H -1.854414 -1.888041 -3.401310 0
M  V30 50 H -2.836739 -3.896139 -2.539868 0
M  V30 51 H -4.571807 -5.539143 -1.093709 0
M  V30 52 H -4.269807 -6.301424 0.479905 0
M  V30 53 H -2.321615 -6.023075 -1.904823 0
M  V30 54 H -3.227219 -7.471587 -1.379591 0
M  V30 55 H -1.111556 -5.251451 1.048597 0
M  V30 56 H -0.457622 -5.167050 -0.651835 0
M  V30 57 H 0.238075 -6.325402 0.564590 0
M  V30 58 H -2.000444 -7.379611 1.858021 0
M  V30 59 H -2.793991 -8.383734 0.584159 0
M  V30 60 H -1.020746 -8.566889 0.884694 0
M  V30 61 H -2.445268 -2.519981 1.475620 0
M  V30 62 H 0.562691 5.696223 -0.339039 0
M  V30 63 H 0.487754 5.827520 1.354744 0
M  V30 64 H 2.713058 6.066412 0.282726 0
M  V30 65 H 2.846545 4.647406 1.406692 0
M  V30 END ATOM
M  V30 BEGIN BOND
M  V30 1 1 1 2
M  V30 2 2 2 3
M  V30 3 1 3 4
M  V30 4 1 4 5
M  V30 5 1 5 6
M  V30 6 1 6 7
M  V30 7 1 7 8
M  V30 8 1 8 9
M  V30 9 1 9 10
M  V30 10 2 10 11
M  V30 11 1 11 12
M  V30 12 1 11 13
M  V30 13 2 13 14
M  V30 14 1 14 15
M  V30 15 1 15 16
M  V30 16 1 16 17
M  V30 17 1 17 18
M  V30 18 2 18 19
M  V30 19 1 19 20
M  V30 20 2 20 21
M  V30 21 1 21 22
M  V30 22 1 22 23
M  V30 23 1 23 24
M  V30 24 1 24 25
M  V30 25 1 25 26
M  V30 26 1 26 27
M  V30 27 1 26 28
M  V30 28 2 22 29
M  V30 29 2 17 30
M  V30 30 1 30 31
M  V30 31 1 9 32
M  V30 32 1 32 33
M  V30 33 2 4 34
M  V30 34 1 34 35
M  V30 35 1 35 2
M  V30 36 1 33 6
M  V30 37 1 31 10
M  V30 38 2 31 15
M  V30 39 1 29 18
M  V30 40 1 1 36
M  V30 41 1 1 37
M  V30 42 1 1 38
M  V30 43 1 3 39
M  V30 44 1 5 40
M  V30 45 1 5 41
M  V30 46 1 7 42
M  V30 47 1 7 43
M  V30 48 1 8 44
M  V30 49 1 8 45
M  V30 50 1 13 46
M  V30 51 1 16 47
M  V30 52 1 19 48
M  V30 53 1 20 49
M  V30 54 1 21 50
M  V30 55 1 24 51
M  V30 56 1 24 52
M  V30 57 1 25 53
M  V30 58 1 25 54
M  V30 59 1 27 55
M  V30 60 1 27 56
M  V30 61 1 27 57
M  V30 62 1 28 58
M  V30 63 1 28 59
M  V30 64 1 28 60
M  V30 65 1 29 61
M  V30 66 1 32 62
M  V30 67 1 32 63
M  V30 68 1 33 64
M  V30 69 1 33 65
M  V30 END BOND
M  V30 END CTAB
M  END
>  <Dataset>  (811) 
ChEMBL_Kinases

>  <Ligand_Instance>  (811) 
nan

>  <PDB_ID>  (811) 
nan

>  <Standardized_SMILES>  (811) 
Cc1cc(CN2CCN(c3c(Cl)cnc4[nH]c(-c5cccc(OCCN(C)C)c5)nc34)CC2)no1

>  <Name>  (811) 
nan

>  <Pocket>  (811) 
nan

>  <ATP_Site>  (811) 
nan

>  <Peripheral>  (811) 
nan

>  <Num_H_Atoms_ProtBoundConf>  (811) 
nan

>  <Num_Resolved_Atoms>  (811) 
nan

>  <Num_Not_Resolved_Atoms>  (811) 
nan

$$$$
CHEMBL2203771
     RDKit          3D

  0  0  0  0  0  0  0  0  0  0999 V3000
M  V30 BEGIN CTAB
M  V30 COUNTS 67 72 0 0 0
M  V30 BEGIN ATOM
M  V30 1 C 3.149424 -3.261023 3.350072 0
M  V30 2 C 3.877018 -1.987945 3.032822 0
M  V30 3 C 3.400201 -0.717809 3.368215 0
M  V30 4 C 4.321800 0.204273 2.923731 0
M  V30 5 C 4.263235 1.695179 3.036060 0
M  V30 6 N 3.634545 2.290200 1.890812 0
M  V30 7 C 2.254976 1.795917 1.778899 0
M  V30 8 C 1.371797 2.918819 1.269883 0
M  V30 9 N 2.055247 3.610043 0.217288 0
M  V30 10 C 1.685366 3.433777 -1.129271 0
M  V30 11 C 2.171635 4.103185 -2.228666 0
M  V30 12 Cl 3.302912 5.403164 -2.020885 0
M  V30 13 C 1.848509 3.891257 -3.550121 0
M  V30 14 N 0.939463 2.904563 -3.817017 0
M  V30 15 C 0.423655 2.209346 -2.772829 0
M  V30 16 N -0.459738 1.222914 -2.904637 0
M  V30 17 C -0.712075 0.790420 -1.662827 0
M  V30 18 C -1.601319 -0.277756 -1.221139 0
M  V30 19 C -2.333660 -1.012239 -2.132554 0
M  V30 20 C -3.161224 -2.017389 -1.684199 0
M  V30 21 C -3.319681 -2.356093 -0.363284 0
M  V30 22 N -4.178472 -3.399757 0.059771 0
M  V30 23 C -5.024910 -4.155765 -0.835139 0
M  V30 24 C -4.447104 -5.541052 -0.938888 0
M  V30 25 N -3.600304 -5.844769 0.161496 0
M  V30 26 C -3.513133 -7.300383 0.265865 0
M  V30 27 C -4.071871 -5.358305 1.437221 0
M  V30 28 C -4.331998 -3.868570 1.420200 0
M  V30 29 C -2.577047 -1.606266 0.518752 0
M  V30 30 C -1.735544 -0.590043 0.113850 0
M  V30 31 F -1.009965 0.141862 0.985597 0
M  V30 32 N 0.027101 1.532048 -0.835566 0
M  V30 33 C 0.770502 2.448614 -1.460207 0
M  V30 34 C 3.132360 4.409795 0.763085 0
M  V30 35 C 3.636858 3.722984 2.024182 0
M  V30 36 N 5.297588 -0.522646 2.351380 0
M  V30 37 O 5.019179 -1.786350 2.425959 0
M  V30 38 H 3.342261 -3.954564 2.508373 0
M  V30 39 H 3.557291 -3.728379 4.270505 0
M  V30 40 H 2.054065 -3.049574 3.464521 0
M  V30 41 H 2.474093 -0.549745 3.883201 0
M  V30 42 H 5.283618 2.128581 3.150141 0
M  V30 43 H 3.760294 1.926454 4.006520 0
M  V30 44 H 1.960411 1.505530 2.806207 0
M  V30 45 H 2.269244 0.905669 1.156644 0
M  V30 46 H 1.282476 3.636593 2.149541 0
M  V30 47 H 0.338357 2.632704 1.082416 0
M  V30 48 H 2.244571 4.427756 -4.378909 0
M  V30 49 H -0.911999 0.807905 -3.738917 0
M  V30 50 H -2.219681 -0.759364 -3.170765 0
M  V30 51 H -3.678646 -2.522212 -2.464485 0
M  V30 52 H -6.057547 -4.198307 -0.382667 0
M  V30 53 H -5.186756 -3.690007 -1.820617 0
M  V30 54 H -5.237630 -6.308237 -1.107221 0
M  V30 55 H -3.801316 -5.560168 -1.859444 0
M  V30 56 H -2.898083 -7.726181 -0.543108 0
M  V30 57 H -3.096199 -7.514284 1.274252 0
M  V30 58 H -4.562314 -7.668315 0.277893 0
M  V30 59 H -3.242247 -5.529386 2.172339 0
M  V30 60 H -4.938322 -5.928395 1.825605 0
M  V30 61 H -5.411011 -3.734407 1.726784 0
M  V30 62 H -3.725906 -3.314961 2.131644 0
M  V30 63 H -2.601489 -1.756322 1.578250 0
M  V30 64 H 4.005569 4.518792 0.082302 0
M  V30 65 H 2.697031 5.365255 1.098092 0
M  V30 66 H 4.719691 4.014759 2.156282 0
M  V30 67 H 3.085607 3.998393 2.931484 0
M  V30 END ATOM
M  V30 BEGIN BOND
M  V30 1 1 1 2
M  V30 2 2 2 3
M  V30 3 1 3 4
M  V30 4 1 4 5
M  V30 5 1 5 6
M  V30 6 1 6 7
M  V30 7 1 7 8
M  V30 8 1 8 9
M  V30 9 1 9 10
M  V30 10 2 10 11
M  V30 11 1 11 12
M  V30 12 1 11 13
M  V30 13 2 13 14
M  V30 14 1 14 15
M  V30 15 1 15 16
M  V30 16 1 16 17
M  V30 17 1 17 18
M  V30 18 2 18 19
M  V30 19 1 19 20
M  V30 20 2 20 21
M  V30 21 1 21 22
M  V30 22 1 22 23
M  V30 23 1 23 24
M  V30 24 1 24 25
M  V30 25 1 25 26
M  V30 26 1 25 27
M  V30 27 1 27 28
M  V30 28 1 21 29
M  V30 29 2 29 30
M  V30 30 1 30 31
M  V30 31 2 17 32
M  V30 32 1 32 33
M  V30 33 1 9 34
M  V30 34 1 34 35
M  V30 35 2 4 36
M  V30 36 1 36 37
M  V30 37 1 37 2
M  V30 38 1 35 6
M  V30 39 1 33 10
M  V30 40 2 33 15
M  V30 41 1 30 18
M  V30 42 1 28 22
M  V30 43 1 1 38
M  V30 44 1 1 39
M  V30 45 1 1 40
M  V30 46 1 3 41
M  V30 47 1 5 42
M  V30 48 1 5 43
M  V30 49 1 7 44
M  V30 50 1 7 45
M  V30 51 1 8 46
M  V30 52 1 8 47
M  V30 53 1 13 48
M  V30 54 1 16 49
M  V30 55 1 19 50
M  V30 56 1 20 51
M  V30 57 1 23 52
M  V30 58 1 23 53
M  V30 59 1 24 54
M  V30 60 1 24 55
M  V30 61 1 26 56
M  V30 62 1 26 57
M  V30 63 1 26 58
M  V30 64 1 27 59
M  V30 65 1 27 60
M  V30 66 1 28 61
M  V30 67 1 28 62
M  V30 68 1 29 63
M  V30 69 1 34 64
M  V30 70 1 34 65
M  V30 71 1 35 66
M  V30 72 1 35 67
M  V30 END BOND
M  V30 END CTAB
M  END
>  <Dataset>  (812) 
ChEMBL_Kinases

>  <Ligand_Instance>  (812) 
nan

>  <PDB_ID>  (812) 
nan

>  <Standardized_SMILES>  (812) 
Cc1cc(CN2CCN(c3c(Cl)cnc4[nH]c(-c5ccc(N6CCN(C)CC6)cc5F)nc34)CC2)no1

>  <Name>  (812) 
nan

>  <Pocket>  (812) 
nan

>  <ATP_Site>  (812) 
nan

>  <Peripheral>  (812) 
nan

>  <Num_H_Atoms_ProtBoundConf>  (812) 
nan

>  <Num_Resolved_Atoms>  (812) 
nan

>  <Num_Not_Resolved_Atoms>  (812) 
nan

$$$$
CHEMBL2203770
     RDKit          3D

  0  0  0  0  0  0  0  0  0  0999 V3000
M  V30 BEGIN CTAB
M  V30 COUNTS 67 72 0 0 0
M  V30 BEGIN ATOM
M  V30 1 C 4.478419 -1.759715 6.365607 0
M  V30 2 C 4.187293 -1.129749 5.058068 0
M  V30 3 C 4.412538 0.211078 4.782748 0
M  V30 4 C 4.006488 0.389178 3.451980 0
M  V30 5 C 4.057039 1.656002 2.709725 0
M  V30 6 N 2.849583 2.452779 2.826164 0
M  V30 7 C 1.695306 1.809789 2.356811 0
M  V30 8 C 0.669063 2.705367 1.716524 0
M  V30 9 N 1.315626 3.656933 0.836199 0
M  V30 10 C 1.171884 3.585327 -0.573400 0
M  V30 11 C 1.717782 4.448379 -1.481167 0
M  V30 12 Cl 2.689188 5.815467 -0.994082 0
M  V30 13 C 1.598659 4.380274 -2.851431 0
M  V30 14 N 0.870362 3.361409 -3.374539 0
M  V30 15 C 0.318263 2.489873 -2.479746 0
M  V30 16 N -0.419361 1.437450 -2.862097 0
M  V30 17 C -0.786520 0.810871 -1.737482 0
M  V30 18 C -1.596217 -0.389816 -1.598214 0
M  V30 19 C -2.102685 -1.053386 -2.692074 0
M  V30 20 C -2.875532 -2.200142 -2.562470 0
M  V30 21 C -3.176963 -2.735399 -1.332230 0
M  V30 22 N -3.983704 -3.899816 -1.274456 0
M  V30 23 C -4.361605 -4.674323 -2.425558 0
M  V30 24 C -4.097581 -6.126956 -2.150769 0
M  V30 25 N -3.205779 -6.321798 -1.027164 0
M  V30 26 C -2.988090 -7.735459 -0.791097 0
M  V30 27 C -3.766117 -5.765887 0.196026 0
M  V30 28 C -4.580149 -4.521024 -0.110738 0
M  V30 29 C -2.652880 -2.044217 -0.264519 0
M  V30 30 F -2.875035 -2.481141 0.983222 0
M  V30 31 C -1.884036 -0.905972 -0.355123 0
M  V30 32 N -0.258050 1.510281 -0.760841 0
M  V30 33 C 0.444615 2.568802 -1.110790 0
M  V30 34 C 2.055900 4.534266 1.709667 0
M  V30 35 C 3.130938 3.761669 2.411793 0
M  V30 36 N 3.573487 -0.822966 3.019607 0
M  V30 37 O 3.686459 -1.701498 3.973531 0
M  V30 38 H 5.481872 -1.519973 6.760383 0
M  V30 39 H 4.425586 -2.873887 6.220375 0
M  V30 40 H 3.737008 -1.535516 7.146205 0
M  V30 41 H 4.820311 0.985098 5.448507 0
M  V30 42 H 4.949027 2.213840 3.063440 0
M  V30 43 H 4.219242 1.472392 1.623412 0
M  V30 44 H 1.145193 1.195195 3.113983 0
M  V30 45 H 1.998483 1.063341 1.567448 0
M  V30 46 H 0.232866 3.314647 2.574187 0
M  V30 47 H -0.192828 2.184783 1.323059 0
M  V30 48 H 2.035470 5.069706 -3.558970 0
M  V30 49 H -0.698872 1.101256 -3.808484 0
M  V30 50 H -1.842776 -0.599915 -3.646007 0
M  V30 51 H -3.173532 -2.562825 -3.515459 0
M  V30 52 H -5.466863 -4.576133 -2.536094 0
M  V30 53 H -3.930697 -4.378740 -3.376492 0
M  V30 54 H -5.016996 -6.724583 -1.996423 0
M  V30 55 H -3.578644 -6.575621 -3.025361 0
M  V30 56 H -1.934866 -8.038285 -1.003409 0
M  V30 57 H -3.188104 -8.016889 0.268421 0
M  V30 58 H -3.691443 -8.312739 -1.454973 0
M  V30 59 H -2.910731 -5.444758 0.823862 0
M  V30 60 H -4.322396 -6.540119 0.721814 0
M  V30 61 H -4.595440 -3.836780 0.730502 0
M  V30 62 H -5.620437 -4.910569 -0.316460 0
M  V30 63 H -1.496252 -0.400375 0.515311 0
M  V30 64 H 2.454806 5.444966 1.300858 0
M  V30 65 H 1.354553 4.874920 2.542019 0
M  V30 66 H 4.004717 3.753460 1.717745 0
M  V30 67 H 3.493918 4.357954 3.293692 0
M  V30 END ATOM
M  V30 BEGIN BOND
M  V30 1 1 1 2
M  V30 2 2 2 3
M  V30 3 1 3 4
M  V30 4 1 4 5
M  V30 5 1 5 6
M  V30 6 1 6 7
M  V30 7 1 7 8
M  V30 8 1 8 9
M  V30 9 1 9 10
M  V30 10 2 10 11
M  V30 11 1 11 12
M  V30 12 1 11 13
M  V30 13 2 13 14
M  V30 14 1 14 15
M  V30 15 1 15 16
M  V30 16 1 16 17
M  V30 17 1 17 18
M  V30 18 2 18 19
M  V30 19 1 19 20
M  V30 20 2 20 21
M  V30 21 1 21 22
M  V30 22 1 22 23
M  V30 23 1 23 24
M  V30 24 1 24 25
M  V30 25 1 25 26
M  V30 26 1 25 27
M  V30 27 1 27 28
M  V30 28 1 21 29
M  V30 29 1 29 30
M  V30 30 2 29 31
M  V30 31 2 17 32
M  V30 32 1 32 33
M  V30 33 1 9 34
M  V30 34 1 34 35
M  V30 35 2 4 36
M  V30 36 1 36 37
M  V30 37 1 37 2
M  V30 38 1 35 6
M  V30 39 1 33 10
M  V30 40 2 33 15
M  V30 41 1 31 18
M  V30 42 1 28 22
M  V30 43 1 1 38
M  V30 44 1 1 39
M  V30 45 1 1 40
M  V30 46 1 3 41
M  V30 47 1 5 42
M  V30 48 1 5 43
M  V30 49 1 7 44
M  V30 50 1 7 45
M  V30 51 1 8 46
M  V30 52 1 8 47
M  V30 53 1 13 48
M  V30 54 1 16 49
M  V30 55 1 19 50
M  V30 56 1 20 51
M  V30 57 1 23 52
M  V30 58 1 23 53
M  V30 59 1 24 54
M  V30 60 1 24 55
M  V30 61 1 26 56
M  V30 62 1 26 57
M  V30 63 1 26 58
M  V30 64 1 27 59
M  V30 65 1 27 60
M  V30 66 1 28 61
M  V30 67 1 28 62
M  V30 68 1 31 63
M  V30 69 1 34 64
M  V30 70 1 34 65
M  V30 71 1 35 66
M  V30 72 1 35 67
M  V30 END BOND
M  V30 END CTAB
M  END
>  <Dataset>  (813) 
ChEMBL_Kinases

>  <Ligand_Instance>  (813) 
nan

>  <PDB_ID>  (813) 
nan

>  <Standardized_SMILES>  (813) 
Cc1cc(CN2CCN(c3c(Cl)cnc4[nH]c(-c5ccc(N6CCN(C)CC6)c(F)c5)nc34)CC2)no1

>  <Name>  (813) 
nan

>  <Pocket>  (813) 
nan

>  <ATP_Site>  (813) 
nan

>  <Peripheral>  (813) 
nan

>  <Num_H_Atoms_ProtBoundConf>  (813) 
nan

>  <Num_Resolved_Atoms>  (813) 
nan

>  <Num_Not_Resolved_Atoms>  (813) 
nan

$$$$
CHEMBL2203769
     RDKit          3D

  0  0  0  0  0  0  0  0  0  0999 V3000
M  V30 BEGIN CTAB
M  V30 COUNTS 67 72 0 0 0
M  V30 BEGIN ATOM
M  V30 1 C 0.875678 -2.262075 5.296121 0
M  V30 2 C 1.928418 -1.418072 4.675013 0
M  V30 3 C 2.076141 -1.241939 3.316872 0
M  V30 4 C 3.172459 -0.386644 3.180166 0
M  V30 5 C 3.704495 0.083458 1.901118 0
M  V30 6 N 3.106578 1.312185 1.441888 0
M  V30 7 C 3.280292 2.421552 2.337177 0
M  V30 8 C 2.217193 3.465808 1.998816 0
M  V30 9 N 2.048760 3.543455 0.539498 0
M  V30 10 C 0.839396 4.008234 -0.050223 0
M  V30 11 C 0.612679 5.329312 -0.347905 0
M  V30 12 Cl 1.829857 6.519509 -0.004526 0
M  V30 13 C -0.583980 5.680562 -0.915855 0
M  V30 14 N -1.565693 4.807195 -1.205615 0
M  V30 15 C -1.369785 3.490532 -0.921762 0
M  V30 16 N -2.113636 2.357941 -1.071150 0
M  V30 17 C -1.419371 1.298992 -0.612757 0
M  V30 18 C -1.813217 -0.107051 -0.572565 0
M  V30 19 C -1.002925 -1.103392 -0.069722 0
M  V30 20 C -1.400679 -2.423952 -0.047295 0
M  V30 21 C -2.631202 -2.820818 -0.526664 0
M  V30 22 N -3.079172 -4.158181 -0.523095 0
M  V30 23 C -4.340097 -4.644215 -1.066291 0
M  V30 24 C -4.077133 -5.955313 -1.811906 0
M  V30 25 N -2.690868 -5.995911 -2.266530 0
M  V30 26 C -1.803548 -6.063347 -1.120394 0 CFG=1
M  V30 27 C -0.427699 -5.606970 -1.550177 0
M  V30 28 C -2.339039 -5.251529 0.029450 0
M  V30 29 C -3.424586 -1.809449 -1.024294 0
M  V30 30 C -3.065469 -0.477345 -1.065351 0
M  V30 31 N -0.219648 1.746118 -0.163808 0
M  V30 32 C -0.159372 3.093895 -0.341161 0
M  V30 33 C 3.226844 3.101631 -0.141498 0
M  V30 34 C 3.393103 1.613640 0.077642 0
M  V30 35 N 3.617700 -0.098100 4.429217 0
M  V30 36 O 2.855282 -0.727535 5.286301 0
M  V30 37 H 0.541988 -3.078281 4.633378 0
M  V30 38 H -0.029388 -1.689599 5.590268 0
M  V30 39 H 1.294570 -2.678175 6.243827 0
M  V30 40 H 1.466927 -1.679761 2.565979 0
M  V30 41 H 4.791889 0.252578 2.009078 0
M  V30 42 H 3.576088 -0.662574 1.080013 0
M  V30 43 H 3.095114 2.125702 3.384076 0
M  V30 44 H 4.283023 2.878762 2.194877 0
M  V30 45 H 2.449807 4.434625 2.445229 0
M  V30 46 H 1.262044 3.109904 2.440936 0
M  V30 47 H -0.808756 6.717111 -1.169633 0
M  V30 48 H -3.081172 2.320342 -1.481667 0
M  V30 49 H -0.015270 -0.839824 0.323077 0
M  V30 50 H -0.715192 -3.148837 0.359895 0
M  V30 51 H -4.968292 -4.883651 -0.172299 0
M  V30 52 H -4.836169 -3.925133 -1.718694 0
M  V30 53 H -4.762495 -6.065176 -2.681968 0
M  V30 54 H -4.218658 -6.794177 -1.106427 0
M  V30 55 H -2.450398 -5.141329 -2.816012 0
M  V30 56 H -1.719260 -7.104690 -0.808290 0
M  V30 57 H 0.029677 -6.419144 -2.139163 0
M  V30 58 H -0.462899 -4.699065 -2.201911 0
M  V30 59 H 0.239117 -5.443587 -0.663740 0
M  V30 60 H -2.992300 -5.945944 0.635883 0
M  V30 61 H -1.525709 -4.965478 0.728493 0
M  V30 62 H -4.412092 -1.969347 -1.432323 0
M  V30 63 H -3.686048 0.315475 -1.454235 0
M  V30 64 H 3.182583 3.247672 -1.239866 0
M  V30 65 H 4.110014 3.603372 0.296690 0
M  V30 66 H 4.406661 1.259599 -0.211398 0
M  V30 67 H 2.707600 1.046231 -0.618033 0
M  V30 END ATOM
M  V30 BEGIN BOND
M  V30 1 1 1 2
M  V30 2 2 2 3
M  V30 3 1 3 4
M  V30 4 1 4 5
M  V30 5 1 5 6
M  V30 6 1 6 7
M  V30 7 1 7 8
M  V30 8 1 8 9
M  V30 9 1 9 10
M  V30 10 2 10 11
M  V30 11 1 11 12
M  V30 12 1 11 13
M  V30 13 2 13 14
M  V30 14 1 14 15
M  V30 15 1 15 16
M  V30 16 1 16 17
M  V30 17 1 17 18
M  V30 18 2 18 19
M  V30 19 1 19 20
M  V30 20 2 20 21
M  V30 21 1 21 22
M  V30 22 1 22 23
M  V30 23 1 23 24
M  V30 24 1 24 25
M  V30 25 1 25 26
M  V30 26 1 26 27
M  V30 27 1 26 28
M  V30 28 1 21 29
M  V30 29 2 29 30
M  V30 30 2 17 31
M  V30 31 1 31 32
M  V30 32 1 9 33
M  V30 33 1 33 34
M  V30 34 2 4 35
M  V30 35 1 35 36
M  V30 36 1 36 2
M  V30 37 1 34 6
M  V30 38 1 32 10
M  V30 39 2 32 15
M  V30 40 1 30 18
M  V30 41 1 28 22
M  V30 42 1 1 37
M  V30 43 1 1 38
M  V30 44 1 1 39
M  V30 45 1 3 40
M  V30 46 1 5 41
M  V30 47 1 5 42
M  V30 48 1 7 43
M  V30 49 1 7 44
M  V30 50 1 8 45
M  V30 51 1 8 46
M  V30 52 1 13 47
M  V30 53 1 16 48
M  V30 54 1 19 49
M  V30 55 1 20 50
M  V30 56 1 23 51
M  V30 57 1 23 52
M  V30 58 1 24 53
M  V30 59 1 24 54
M  V30 60 1 25 55
M  V30 61 1 26 56 CFG=1
M  V30 62 1 27 57
M  V30 63 1 27 58
M  V30 64 1 27 59
M  V30 65 1 28 60
M  V30 66 1 28 61
M  V30 67 1 29 62
M  V30 68 1 30 63
M  V30 69 1 33 64
M  V30 70 1 33 65
M  V30 71 1 34 66
M  V30 72 1 34 67
M  V30 END BOND
M  V30 END CTAB
M  END
>  <Dataset>  (814) 
ChEMBL_Kinases

>  <Ligand_Instance>  (814) 
nan

>  <PDB_ID>  (814) 
nan

>  <Standardized_SMILES>  (814) 
Cc1cc(CN2CCN(c3c(Cl)cnc4[nH]c(-c5ccc(N6CCN[C@@H](C)C6)cc5)nc34)CC2)no1

>  <Name>  (814) 
nan

>  <Pocket>  (814) 
nan

>  <ATP_Site>  (814) 
nan

>  <Peripheral>  (814) 
nan

>  <Num_H_Atoms_ProtBoundConf>  (814) 
nan

>  <Num_Resolved_Atoms>  (814) 
nan

>  <Num_Not_Resolved_Atoms>  (814) 
nan

$$$$
CHEMBL2203768
     RDKit          3D

  0  0  0  0  0  0  0  0  0  0999 V3000
M  V30 BEGIN CTAB
M  V30 COUNTS 74 79 0 0 0
M  V30 BEGIN ATOM
M  V30 1 C 5.656894 -6.280433 3.351507 0
M  V30 2 O 5.511140 -5.974710 1.984103 0
M  V30 3 C 4.233954 -5.542270 1.691415 0
M  V30 4 C 4.012674 -5.197330 0.241356 0
M  V30 5 N 4.860895 -4.154906 -0.239024 0
M  V30 6 C 4.575062 -3.890118 -1.612505 0
M  V30 7 C 4.342858 -2.409985 -1.889430 0
M  V30 8 N 3.375024 -1.914375 -0.942170 0
M  V30 9 C 2.321699 -0.998892 -1.219845 0
M  V30 10 C 1.368512 -0.608285 -0.302718 0
M  V30 11 C 0.386789 0.289057 -0.665978 0
M  V30 12 C 0.288268 0.841758 -1.924377 0
M  V30 13 C -0.769944 1.785888 -2.266868 0
M  V30 14 N -1.732856 2.178703 -1.412103 0
M  V30 15 C -2.579139 3.044055 -1.971109 0
M  V30 16 C -3.703114 3.696309 -1.458753 0
M  V30 17 N -4.097791 3.445431 -0.093122 0
M  V30 18 C -5.031169 2.355052 0.129288 0
M  V30 19 C -4.226665 1.281637 0.819751 0
M  V30 20 N -3.588975 1.753340 1.973339 0
M  V30 21 C -3.745534 0.886836 3.096797 0
M  V30 22 C -3.199220 -0.462654 2.850636 0
M  V30 23 C -3.737013 -1.631113 2.349796 0
M  V30 24 C -2.780570 -2.628422 2.321701 0
M  V30 25 C -3.041995 -4.002809 1.836855 0
M  V30 26 O -1.704807 -2.061949 2.794843 0
M  V30 27 N -1.922333 -0.806656 3.108277 0
M  V30 28 C -3.486885 3.112943 2.260590 0
M  V30 29 C -3.734802 4.087229 1.160601 0
M  V30 30 C -4.374283 4.548435 -2.314709 0
M  V30 31 Br -5.911694 5.460975 -1.666939 0
M  V30 32 C -3.898302 4.705801 -3.621369 0
M  V30 33 N -2.805913 4.046333 -4.055467 0
M  V30 34 C -2.106331 3.196730 -3.260441 0
M  V30 35 N -1.008164 2.427257 -3.425736 0
M  V30 36 C 1.236719 0.460738 -2.856835 0
M  V30 37 C 2.220222 -0.439676 -2.489084 0
M  V30 38 C 3.448535 -2.365779 0.456789 0
M  V30 39 C 4.826675 -2.984391 0.583009 0
M  V30 40 H 6.657693 -6.626993 3.603156 0
M  V30 41 H 4.827211 -6.923166 3.717224 0
M  V30 42 H 5.482618 -5.290125 3.864880 0
M  V30 43 H 3.918242 -4.703169 2.379199 0
M  V30 44 H 3.533702 -6.366581 1.945314 0
M  V30 45 H 4.222731 -6.134453 -0.327449 0
M  V30 46 H 2.951029 -4.960514 0.098825 0
M  V30 47 H 5.479065 -4.159056 -2.225446 0
M  V30 48 H 3.762305 -4.517587 -2.035305 0
M  V30 49 H 3.883085 -2.393425 -2.915201 0
M  V30 50 H 5.313879 -1.914880 -1.871334 0
M  V30 51 H 1.423626 -1.024380 0.683959 0
M  V30 52 H -0.330388 0.545768 0.126631 0
M  V30 53 H -5.471956 1.996487 -0.826077 0
M  V30 54 H -5.819501 2.687675 0.844485 0
M  V30 55 H -3.584085 0.731593 0.103634 0
M  V30 56 H -4.991669 0.509977 1.136076 0
M  V30 57 H -4.849274 0.772849 3.292121 0
M  V30 58 H -3.247339 1.297902 4.010915 0
M  V30 59 H -4.787256 -1.692017 2.036409 0
M  V30 60 H -2.729385 -4.179843 0.805487 0
M  V30 61 H -2.519697 -4.759843 2.470464 0
M  V30 62 H -4.130642 -4.240555 1.963738 0
M  V30 63 H -2.444513 3.315326 2.647947 0
M  V30 64 H -4.140627 3.377360 3.119884 0
M  V30 65 H -2.864707 4.740400 0.945404 0
M  V30 66 H -4.583800 4.773249 1.396694 0
M  V30 67 H -4.468855 5.386696 -4.237236 0
M  V30 68 H -0.438224 2.339917 -4.297036 0
M  V30 69 H 1.156573 0.896425 -3.842201 0
M  V30 70 H 2.899115 -0.657321 -3.299754 0
M  V30 71 H 3.464272 -1.454152 1.087864 0
M  V30 72 H 2.625776 -3.044003 0.698305 0
M  V30 73 H 5.013472 -3.152910 1.637357 0
M  V30 74 H 5.545316 -2.241611 0.130457 0
M  V30 END ATOM
M  V30 BEGIN BOND
M  V30 1 1 1 2
M  V30 2 1 2 3
M  V30 3 1 3 4
M  V30 4 1 4 5
M  V30 5 1 5 6
M  V30 6 1 6 7
M  V30 7 1 7 8
M  V30 8 1 8 9
M  V30 9 2 9 10
M  V30 10 1 10 11
M  V30 11 2 11 12
M  V30 12 1 12 13
M  V30 13 2 13 14
M  V30 14 1 14 15
M  V30 15 2 15 16
M  V30 16 1 16 17
M  V30 17 1 17 18
M  V30 18 1 18 19
M  V30 19 1 19 20
M  V30 20 1 20 21
M  V30 21 1 21 22
M  V30 22 1 22 23
M  V30 23 2 23 24
M  V30 24 1 24 25
M  V30 25 1 24 26
M  V30 26 1 26 27
M  V30 27 1 20 28
M  V30 28 1 28 29
M  V30 29 1 16 30
M  V30 30 1 30 31
M  V30 31 2 30 32
M  V30 32 1 32 33
M  V30 33 2 33 34
M  V30 34 1 34 35
M  V30 35 1 12 36
M  V30 36 2 36 37
M  V30 37 1 8 38
M  V30 38 1 38 39
M  V30 39 1 39 5
M  V30 40 1 37 9
M  V30 41 1 35 13
M  V30 42 1 34 15
M  V30 43 1 29 17
M  V30 44 2 27 22
M  V30 45 1 1 40
M  V30 46 1 1 41
M  V30 47 1 1 42
M  V30 48 1 3 43
M  V30 49 1 3 44
M  V30 50 1 4 45
M  V30 51 1 4 46
M  V30 52 1 6 47
M  V30 53 1 6 48
M  V30 54 1 7 49
M  V30 55 1 7 50
M  V30 56 1 10 51
M  V30 57 1 11 52
M  V30 58 1 18 53
M  V30 59 1 18 54
M  V30 60 1 19 55
M  V30 61 1 19 56
M  V30 62 1 21 57
M  V30 63 1 21 58
M  V30 64 1 23 59
M  V30 65 1 25 60
M  V30 66 1 25 61
M  V30 67 1 25 62
M  V30 68 1 28 63
M  V30 69 1 28 64
M  V30 70 1 29 65
M  V30 71 1 29 66
M  V30 72 1 32 67
M  V30 73 1 35 68
M  V30 74 1 36 69
M  V30 75 1 37 70
M  V30 76 1 38 71
M  V30 77 1 38 72
M  V30 78 1 39 73
M  V30 79 1 39 74
M  V30 END BOND
M  V30 END CTAB
M  END
>  <Dataset>  (815) 
ChEMBL_Kinases

>  <Ligand_Instance>  (815) 
nan

>  <PDB_ID>  (815) 
nan

>  <Standardized_SMILES>  (815) 
COCCN1CCN(c2ccc(-c3nc4c(N5CCN(Cc6cc(C)on6)CC5)c(Br)cnc4[nH]3)cc2)CC1

>  <Name>  (815) 
nan

>  <Pocket>  (815) 
nan

>  <ATP_Site>  (815) 
nan

>  <Peripheral>  (815) 
nan

>  <Num_H_Atoms_ProtBoundConf>  (815) 
nan

>  <Num_Resolved_Atoms>  (815) 
nan

>  <Num_Not_Resolved_Atoms>  (815) 
nan

$$$$
CHEMBL220525
     RDKit          3D

  0  0  0  0  0  0  0  0  0  0999 V3000
M  V30 BEGIN CTAB
M  V30 COUNTS 50 52 0 0 0
M  V30 BEGIN ATOM
M  V30 1 C 0.131624 0.948029 -5.803553 0
M  V30 2 C 0.479232 0.378071 -4.467106 0
M  V30 3 N 1.258101 1.318821 -3.657874 0
M  V30 4 C 1.683235 0.940661 -2.336836 0
M  V30 5 C 1.386106 -0.287133 -1.783795 0
M  V30 6 C 1.771975 -0.705604 -0.504544 0
M  V30 7 C 2.499811 0.234410 0.192791 0
M  V30 8 C 2.791396 1.456329 -0.367982 0
M  V30 9 C 2.413087 1.876347 -1.631871 0
M  V30 10 Cl 2.783832 3.416752 -2.331284 0
M  V30 11 N 3.050328 0.184602 1.508848 0
M  V30 12 C 2.688679 0.105020 2.876688 0
M  V30 13 O 1.713291 0.118068 2.090032 0
M  V30 14 N 1.855777 0.022412 4.014280 0
M  V30 15 C 0.529697 -0.064861 4.508091 0
M  V30 16 C -0.228511 0.826684 5.210374 0
M  V30 17 N -1.473358 0.407415 5.492749 0
M  V30 18 C -1.824932 -0.826865 5.057218 0
M  V30 19 C -3.180555 -1.177963 5.413027 0
M  V30 20 N -4.272648 -1.480516 5.693539 0
M  V30 21 C -1.064313 -1.759277 4.336164 0
M  V30 22 N 0.153311 -1.274794 4.094053 0
M  V30 23 O -1.603328 -2.954850 3.992004 0
M  V30 24 C -1.767575 -3.603555 2.778400 0
M  V30 25 C -2.600496 -2.877359 1.773583 0
M  V30 26 C -2.124368 -1.590766 1.257048 0
M  V30 27 C -1.012782 -1.572429 0.268570 0
M  V30 28 C 0.227930 -2.298266 0.601488 0
M  V30 29 O 1.296488 -1.974626 -0.310510 0
M  V30 30 H -0.924168 0.703706 -6.100267 0
M  V30 31 H 0.135613 2.075051 -5.777554 0
M  V30 32 H 0.808891 0.644976 -6.603790 0
M  V30 33 H -0.441140 0.133794 -3.908970 0
M  V30 34 H 1.057603 -0.557608 -4.649935 0
M  V30 35 H 1.477587 2.227751 -4.064708 0
M  V30 36 H 0.799763 -0.899840 -2.488688 0
M  V30 37 H 3.368992 2.231233 0.149948 0
M  V30 38 H 4.117636 0.220862 1.492528 0
M  V30 39 H 2.361791 -0.002495 4.914397 0
M  V30 40 H 0.441415 1.676046 5.351918 0
M  V30 41 H -2.346514 -4.565378 2.984352 0
M  V30 42 H -0.789828 -3.924954 2.416938 0
M  V30 43 H -3.626926 -2.739607 2.228616 0
M  V30 44 H -2.742675 -3.619945 0.919466 0
M  V30 45 H -1.806328 -0.953791 2.154754 0
M  V30 46 H -3.023089 -1.010741 0.847331 0
M  V30 47 H -1.441056 -1.988938 -0.703429 0
M  V30 48 H -0.748133 -0.478324 0.050839 0
M  V30 49 H 0.100056 -3.431046 0.396574 0
M  V30 50 H 0.560994 -2.166946 1.595348 0
M  V30 END ATOM
M  V30 BEGIN BOND
M  V30 1 1 1 2
M  V30 2 1 2 3
M  V30 3 1 3 4
M  V30 4 2 4 5
M  V30 5 1 5 6
M  V30 6 2 6 7
M  V30 7 1 7 8
M  V30 8 2 8 9
M  V30 9 1 9 10
M  V30 10 1 7 11
M  V30 11 1 11 12
M  V30 12 2 12 13
M  V30 13 1 12 14
M  V30 14 1 14 15
M  V30 15 1 15 16
M  V30 16 2 16 17
M  V30 17 1 17 18
M  V30 18 1 18 19
M  V30 19 3 19 20
M  V30 20 2 18 21
M  V30 21 1 21 22
M  V30 22 1 21 23
M  V30 23 1 23 24
M  V30 24 1 24 25
M  V30 25 1 25 26
M  V30 26 1 26 27
M  V30 27 1 27 28
M  V30 28 1 28 29
M  V30 29 1 9 4
M  V30 30 2 22 15
M  V30 31 1 29 6
M  V30 32 1 1 30
M  V30 33 1 1 31
M  V30 34 1 1 32
M  V30 35 1 2 33
M  V30 36 1 2 34
M  V30 37 1 3 35
M  V30 38 1 5 36
M  V30 39 1 8 37
M  V30 40 1 11 38
M  V30 41 1 14 39
M  V30 42 1 16 40
M  V30 43 1 24 41
M  V30 44 1 24 42
M  V30 45 1 25 43
M  V30 46 1 25 44
M  V30 47 1 26 45
M  V30 48 1 26 46
M  V30 49 1 27 47
M  V30 50 1 27 48
M  V30 51 1 28 49
M  V30 52 1 28 50
M  V30 END BOND
M  V30 END CTAB
M  END
>  <Dataset>  (816) 
ChEMBL_Kinases

>  <Ligand_Instance>  (816) 
nan

>  <PDB_ID>  (816) 
nan

>  <Standardized_SMILES>  (816) 
CCNc1cc2c(cc1Cl)NC(=O)Nc1cnc(C#N)c(n1)OCCCCCO2

>  <Name>  (816) 
nan

>  <Pocket>  (816) 
nan

>  <ATP_Site>  (816) 
nan

>  <Peripheral>  (816) 
nan

>  <Num_H_Atoms_ProtBoundConf>  (816) 
nan

>  <Num_Resolved_Atoms>  (816) 
nan

>  <Num_Not_Resolved_Atoms>  (816) 
nan

$$$$
CHEMBL2203528
     RDKit          3D

  0  0  0  0  0  0  0  0  0  0999 V3000
M  V30 BEGIN CTAB
M  V30 COUNTS 40 43 0 0 0
M  V30 BEGIN ATOM
M  V30 1 O 1.172684 -1.992169 2.447928 0
M  V30 2 C 0.107574 -2.481902 1.986090 0
M  V30 3 N 0.206173 -2.646601 0.542797 0
M  V30 4 C 1.487619 -2.183229 0.208154 0
M  V30 5 C 2.375717 -3.221232 0.339538 0
M  V30 6 C 3.714306 -3.004760 0.095263 0
M  V30 7 C 4.083967 -1.735775 -0.272180 0
M  V30 8 C 3.137152 -0.757131 -0.381208 0
M  V30 9 C 1.789312 -0.915126 -0.151480 0
M  V30 10 C 0.929844 0.205596 -0.373819 0
M  V30 11 N 1.506793 1.361007 -0.702461 0
M  V30 12 C 0.875852 2.496659 -0.968613 0
M  V30 13 C 1.669494 3.578337 -1.287074 0
M  V30 14 C 0.979643 4.741145 -1.556522 0
M  V30 15 C -0.387296 4.906583 -1.534932 0
M  V30 16 C -1.098339 3.771968 -1.206613 0
M  V30 17 C -0.488575 2.574076 -0.924237 0
M  V30 18 N -1.133903 1.446861 -0.600337 0
M  V30 19 C -0.414382 0.356907 -0.350563 0
M  V30 20 O -1.137948 -0.602423 -0.070815 0
M  V30 21 C -1.084932 -2.844849 2.780482 0
M  V30 22 C -0.945965 -2.599018 4.127890 0
M  V30 23 C -2.039085 -2.922477 4.921287 0
M  V30 24 C -3.204951 -3.464506 4.373467 0
M  V30 25 C -3.255441 -3.679730 2.993156 0
M  V30 26 N -2.187310 -3.364253 2.213731 0
M  V30 27 H -0.645809 -3.083534 0.067777 0
M  V30 28 H 2.156541 -4.238289 0.622762 0
M  V30 29 H 4.501520 -3.740302 0.165302 0
M  V30 30 H 5.114542 -1.514831 -0.473682 0
M  V30 31 H 3.550031 0.221170 -0.682204 0
M  V30 32 H 2.746493 3.496114 -1.316580 0
M  V30 33 H 1.579201 5.614767 -1.811685 0
M  V30 34 H -0.853914 5.850343 -1.758050 0
M  V30 35 H -2.176761 3.790367 -1.160459 0
M  V30 36 H -2.172705 1.500039 -0.565334 0
M  V30 37 H -0.055523 -2.180446 4.578792 0
M  V30 38 H -2.007090 -2.759172 5.986400 0
M  V30 39 H -4.078203 -3.731989 4.942999 0
M  V30 40 H -4.112845 -4.096640 2.460857 0
M  V30 END ATOM
M  V30 BEGIN BOND
M  V30 1 2 1 2
M  V30 2 1 2 3
M  V30 3 1 3 4
M  V30 4 2 4 5
M  V30 5 1 5 6
M  V30 6 2 6 7
M  V30 7 1 7 8
M  V30 8 2 8 9
M  V30 9 1 9 10
M  V30 10 2 10 11
M  V30 11 1 11 12
M  V30 12 2 12 13
M  V30 13 1 13 14
M  V30 14 2 14 15
M  V30 15 1 15 16
M  V30 16 2 16 17
M  V30 17 1 17 18
M  V30 18 1 18 19
M  V30 19 2 19 20
M  V30 20 1 2 21
M  V30 21 2 21 22
M  V30 22 1 22 23
M  V30 23 2 23 24
M  V30 24 1 24 25
M  V30 25 2 25 26
M  V30 26 1 9 4
M  V30 27 1 19 10
M  V30 28 1 26 21
M  V30 29 1 17 12
M  V30 30 1 3 27
M  V30 31 1 5 28
M  V30 32 1 6 29
M  V30 33 1 7 30
M  V30 34 1 8 31
M  V30 35 1 13 32
M  V30 36 1 14 33
M  V30 37 1 15 34
M  V30 38 1 16 35
M  V30 39 1 18 36
M  V30 40 1 22 37
M  V30 41 1 23 38
M  V30 42 1 24 39
M  V30 43 1 25 40
M  V30 END BOND
M  V30 END CTAB
M  END
>  <Dataset>  (817) 
ChEMBL_Kinases

>  <Ligand_Instance>  (817) 
nan

>  <PDB_ID>  (817) 
nan

>  <Standardized_SMILES>  (817) 
O=C(Nc1ccccc1-c1nc2ccccc2[nH]c1=O)c1ccccn1

>  <Name>  (817) 
nan

>  <Pocket>  (817) 
nan

>  <ATP_Site>  (817) 
nan

>  <Peripheral>  (817) 
nan

>  <Num_H_Atoms_ProtBoundConf>  (817) 
nan

>  <Num_Resolved_Atoms>  (817) 
nan

>  <Num_Not_Resolved_Atoms>  (817) 
nan

$$$$
CHEMBL2203529
     RDKit          3D

  0  0  0  0  0  0  0  0  0  0999 V3000
M  V30 BEGIN CTAB
M  V30 COUNTS 40 43 0 0 0
M  V30 BEGIN ATOM
M  V30 1 O 1.180723 -2.143466 2.359226 0
M  V30 2 C 0.207778 -2.648618 1.765096 0
M  V30 3 N 0.348713 -2.636556 0.317282 0
M  V30 4 C 1.577477 -2.038371 0.069036 0
M  V30 5 C 2.547431 -2.987772 0.106707 0
M  V30 6 C 3.872359 -2.655639 -0.078867 0
M  V30 7 C 4.141588 -1.328258 -0.299574 0
M  V30 8 C 3.114478 -0.423977 -0.325483 0
M  V30 9 C 1.777249 -0.714141 -0.146068 0
M  V30 10 C 0.820852 0.351281 -0.266800 0
M  V30 11 N 1.320142 1.574631 -0.456253 0
M  V30 12 C 0.592888 2.673046 -0.612214 0
M  V30 13 C 1.289076 3.852181 -0.796256 0
M  V30 14 C 0.498975 4.970849 -0.953607 0
M  V30 15 C -0.877956 5.033142 -0.946528 0
M  V30 16 C -1.481084 3.807376 -0.756630 0
M  V30 17 C -0.778220 2.637263 -0.590549 0
M  V30 18 N -1.323965 1.428503 -0.403345 0
M  V30 19 C -0.515003 0.387872 -0.257279 0
M  V30 20 O -1.158520 -0.652125 -0.098227 0
M  V30 21 C -0.940426 -3.186470 2.527260 0
M  V30 22 C -0.800064 -3.062946 3.892231 0
M  V30 23 C -1.856769 -3.554985 4.667799 0
M  V30 24 C -2.942899 -4.118679 4.002358 0
M  V30 25 N -3.031135 -4.215398 2.663045 0
M  V30 26 C -2.024794 -3.747802 1.899431 0
M  V30 27 H -0.471713 -3.092714 -0.194346 0
M  V30 28 H 2.419793 -4.058507 0.275127 0
M  V30 29 H 4.723336 -3.320456 -0.070850 0
M  V30 30 H 5.154407 -0.996095 -0.452757 0
M  V30 31 H 3.448223 0.612973 -0.510207 0
M  V30 32 H 2.354452 3.869372 -0.811478 0
M  V30 33 H 1.041322 5.914705 -1.100676 0
M  V30 34 H -1.391837 5.950447 -1.077168 0
M  V30 35 H -2.573723 3.751233 -0.735279 0
M  V30 36 H -2.356322 1.402329 -0.387393 0
M  V30 37 H 0.045555 -2.624469 4.400353 0
M  V30 38 H -1.858319 -3.513011 5.746372 0
M  V30 39 H -3.812569 -4.528398 4.520051 0
M  V30 40 H -2.078021 -3.816796 0.822288 0
M  V30 END ATOM
M  V30 BEGIN BOND
M  V30 1 2 1 2
M  V30 2 1 2 3
M  V30 3 1 3 4
M  V30 4 2 4 5
M  V30 5 1 5 6
M  V30 6 2 6 7
M  V30 7 1 7 8
M  V30 8 2 8 9
M  V30 9 1 9 10
M  V30 10 2 10 11
M  V30 11 1 11 12
M  V30 12 2 12 13
M  V30 13 1 13 14
M  V30 14 2 14 15
M  V30 15 1 15 16
M  V30 16 2 16 17
M  V30 17 1 17 18
M  V30 18 1 18 19
M  V30 19 2 19 20
M  V30 20 1 2 21
M  V30 21 2 21 22
M  V30 22 1 22 23
M  V30 23 2 23 24
M  V30 24 1 24 25
M  V30 25 2 25 26
M  V30 26 1 9 4
M  V30 27 1 19 10
M  V30 28 1 26 21
M  V30 29 1 17 12
M  V30 30 1 3 27
M  V30 31 1 5 28
M  V30 32 1 6 29
M  V30 33 1 7 30
M  V30 34 1 8 31
M  V30 35 1 13 32
M  V30 36 1 14 33
M  V30 37 1 15 34
M  V30 38 1 16 35
M  V30 39 1 18 36
M  V30 40 1 22 37
M  V30 41 1 23 38
M  V30 42 1 24 39
M  V30 43 1 26 40
M  V30 END BOND
M  V30 END CTAB
M  END
>  <Dataset>  (818) 
ChEMBL_Kinases

>  <Ligand_Instance>  (818) 
nan

>  <PDB_ID>  (818) 
nan

>  <Standardized_SMILES>  (818) 
O=C(Nc1ccccc1-c1nc2ccccc2[nH]c1=O)c1cccnc1

>  <Name>  (818) 
nan

>  <Pocket>  (818) 
nan

>  <ATP_Site>  (818) 
nan

>  <Peripheral>  (818) 
nan

>  <Num_H_Atoms_ProtBoundConf>  (818) 
nan

>  <Num_Resolved_Atoms>  (818) 
nan

>  <Num_Not_Resolved_Atoms>  (818) 
nan

$$$$
CHEMBL2203530
     RDKit          3D

  0  0  0  0  0  0  0  0  0  0999 V3000
M  V30 BEGIN CTAB
M  V30 COUNTS 41 44 0 0 0
M  V30 BEGIN ATOM
M  V30 1 O 1.412557 -1.520873 2.774669 0
M  V30 2 C 0.852656 -2.387391 2.075890 0
M  V30 3 N 1.334476 -2.407700 0.703000 0
M  V30 4 C 2.307624 -1.393357 0.650131 0
M  V30 5 C 3.511821 -1.929106 1.036200 0
M  V30 6 C 4.628877 -1.124496 1.100039 0
M  V30 7 C 4.461578 0.195143 0.765201 0
M  V30 8 C 3.228871 0.653266 0.389660 0
M  V30 9 C 2.080999 -0.103648 0.306859 0
M  V30 10 C 0.880911 0.520202 -0.166715 0
M  V30 11 N 0.944822 1.830082 -0.406458 0
M  V30 12 C -0.049674 2.560909 -0.866755 0
M  V30 13 C 0.198764 3.904790 -1.053428 0
M  V30 14 C -0.858434 4.647392 -1.534901 0
M  V30 15 C -2.116580 4.173877 -1.839902 0
M  V30 16 C -2.287225 2.822230 -1.627044 0
M  V30 17 C -1.279778 2.025227 -1.150557 0
M  V30 18 N -1.398927 0.707592 -0.927454 0
M  V30 19 C -0.348412 0.034711 -0.461179 0
M  V30 20 O -0.597715 -1.146989 -0.310421 0
M  V30 21 C -0.185941 -3.268231 2.652183 0
M  V30 22 C -0.437578 -3.020107 3.983341 0
M  V30 23 C -1.407462 -3.814543 4.593997 0
M  V30 24 C -2.058825 -4.788734 3.866458 0
M  V30 25 F -2.991332 -5.534462 4.500299 0
M  V30 26 C -1.770881 -4.999254 2.532743 0
M  V30 27 C -0.812613 -4.229263 1.890853 0
M  V30 28 H 0.878363 -3.165700 0.102165 0
M  V30 29 H 3.714834 -2.953639 1.311965 0
M  V30 30 H 5.620728 -1.437489 1.388406 0
M  V30 31 H 5.303004 0.864017 0.799142 0
M  V30 32 H 3.216879 1.719543 0.146692 0
M  V30 33 H 1.163525 4.322139 -0.830249 0
M  V30 34 H -0.682627 5.704819 -1.687946 0
M  V30 35 H -2.889823 4.830752 -2.214529 0
M  V30 36 H -3.260083 2.365154 -1.844931 0
M  V30 37 H -2.321966 0.296846 -1.138916 0
M  V30 38 H 0.045850 -2.275661 4.578619 0
M  V30 39 H -1.622884 -3.634074 5.651101 0
M  V30 40 H -2.283689 -5.763177 1.967822 0
M  V30 41 H -0.571852 -4.376845 0.849029 0
M  V30 END ATOM
M  V30 BEGIN BOND
M  V30 1 2 1 2
M  V30 2 1 2 3
M  V30 3 1 3 4
M  V30 4 2 4 5
M  V30 5 1 5 6
M  V30 6 2 6 7
M  V30 7 1 7 8
M  V30 8 2 8 9
M  V30 9 1 9 10
M  V30 10 2 10 11
M  V30 11 1 11 12
M  V30 12 2 12 13
M  V30 13 1 13 14
M  V30 14 2 14 15
M  V30 15 1 15 16
M  V30 16 2 16 17
M  V30 17 1 17 18
M  V30 18 1 18 19
M  V30 19 2 19 20
M  V30 20 1 2 21
M  V30 21 2 21 22
M  V30 22 1 22 23
M  V30 23 2 23 24
M  V30 24 1 24 25
M  V30 25 1 24 26
M  V30 26 2 26 27
M  V30 27 1 9 4
M  V30 28 1 19 10
M  V30 29 1 27 21
M  V30 30 1 17 12
M  V30 31 1 3 28
M  V30 32 1 5 29
M  V30 33 1 6 30
M  V30 34 1 7 31
M  V30 35 1 8 32
M  V30 36 1 13 33
M  V30 37 1 14 34
M  V30 38 1 15 35
M  V30 39 1 16 36
M  V30 40 1 18 37
M  V30 41 1 22 38
M  V30 42 1 23 39
M  V30 43 1 26 40
M  V30 44 1 27 41
M  V30 END BOND
M  V30 END CTAB
M  END
>  <Dataset>  (819) 
ChEMBL_Kinases

>  <Ligand_Instance>  (819) 
nan

>  <PDB_ID>  (819) 
nan

>  <Standardized_SMILES>  (819) 
O=C(Nc1ccccc1-c1nc2ccccc2[nH]c1=O)c1ccc(F)cc1

>  <Name>  (819) 
nan

>  <Pocket>  (819) 
nan

>  <ATP_Site>  (819) 
nan

>  <Peripheral>  (819) 
nan

>  <Num_H_Atoms_ProtBoundConf>  (819) 
nan

>  <Num_Resolved_Atoms>  (819) 
nan

>  <Num_Not_Resolved_Atoms>  (819) 
nan

$$$$
CHEMBL2203531
     RDKit          3D

  0  0  0  0  0  0  0  0  0  0999 V3000
M  V30 BEGIN CTAB
M  V30 COUNTS 41 44 0 0 0
M  V30 BEGIN ATOM
M  V30 1 O 1.475285 -1.559566 2.714455 0
M  V30 2 C 0.872585 -2.413355 2.021626 0
M  V30 3 N 1.311437 -2.415559 0.634230 0
M  V30 4 C 2.297222 -1.414293 0.568966 0
M  V30 5 C 3.504288 -1.972013 0.906904 0
M  V30 6 C 4.633096 -1.184509 0.949710 0
M  V30 7 C 4.473564 0.142901 0.643729 0
M  V30 8 C 3.235147 0.620709 0.315981 0
M  V30 9 C 2.074194 -0.118017 0.255706 0
M  V30 10 C 0.869842 0.532821 -0.168884 0
M  V30 11 N 0.941327 1.846124 -0.387902 0
M  V30 12 C -0.047555 2.597358 -0.800746 0
M  V30 13 C 0.205740 3.941767 -0.973350 0
M  V30 14 C -0.857551 4.704341 -1.408031 0
M  V30 15 C -2.133256 4.260820 -1.683740 0
M  V30 16 C -2.306918 2.908959 -1.487554 0
M  V30 17 C -1.294626 2.083409 -1.055679 0
M  V30 18 N -1.425762 0.766202 -0.853277 0
M  V30 19 C -0.375445 0.073140 -0.434139 0
M  V30 20 O -0.636297 -1.111588 -0.296168 0
M  V30 21 C -0.159860 -3.287572 2.618921 0
M  V30 22 C -0.353850 -3.046390 3.961423 0
M  V30 23 C -1.319025 -3.838702 4.595398 0
M  V30 24 C -1.995950 -4.787423 3.847394 0
M  V30 25 Cl -3.215612 -5.788743 4.648247 0
M  V30 26 C -1.771637 -5.000212 2.495597 0
M  V30 27 C -0.815479 -4.217022 1.862324 0
M  V30 28 H 0.822063 -3.158068 0.039489 0
M  V30 29 H 3.702270 -3.004638 1.158203 0
M  V30 30 H 5.631393 -1.508324 1.199908 0
M  V30 31 H 5.321570 0.805323 0.661164 0
M  V30 32 H 3.229314 1.703969 0.089588 0
M  V30 33 H 1.173263 4.341351 -0.775671 0
M  V30 34 H -0.659063 5.770564 -1.545500 0
M  V30 35 H -2.907561 4.930665 -2.021027 0
M  V30 36 H -3.272148 2.459903 -1.675634 0
M  V30 37 H -2.364494 0.371746 -1.044058 0
M  V30 38 H 0.157843 -2.320950 4.551987 0
M  V30 39 H -1.519655 -3.699639 5.648922 0
M  V30 40 H -2.324801 -5.750325 1.960682 0
M  V30 41 H -0.622061 -4.361212 0.815887 0
M  V30 END ATOM
M  V30 BEGIN BOND
M  V30 1 2 1 2
M  V30 2 1 2 3
M  V30 3 1 3 4
M  V30 4 2 4 5
M  V30 5 1 5 6
M  V30 6 2 6 7
M  V30 7 1 7 8
M  V30 8 2 8 9
M  V30 9 1 9 10
M  V30 10 2 10 11
M  V30 11 1 11 12
M  V30 12 2 12 13
M  V30 13 1 13 14
M  V30 14 2 14 15
M  V30 15 1 15 16
M  V30 16 2 16 17
M  V30 17 1 17 18
M  V30 18 1 18 19
M  V30 19 2 19 20
M  V30 20 1 2 21
M  V30 21 2 21 22
M  V30 22 1 22 23
M  V30 23 2 23 24
M  V30 24 1 24 25
M  V30 25 1 24 26
M  V30 26 2 26 27
M  V30 27 1 9 4
M  V30 28 1 19 10
M  V30 29 1 27 21
M  V30 30 1 17 12
M  V30 31 1 3 28
M  V30 32 1 5 29
M  V30 33 1 6 30
M  V30 34 1 7 31
M  V30 35 1 8 32
M  V30 36 1 13 33
M  V30 37 1 14 34
M  V30 38 1 15 35
M  V30 39 1 16 36
M  V30 40 1 18 37
M  V30 41 1 22 38
M  V30 42 1 23 39
M  V30 43 1 26 40
M  V30 44 1 27 41
M  V30 END BOND
M  V30 END CTAB
M  END
>  <Dataset>  (820) 
ChEMBL_Kinases

>  <Ligand_Instance>  (820) 
nan

>  <PDB_ID>  (820) 
nan

>  <Standardized_SMILES>  (820) 
O=C(Nc1ccccc1-c1nc2ccccc2[nH]c1=O)c1ccc(Cl)cc1

>  <Name>  (820) 
nan

>  <Pocket>  (820) 
nan

>  <ATP_Site>  (820) 
nan

>  <Peripheral>  (820) 
nan

>  <Num_H_Atoms_ProtBoundConf>  (820) 
nan

>  <Num_Resolved_Atoms>  (820) 
nan

>  <Num_Not_Resolved_Atoms>  (820) 
nan

$$$$
CHEMBL2203532
     RDKit          3D

  0  0  0  0  0  0  0  0  0  0999 V3000
M  V30 BEGIN CTAB
M  V30 COUNTS 45 48 0 0 0
M  V30 BEGIN ATOM
M  V30 1 C 0.909898 -6.427241 -1.720189 0
M  V30 2 O 1.849642 -5.622863 -1.041438 0
M  V30 3 C 1.751859 -4.265785 -0.852659 0
M  V30 4 C 2.788394 -3.655043 -0.153782 0
M  V30 5 C 2.739487 -2.280192 0.065965 0
M  V30 6 C 1.708879 -1.476731 -0.374923 0
M  V30 7 C 1.760873 -0.047358 -0.091254 0
M  V30 8 O 2.773032 0.360915 0.534331 0
M  V30 9 N 0.711202 0.801568 -0.513276 0
M  V30 10 C 0.559716 2.206213 -0.348456 0
M  V30 11 C 1.120208 2.903254 -1.425252 0
M  V30 12 C 1.084009 4.281013 -1.470023 0
M  V30 13 C 0.481456 4.957478 -0.426971 0
M  V30 14 C -0.050790 4.226452 0.601174 0
M  V30 15 C -0.046509 2.858938 0.703307 0
M  V30 16 C -0.588549 2.032791 1.759977 0
M  V30 17 N -0.465992 0.699369 1.647338 0
M  V30 18 C -0.948020 -0.140945 2.595950 0
M  V30 19 C -0.818189 -1.507379 2.473377 0
M  V30 20 C -1.302872 -2.380485 3.429968 0
M  V30 21 C -1.943504 -1.893086 4.557269 0
M  V30 22 C -2.080235 -0.525123 4.692339 0
M  V30 23 C -1.588025 0.322999 3.724122 0
M  V30 24 N -1.724667 1.652359 3.862732 0
M  V30 25 C -1.232401 2.445225 2.899444 0
M  V30 26 O -1.394180 3.672202 3.092400 0
M  V30 27 C 0.704479 -2.117741 -1.060990 0
M  V30 28 C 0.713259 -3.476507 -1.300641 0
M  V30 29 H 0.314156 -7.034861 -0.996256 0
M  V30 30 H 0.278047 -5.864007 -2.409433 0
M  V30 31 H 1.521387 -7.187343 -2.286959 0
M  V30 32 H 3.616763 -4.244208 0.210782 0
M  V30 33 H 3.592302 -1.879325 0.622673 0
M  V30 34 H -0.119954 0.483978 -1.021688 0
M  V30 35 H 1.600845 2.459630 -2.264979 0
M  V30 36 H 1.505037 4.856579 -2.283046 0
M  V30 37 H 0.438577 6.037102 -0.435655 0
M  V30 38 H -0.503821 4.792328 1.380827 0
M  V30 39 H -0.335674 -1.951096 1.631223 0
M  V30 40 H -1.211733 -3.458331 3.353820 0
M  V30 41 H -2.355240 -2.509731 5.359428 0
M  V30 42 H -2.575311 -0.054247 5.555653 0
M  V30 43 H -2.202940 2.031482 4.703097 0
M  V30 44 H -0.118495 -1.515503 -1.420146 0
M  V30 45 H -0.087571 -3.939745 -1.839033 0
M  V30 END ATOM
M  V30 BEGIN BOND
M  V30 1 1 1 2
M  V30 2 1 2 3
M  V30 3 2 3 4
M  V30 4 1 4 5
M  V30 5 2 5 6
M  V30 6 1 6 7
M  V30 7 2 7 8
M  V30 8 1 7 9
M  V30 9 1 9 10
M  V30 10 2 10 11
M  V30 11 1 11 12
M  V30 12 2 12 13
M  V30 13 1 13 14
M  V30 14 2 14 15
M  V30 15 1 15 16
M  V30 16 2 16 17
M  V30 17 1 17 18
M  V30 18 2 18 19
M  V30 19 1 19 20
M  V30 20 2 20 21
M  V30 21 1 21 22
M  V30 22 2 22 23
M  V30 23 1 23 24
M  V30 24 1 24 25
M  V30 25 2 25 26
M  V30 26 1 6 27
M  V30 27 2 27 28
M  V30 28 1 28 3
M  V30 29 1 15 10
M  V30 30 1 25 16
M  V30 31 1 23 18
M  V30 32 1 1 29
M  V30 33 1 1 30
M  V30 34 1 1 31
M  V30 35 1 4 32
M  V30 36 1 5 33
M  V30 37 1 9 34
M  V30 38 1 11 35
M  V30 39 1 12 36
M  V30 40 1 13 37
M  V30 41 1 14 38
M  V30 42 1 19 39
M  V30 43 1 20 40
M  V30 44 1 21 41
M  V30 45 1 22 42
M  V30 46 1 24 43
M  V30 47 1 27 44
M  V30 48 1 28 45
M  V30 END BOND
M  V30 END CTAB
M  END
>  <Dataset>  (821) 
ChEMBL_Kinases

>  <Ligand_Instance>  (821) 
nan

>  <PDB_ID>  (821) 
nan

>  <Standardized_SMILES>  (821) 
COc1ccc(C(=O)Nc2ccccc2-c2nc3ccccc3[nH]c2=O)cc1

>  <Name>  (821) 
nan

>  <Pocket>  (821) 
nan

>  <ATP_Site>  (821) 
nan

>  <Peripheral>  (821) 
nan

>  <Num_H_Atoms_ProtBoundConf>  (821) 
nan

>  <Num_Resolved_Atoms>  (821) 
nan

>  <Num_Not_Resolved_Atoms>  (821) 
nan

$$$$
CHEMBL2203536
     RDKit          3D

  0  0  0  0  0  0  0  0  0  0999 V3000
M  V30 BEGIN CTAB
M  V30 COUNTS 41 44 0 0 0
M  V30 BEGIN ATOM
M  V30 1 O 0.491128 -0.193391 -3.510344 0
M  V30 2 C 0.935119 -0.686306 -2.446381 0
M  V30 3 N 1.677940 -1.751292 -2.778523 0
M  V30 4 C 2.269653 -2.458151 -1.798629 0
M  V30 5 C 3.054459 -3.566767 -2.039152 0
M  V30 6 C 3.680160 -4.317032 -1.066621 0
M  V30 7 C 3.479912 -3.892340 0.230405 0
M  V30 8 C 2.701086 -2.790634 0.483360 0
M  V30 9 C 2.082799 -2.052267 -0.500613 0
M  V30 10 N 1.322570 -0.976730 -0.285325 0
M  V30 11 C 0.702700 -0.221265 -1.184891 0
M  V30 12 C -0.113947 0.932790 -0.894096 0
M  V30 13 C -0.627996 1.615476 -1.955150 0
M  V30 14 C -1.379581 2.741391 -1.752285 0
M  V30 15 C -1.693496 3.293990 -0.539131 0
M  V30 16 C -1.169174 2.594041 0.509208 0
M  V30 17 C -0.389331 1.428815 0.358868 0
M  V30 18 N 0.098225 0.710598 1.513389 0
M  V30 19 C 0.568441 0.017965 2.627467 0
M  V30 20 C -0.465569 -0.399727 3.652254 0
M  V30 21 C -0.744353 0.485225 4.690281 0
M  V30 22 C -1.683044 0.192859 5.686448 0
M  V30 23 C -2.314543 -1.036668 5.567846 0
M  V30 24 C -2.039847 -1.914655 4.540572 0
M  V30 25 N -1.125802 -1.572171 3.614715 0
M  V30 26 H 1.866371 -2.120783 -3.734399 0
M  V30 27 H 3.189742 -3.873179 -3.080835 0
M  V30 28 H 4.276973 -5.169771 -1.333583 0
M  V30 29 H 3.945740 -4.438609 1.056745 0
M  V30 30 H 2.580105 -2.500705 1.514314 0
M  V30 31 H -0.575324 1.462741 -3.004147 0
M  V30 32 H -1.821794 3.335451 -2.548161 0
M  V30 33 H -2.275609 4.169415 -0.356069 0
M  V30 34 H -1.394119 2.999891 1.511547 0
M  V30 35 H -0.212663 1.329770 2.325312 0
M  V30 36 H 0.961553 -1.009832 2.310283 0
M  V30 37 H 1.435781 0.463862 3.174443 0
M  V30 38 H -0.252681 1.440195 4.780931 0
M  V30 39 H -1.911868 0.864398 6.497091 0
M  V30 40 H -3.062297 -1.355351 6.295596 0
M  V30 41 H -2.514583 -2.877296 4.422340 0
M  V30 END ATOM
M  V30 BEGIN BOND
M  V30 1 2 1 2
M  V30 2 1 2 3
M  V30 3 1 3 4
M  V30 4 2 4 5
M  V30 5 1 5 6
M  V30 6 2 6 7
M  V30 7 1 7 8
M  V30 8 2 8 9
M  V30 9 1 9 10
M  V30 10 2 10 11
M  V30 11 1 11 12
M  V30 12 2 12 13
M  V30 13 1 13 14
M  V30 14 2 14 15
M  V30 15 1 15 16
M  V30 16 2 16 17
M  V30 17 1 17 18
M  V30 18 1 18 19
M  V30 19 1 19 20
M  V30 20 2 20 21
M  V30 21 1 21 22
M  V30 22 2 22 23
M  V30 23 1 23 24
M  V30 24 2 24 25
M  V30 25 1 11 2
M  V30 26 1 17 12
M  V30 27 1 25 20
M  V30 28 1 9 4
M  V30 29 1 3 26
M  V30 30 1 5 27
M  V30 31 1 6 28
M  V30 32 1 7 29
M  V30 33 1 8 30
M  V30 34 1 13 31
M  V30 35 1 14 32
M  V30 36 1 15 33
M  V30 37 1 16 34
M  V30 38 1 18 35
M  V30 39 1 19 36
M  V30 40 1 19 37
M  V30 41 1 21 38
M  V30 42 1 22 39
M  V30 43 1 23 40
M  V30 44 1 24 41
M  V30 END BOND
M  V30 END CTAB
M  END
>  <Dataset>  (822) 
ChEMBL_Kinases

>  <Ligand_Instance>  (822) 
nan

>  <PDB_ID>  (822) 
nan

>  <Standardized_SMILES>  (822) 
O=c1[nH]c2ccccc2nc1-c1ccccc1NCc1ccccn1

>  <Name>  (822) 
nan

>  <Pocket>  (822) 
nan

>  <ATP_Site>  (822) 
nan

>  <Peripheral>  (822) 
nan

>  <Num_H_Atoms_ProtBoundConf>  (822) 
nan

>  <Num_Resolved_Atoms>  (822) 
nan

>  <Num_Not_Resolved_Atoms>  (822) 
nan

$$$$
CHEMBL2203552
     RDKit          3D

  0  0  0  0  0  0  0  0  0  0999 V3000
M  V30 BEGIN CTAB
M  V30 COUNTS 45 49 0 0 0
M  V30 BEGIN ATOM
M  V30 1 C -3.143844 -0.929062 4.817194 0
M  V30 2 O -2.356663 -1.245828 3.679954 0
M  V30 3 C -1.561777 -0.316535 3.044859 0
M  V30 4 C -1.534436 0.970802 3.538609 0
M  V30 5 N -0.744326 1.885257 2.903506 0
M  V30 6 C -0.021609 1.519636 1.828873 0
M  V30 7 C 0.854103 2.427554 1.081305 0
M  V30 8 C 0.981847 3.755381 1.463153 0
M  V30 9 N 1.780887 4.603044 0.788653 0
M  V30 10 C 2.504599 4.242106 -0.285807 0
M  V30 11 C 3.329642 5.091692 -0.992938 0
M  V30 12 C 4.044617 4.630011 -2.097726 0
M  V30 13 C 3.923914 3.296045 -2.491081 0
M  V30 14 C 3.093269 2.415288 -1.789575 0
M  V30 15 C 2.403963 2.912559 -0.703039 0
M  V30 16 C 1.587993 2.033941 -0.019584 0
M  V30 17 N -0.079504 0.237866 1.376498 0
M  V30 18 C -0.833828 -0.714908 1.950068 0
M  V30 19 C -0.823769 -2.055487 1.386590 0
M  V30 20 C -1.492666 -3.195122 1.774179 0
M  V30 21 C -1.168273 -4.218698 0.939043 0
M  V30 22 C -0.277380 -3.682824 0.019506 0
M  V30 23 N -0.084191 -2.374604 0.309618 0
M  V30 24 C 0.276473 -4.548985 -1.046646 0
M  V30 25 C 0.313818 -5.996574 -0.604560 0
M  V30 26 N -1.004889 -6.414766 -0.167289 0
M  V30 27 C -1.574700 -5.635235 0.879318 0
M  V30 28 O -2.394059 -6.126845 1.725093 0
M  V30 29 H -3.995279 -0.299104 4.489661 0
M  V30 30 H -2.567756 -0.331466 5.558741 0
M  V30 31 H -3.453534 -1.843939 5.362544 0
M  V30 32 H -2.107532 1.280568 4.398725 0
M  V30 33 H 0.446417 4.160883 2.314956 0
M  V30 34 H 3.390737 6.112558 -0.651904 0
M  V30 35 H 4.691127 5.297022 -2.651318 0
M  V30 36 H 4.491723 2.971418 -3.351236 0
M  V30 37 H 3.016854 1.389347 -2.113099 0
M  V30 38 H 1.468072 0.984800 -0.296921 0
M  V30 39 H -2.161278 -3.286991 2.591606 0
M  V30 40 H 0.557349 -1.771868 -0.263392 0
M  V30 41 H 1.298821 -4.230246 -1.332727 0
M  V30 42 H -0.381929 -4.499835 -1.957957 0
M  V30 43 H 0.702292 -6.632604 -1.419021 0
M  V30 44 H 1.017577 -6.012695 0.269631 0
M  V30 45 H -1.584039 -7.226561 -0.535916 0
M  V30 END ATOM
M  V30 BEGIN BOND
M  V30 1 1 1 2
M  V30 2 1 2 3
M  V30 3 2 3 4
M  V30 4 1 4 5
M  V30 5 2 5 6
M  V30 6 1 6 7
M  V30 7 2 7 8
M  V30 8 1 8 9
M  V30 9 2 9 10
M  V30 10 1 10 11
M  V30 11 2 11 12
M  V30 12 1 12 13
M  V30 13 2 13 14
M  V30 14 1 14 15
M  V30 15 2 15 16
M  V30 16 1 6 17
M  V30 17 2 17 18
M  V30 18 1 18 19
M  V30 19 2 19 20
M  V30 20 1 20 21
M  V30 21 2 21 22
M  V30 22 1 22 23
M  V30 23 1 22 24
M  V30 24 1 24 25
M  V30 25 1 25 26
M  V30 26 1 26 27
M  V30 27 2 27 28
M  V30 28 1 18 3
M  V30 29 1 23 19
M  V30 30 1 16 7
M  V30 31 1 27 21
M  V30 32 1 15 10
M  V30 33 1 1 29
M  V30 34 1 1 30
M  V30 35 1 1 31
M  V30 36 1 4 32
M  V30 37 1 8 33
M  V30 38 1 11 34
M  V30 39 1 12 35
M  V30 40 1 13 36
M  V30 41 1 14 37
M  V30 42 1 16 38
M  V30 43 1 20 39
M  V30 44 1 23 40
M  V30 45 1 24 41
M  V30 46 1 24 42
M  V30 47 1 25 43
M  V30 48 1 25 44
M  V30 49 1 26 45
M  V30 END BOND
M  V30 END CTAB
M  END
>  <Dataset>  (823) 
ChEMBL_Kinases

>  <Ligand_Instance>  (823) 
nan

>  <PDB_ID>  (823) 
nan

>  <Standardized_SMILES>  (823) 
COc1cnc(-c2cnc3ccccc3c2)nc1-c1cc2c([nH]1)CCNC2=O

>  <Name>  (823) 
nan

>  <Pocket>  (823) 
nan

>  <ATP_Site>  (823) 
nan

>  <Peripheral>  (823) 
nan

>  <Num_H_Atoms_ProtBoundConf>  (823) 
nan

>  <Num_Resolved_Atoms>  (823) 
nan

>  <Num_Not_Resolved_Atoms>  (823) 
nan

$$$$
CHEMBL2203767
     RDKit          3D

  0  0  0  0  0  0  0  0  0  0999 V3000
M  V30 BEGIN CTAB
M  V30 COUNTS 70 75 0 0 0
M  V30 BEGIN ATOM
M  V30 1 C 2.824938 -0.579912 4.749994 0
M  V30 2 C 3.808210 -1.536230 5.357843 0
M  V30 3 N 4.780740 -2.066233 4.464279 0
M  V30 4 C 5.753569 -1.197601 3.944129 0
M  V30 5 C 5.629877 -0.954554 2.477792 0
M  V30 6 N 4.365276 -1.446041 1.995919 0
M  V30 7 C 3.326552 -0.683641 1.405313 0
M  V30 8 C 2.080491 -1.184301 1.101995 0
M  V30 9 C 1.090948 -0.420623 0.521732 0
M  V30 10 C 1.305427 0.905188 0.211719 0
M  V30 11 C 0.271258 1.744733 -0.404587 0
M  V30 12 N -0.966720 1.312041 -0.704787 0
M  V30 13 C -1.706229 2.284574 -1.256864 0
M  V30 14 C -3.009334 2.393441 -1.745504 0
M  V30 15 N -3.755522 1.164068 -1.626365 0
M  V30 16 C -3.884621 0.054829 -2.553586 0
M  V30 17 C -5.275358 -0.479045 -2.428177 0
M  V30 18 N -5.499543 -0.982432 -1.114570 0
M  V30 19 C -5.443662 -2.417680 -0.985679 0
M  V30 20 C -4.159537 -3.017390 -1.363172 0
M  V30 21 C -3.711143 -3.488567 -2.589174 0
M  V30 22 C -2.425435 -3.962209 -2.447719 0
M  V30 23 C -1.523711 -4.563832 -3.472686 0
M  V30 24 O -2.144866 -3.774051 -1.201567 0
M  V30 25 N -3.120145 -3.229295 -0.535116 0
M  V30 26 C -4.721146 -0.368522 -0.091649 0
M  V30 27 C -4.452771 1.106106 -0.367016 0
M  V30 28 C -3.439226 3.597784 -2.261738 0
M  V30 29 Cl -5.086316 3.601894 -2.839329 0
M  V30 30 C -2.562286 4.645858 -2.273440 0
M  V30 31 N -1.306274 4.541387 -1.802522 0
M  V30 32 C -0.854500 3.388572 -1.294360 0
M  V30 33 N 0.336731 3.028543 -0.770399 0
M  V30 34 C 2.542697 1.443554 0.500767 0
M  V30 35 C 3.507465 0.643016 1.082953 0
M  V30 36 C 4.278764 -2.879874 2.185124 0
M  V30 37 C 4.265532 -3.110971 3.670943 0
M  V30 38 H 2.128649 -1.088867 4.054119 0
M  V30 39 H 2.244582 -0.118509 5.574330 0
M  V30 40 H 3.349340 0.246589 4.230839 0
M  V30 41 H 3.192298 -2.416473 5.709024 0
M  V30 42 H 4.251656 -1.093994 6.281886 0
M  V30 43 H 5.613761 -0.190317 4.448564 0
M  V30 44 H 6.803003 -1.472940 4.241865 0
M  V30 45 H 6.428166 -1.554198 1.942877 0
M  V30 46 H 5.842435 0.097351 2.191116 0
M  V30 47 H 1.830115 -2.211893 1.314251 0
M  V30 48 H 0.124427 -0.852234 0.299294 0
M  V30 49 H -3.103114 -0.674261 -2.273382 0
M  V30 50 H -3.645575 0.428906 -3.569277 0
M  V30 51 H -5.548820 -1.188746 -3.233743 0
M  V30 52 H -5.974701 0.394817 -2.579590 0
M  V30 53 H -5.615178 -2.621479 0.109789 0
M  V30 54 H -6.321315 -2.876303 -1.482027 0
M  V30 55 H -4.286789 -3.481111 -3.505775 0
M  V30 56 H -1.242912 -5.606276 -3.234666 0
M  V30 57 H -0.621726 -3.916292 -3.501088 0
M  V30 58 H -2.013979 -4.550969 -4.477656 0
M  V30 59 H -5.332790 -0.384347 0.856845 0
M  V30 60 H -3.783810 -0.911877 0.126058 0
M  V30 61 H -5.396681 1.663904 -0.359242 0
M  V30 62 H -3.766963 1.425083 0.467199 0
M  V30 63 H -2.948313 5.571815 -2.689870 0
M  V30 64 H 1.182562 3.649877 -0.663491 0
M  V30 65 H 2.684795 2.483054 0.248367 0
M  V30 66 H 4.423972 1.177231 1.257689 0
M  V30 67 H 5.215173 -3.345976 1.773246 0
M  V30 68 H 3.443222 -3.357372 1.660624 0
M  V30 69 H 4.802576 -4.065652 3.874279 0
M  V30 70 H 3.203573 -3.305451 3.985556 0
M  V30 END ATOM
M  V30 BEGIN BOND
M  V30 1 1 1 2
M  V30 2 1 2 3
M  V30 3 1 3 4
M  V30 4 1 4 5
M  V30 5 1 5 6
M  V30 6 1 6 7
M  V30 7 2 7 8
M  V30 8 1 8 9
M  V30 9 2 9 10
M  V30 10 1 10 11
M  V30 11 2 11 12
M  V30 12 1 12 13
M  V30 13 2 13 14
M  V30 14 1 14 15
M  V30 15 1 15 16
M  V30 16 1 16 17
M  V30 17 1 17 18
M  V30 18 1 18 19
M  V30 19 1 19 20
M  V30 20 1 20 21
M  V30 21 2 21 22
M  V30 22 1 22 23
M  V30 23 1 22 24
M  V30 24 1 24 25
M  V30 25 1 18 26
M  V30 26 1 26 27
M  V30 27 1 14 28
M  V30 28 1 28 29
M  V30 29 2 28 30
M  V30 30 1 30 31
M  V30 31 2 31 32
M  V30 32 1 32 33
M  V30 33 1 10 34
M  V30 34 2 34 35
M  V30 35 1 6 36
M  V30 36 1 36 37
M  V30 37 1 37 3
M  V30 38 1 35 7
M  V30 39 1 33 11
M  V30 40 1 32 13
M  V30 41 1 27 15
M  V30 42 2 25 20
M  V30 43 1 1 38
M  V30 44 1 1 39
M  V30 45 1 1 40
M  V30 46 1 2 41
M  V30 47 1 2 42
M  V30 48 1 4 43
M  V30 49 1 4 44
M  V30 50 1 5 45
M  V30 51 1 5 46
M  V30 52 1 8 47
M  V30 53 1 9 48
M  V30 54 1 16 49
M  V30 55 1 16 50
M  V30 56 1 17 51
M  V30 57 1 17 52
M  V30 58 1 19 53
M  V30 59 1 19 54
M  V30 60 1 21 55
M  V30 61 1 23 56
M  V30 62 1 23 57
M  V30 63 1 23 58
M  V30 64 1 26 59
M  V30 65 1 26 60
M  V30 66 1 27 61
M  V30 67 1 27 62
M  V30 68 1 30 63
M  V30 69 1 33 64
M  V30 70 1 34 65
M  V30 71 1 35 66
M  V30 72 1 36 67
M  V30 73 1 36 68
M  V30 74 1 37 69
M  V30 75 1 37 70
M  V30 END BOND
M  V30 END CTAB
M  END
>  <Dataset>  (824) 
ChEMBL_Kinases

>  <Ligand_Instance>  (824) 
nan

>  <PDB_ID>  (824) 
nan

>  <Standardized_SMILES>  (824) 
CCN1CCN(c2ccc(-c3nc4c(N5CCN(Cc6cc(C)on6)CC5)c(Cl)cnc4[nH]3)cc2)CC1

>  <Name>  (824) 
nan

>  <Pocket>  (824) 
nan

>  <ATP_Site>  (824) 
nan

>  <Peripheral>  (824) 
nan

>  <Num_H_Atoms_ProtBoundConf>  (824) 
nan

>  <Num_Resolved_Atoms>  (824) 
nan

>  <Num_Not_Resolved_Atoms>  (824) 
nan

$$$$
CHEMBL2203561
     RDKit          3D

  0  0  0  0  0  0  0  0  0  0999 V3000
M  V30 BEGIN CTAB
M  V30 COUNTS 45 48 0 0 0
M  V30 BEGIN ATOM
M  V30 1 C -2.552520 -1.566890 4.784950 0
M  V30 2 O -1.758179 -1.582670 3.624405 0
M  V30 3 C -0.773402 -0.660850 3.425344 0
M  V30 4 C -0.545056 0.307397 4.372909 0
M  V30 5 N 0.429650 1.242539 4.205365 0
M  V30 6 C 1.200151 1.231216 3.084442 0
M  V30 7 C 2.228333 2.300163 3.032902 0
M  V30 8 O 2.851500 2.380337 1.791274 0
M  V30 9 C 2.186568 2.659674 0.613088 0
M  V30 10 C 0.857174 2.920125 0.345331 0
M  V30 11 C 0.454606 3.170564 -0.946839 0
M  V30 12 C 1.334688 3.173106 -2.003166 0
M  V30 13 F 0.846340 3.430911 -3.247653 0
M  V30 14 C 2.680197 2.912777 -1.753692 0
M  V30 15 C 3.083965 2.661458 -0.457349 0
M  V30 16 C 0.970579 0.271290 2.149971 0
M  V30 17 C -0.006704 -0.693643 2.281723 0
M  V30 18 C -0.172599 -1.679078 1.219933 0
M  V30 19 C -1.049244 -2.716481 1.110281 0
M  V30 20 C -0.892828 -3.419816 -0.043917 0
M  V30 21 C 0.158931 -2.768176 -0.695455 0
M  V30 22 N 0.553905 -1.747761 0.084510 0
M  V30 23 C 0.648921 -3.239436 -2.021470 0
M  V30 24 C -0.414884 -4.004273 -2.748240 0
M  V30 25 N -1.035666 -5.023471 -1.962722 0
M  V30 26 C -1.506616 -4.580960 -0.697899 0
M  V30 27 O -2.456567 -5.112141 -0.032872 0
M  V30 28 H -1.925431 -1.523062 5.690183 0
M  V30 29 H -3.140231 -2.517133 4.825487 0
M  V30 30 H -3.292128 -0.720809 4.738110 0
M  V30 31 H -1.161613 0.329142 5.286264 0
M  V30 32 H 1.648900 3.252764 3.219344 0
M  V30 33 H 2.924396 2.184088 3.875112 0
M  V30 34 H 0.256307 2.899360 1.227132 0
M  V30 35 H -0.602304 3.360418 -1.040264 0
M  V30 36 H 3.332873 2.925897 -2.615229 0
M  V30 37 H 4.160850 2.474889 -0.410449 0
M  V30 38 H 1.586404 0.283111 1.284747 0
M  V30 39 H -1.805024 -3.005517 1.815795 0
M  V30 40 H 1.341286 -1.099083 -0.190628 0
M  V30 41 H 1.556276 -3.889717 -1.910409 0
M  V30 42 H 0.943357 -2.353506 -2.606401 0
M  V30 43 H 0.062537 -4.492346 -3.626967 0
M  V30 44 H -1.170947 -3.299406 -3.204068 0
M  V30 45 H -1.207917 -6.048003 -2.152766 0
M  V30 END ATOM
M  V30 BEGIN BOND
M  V30 1 1 1 2
M  V30 2 1 2 3
M  V30 3 2 3 4
M  V30 4 1 4 5
M  V30 5 2 5 6
M  V30 6 1 6 7
M  V30 7 1 7 8
M  V30 8 1 8 9
M  V30 9 2 9 10
M  V30 10 1 10 11
M  V30 11 2 11 12
M  V30 12 1 12 13
M  V30 13 1 12 14
M  V30 14 2 14 15
M  V30 15 1 6 16
M  V30 16 2 16 17
M  V30 17 1 17 18
M  V30 18 2 18 19
M  V30 19 1 19 20
M  V30 20 2 20 21
M  V30 21 1 21 22
M  V30 22 1 21 23
M  V30 23 1 23 24
M  V30 24 1 24 25
M  V30 25 1 25 26
M  V30 26 2 26 27
M  V30 27 1 17 3
M  V30 28 1 22 18
M  V30 29 1 15 9
M  V30 30 1 26 20
M  V30 31 1 1 28
M  V30 32 1 1 29
M  V30 33 1 1 30
M  V30 34 1 4 31
M  V30 35 1 7 32
M  V30 36 1 7 33
M  V30 37 1 10 34
M  V30 38 1 11 35
M  V30 39 1 14 36
M  V30 40 1 15 37
M  V30 41 1 16 38
M  V30 42 1 19 39
M  V30 43 1 22 40
M  V30 44 1 23 41
M  V30 45 1 23 42
M  V30 46 1 24 43
M  V30 47 1 24 44
M  V30 48 1 25 45
M  V30 END BOND
M  V30 END CTAB
M  END
>  <Dataset>  (825) 
ChEMBL_Kinases

>  <Ligand_Instance>  (825) 
nan

>  <PDB_ID>  (825) 
nan

>  <Standardized_SMILES>  (825) 
COc1cnc(COc2ccc(F)cc2)cc1-c1cc2c([nH]1)CCNC2=O

>  <Name>  (825) 
nan

>  <Pocket>  (825) 
nan

>  <ATP_Site>  (825) 
nan

>  <Peripheral>  (825) 
nan

>  <Num_H_Atoms_ProtBoundConf>  (825) 
nan

>  <Num_Resolved_Atoms>  (825) 
nan

>  <Num_Not_Resolved_Atoms>  (825) 
nan

$$$$
CHEMBL2203562
     RDKit          3D

  0  0  0  0  0  0  0  0  0  0999 V3000
M  V30 BEGIN CTAB
M  V30 COUNTS 45 48 0 0 0
M  V30 BEGIN ATOM
M  V30 1 C -1.891734 -1.452770 5.050641 0
M  V30 2 O -1.091333 -1.391205 3.880919 0
M  V30 3 C -0.725979 -0.201681 3.286520 0
M  V30 4 C -1.169832 0.964745 3.872675 0
M  V30 5 N -0.834071 2.132685 3.322474 0
M  V30 6 C -0.065348 2.152964 2.201046 0
M  V30 7 C 0.231804 3.524307 1.717924 0
M  V30 8 O 0.767759 3.437678 0.418032 0
M  V30 9 C -0.008750 2.887363 -0.589035 0
M  V30 10 C -1.286647 2.372242 -0.611336 0
M  V30 11 C -1.808898 1.885492 -1.779855 0
M  V30 12 C -1.126053 1.875183 -2.967953 0
M  V30 13 F -1.705761 1.378752 -4.080806 0
M  V30 14 C 0.171003 2.393912 -2.964099 0
M  V30 15 C 0.714215 2.891154 -1.785976 0
M  V30 16 F 1.993824 3.357725 -1.972106 0
M  V30 17 C 0.375676 0.985013 1.619149 0
M  V30 18 C 0.053435 -0.244074 2.152798 0
M  V30 19 C 0.539915 -1.454574 1.507748 0
M  V30 20 C 0.341378 -2.768075 1.868949 0
M  V30 21 C 0.982283 -3.601161 0.978599 0
M  V30 22 C 1.578114 -2.768337 0.063535 0
M  V30 23 N 1.301120 -1.503825 0.399197 0
M  V30 24 C 2.373865 -3.303160 -1.069763 0
M  V30 25 C 2.907401 -4.674146 -0.761544 0
M  V30 26 N 1.881592 -5.549507 -0.227662 0
M  V30 27 C 1.113960 -5.061267 0.866050 0
M  V30 28 O 0.564513 -5.815874 1.709100 0
M  V30 29 H -2.872562 -0.937712 4.881013 0
M  V30 30 H -1.343492 -0.909473 5.855016 0
M  V30 31 H -2.035283 -2.501654 5.380342 0
M  V30 32 H -1.781852 0.933277 4.766304 0
M  V30 33 H -0.653959 4.189708 1.769217 0
M  V30 34 H 1.048350 3.924522 2.381779 0
M  V30 35 H -1.751191 2.425389 0.361017 0
M  V30 36 H -2.812934 1.503451 -1.700971 0
M  V30 37 H 0.679756 2.370548 -3.915794 0
M  V30 38 H 0.977290 1.066653 0.739228 0
M  V30 39 H -0.207541 -3.156204 2.691392 0
M  V30 40 H 1.626240 -0.663670 -0.121111 0
M  V30 41 H 3.262359 -2.623206 -1.181658 0
M  V30 42 H 1.787594 -3.267589 -2.004774 0
M  V30 43 H 3.742764 -4.535150 -0.013052 0
M  V30 44 H 3.324300 -5.123347 -1.685920 0
M  V30 45 H 1.661544 -6.518110 -0.587101 0
M  V30 END ATOM
M  V30 BEGIN BOND
M  V30 1 1 1 2
M  V30 2 1 2 3
M  V30 3 2 3 4
M  V30 4 1 4 5
M  V30 5 2 5 6
M  V30 6 1 6 7
M  V30 7 1 7 8
M  V30 8 1 8 9
M  V30 9 2 9 10
M  V30 10 1 10 11
M  V30 11 2 11 12
M  V30 12 1 12 13
M  V30 13 1 12 14
M  V30 14 2 14 15
M  V30 15 1 15 16
M  V30 16 1 6 17
M  V30 17 2 17 18
M  V30 18 1 18 19
M  V30 19 2 19 20
M  V30 20 1 20 21
M  V30 21 2 21 22
M  V30 22 1 22 23
M  V30 23 1 22 24
M  V30 24 1 24 25
M  V30 25 1 25 26
M  V30 26 1 26 27
M  V30 27 2 27 28
M  V30 28 1 18 3
M  V30 29 1 23 19
M  V30 30 1 15 9
M  V30 31 1 27 21
M  V30 32 1 1 29
M  V30 33 1 1 30
M  V30 34 1 1 31
M  V30 35 1 4 32
M  V30 36 1 7 33
M  V30 37 1 7 34
M  V30 38 1 10 35
M  V30 39 1 11 36
M  V30 40 1 14 37
M  V30 41 1 17 38
M  V30 42 1 20 39
M  V30 43 1 23 40
M  V30 44 1 24 41
M  V30 45 1 24 42
M  V30 46 1 25 43
M  V30 47 1 25 44
M  V30 48 1 26 45
M  V30 END BOND
M  V30 END CTAB
M  END
>  <Dataset>  (826) 
ChEMBL_Kinases

>  <Ligand_Instance>  (826) 
nan

>  <PDB_ID>  (826) 
nan

>  <Standardized_SMILES>  (826) 
COc1cnc(COc2ccc(F)cc2F)cc1-c1cc2c([nH]1)CCNC2=O

>  <Name>  (826) 
nan

>  <Pocket>  (826) 
nan

>  <ATP_Site>  (826) 
nan

>  <Peripheral>  (826) 
nan

>  <Num_H_Atoms_ProtBoundConf>  (826) 
nan

>  <Num_Resolved_Atoms>  (826) 
nan

>  <Num_Not_Resolved_Atoms>  (826) 
nan

$$$$
CHEMBL2203563
     RDKit          3D

  0  0  0  0  0  0  0  0  0  0999 V3000
M  V30 BEGIN CTAB
M  V30 COUNTS 45 48 0 0 0
M  V30 BEGIN ATOM
M  V30 1 C -4.193463 -1.988540 1.804280 0
M  V30 2 O -3.325638 -1.039039 1.647104 0
M  V30 3 C -2.489263 -0.117873 1.494909 0
M  V30 4 C -3.127200 1.122707 1.377182 0
M  V30 5 N -2.506986 2.312290 1.202683 0
M  V30 6 C -1.163960 2.329342 1.133884 0
M  V30 7 C -0.493454 3.638625 0.957984 0
M  V30 8 O 0.845278 3.425786 0.585157 0
M  V30 9 C 1.235940 2.771038 -0.567008 0
M  V30 10 C 0.442851 2.221349 -1.539566 0
M  V30 11 C 0.999544 1.589663 -2.651061 0
M  V30 12 C 2.367484 1.566641 -2.688093 0
M  V30 13 F 2.961146 0.954382 -3.761769 0
M  V30 14 C 3.229111 2.096075 -1.751582 0
M  V30 15 F 4.583206 2.020211 -1.876200 0
M  V30 16 C 2.609622 2.717615 -0.656941 0
M  V30 17 C -0.493009 1.135230 1.244535 0
M  V30 18 C -1.122802 -0.054222 1.418850 0
M  V30 19 C -0.364648 -1.285201 1.528643 0
M  V30 20 C -0.648773 -2.616466 1.709286 0
M  V30 21 C 0.486830 -3.389180 1.736831 0
M  V30 22 C 1.537010 -2.522831 1.568050 0
M  V30 23 N 0.985331 -1.302894 1.451056 0
M  V30 24 C 2.915778 -3.065486 1.547077 0
M  V30 25 C 2.998032 -4.352140 2.328440 0
M  V30 26 N 2.009437 -5.314328 1.882183 0
M  V30 27 C 0.664476 -4.851080 1.905684 0
M  V30 28 O -0.367355 -5.555886 2.053679 0
M  V30 29 H -5.296433 -1.711879 1.660570 0
M  V30 30 H -4.158287 -2.415356 2.862304 0
M  V30 31 H -4.072635 -2.920016 1.177283 0
M  V30 32 H -4.218968 1.285855 1.414337 0
M  V30 33 H -0.487901 4.115502 1.974930 0
M  V30 34 H -1.050049 4.301143 0.260044 0
M  V30 35 H -0.622425 2.312264 -1.388194 0
M  V30 36 H 0.358536 1.161313 -3.405883 0
M  V30 37 H 3.337357 3.123466 0.062343 0
M  V30 38 H 0.568111 1.210300 1.185995 0
M  V30 39 H -1.626351 -2.993149 1.814218 0
M  V30 40 H 1.639800 -0.496371 1.312478 0
M  V30 41 H 3.636799 -2.347758 2.013336 0
M  V30 42 H 3.210865 -3.273658 0.479103 0
M  V30 43 H 2.881133 -4.098222 3.423236 0
M  V30 44 H 4.030511 -4.754384 2.248347 0
M  V30 45 H 2.124247 -6.317842 1.540423 0
M  V30 END ATOM
M  V30 BEGIN BOND
M  V30 1 1 1 2
M  V30 2 1 2 3
M  V30 3 2 3 4
M  V30 4 1 4 5
M  V30 5 2 5 6
M  V30 6 1 6 7
M  V30 7 1 7 8
M  V30 8 1 8 9
M  V30 9 2 9 10
M  V30 10 1 10 11
M  V30 11 2 11 12
M  V30 12 1 12 13
M  V30 13 1 12 14
M  V30 14 1 14 15
M  V30 15 2 14 16
M  V30 16 1 6 17
M  V30 17 2 17 18
M  V30 18 1 18 19
M  V30 19 2 19 20
M  V30 20 1 20 21
M  V30 21 2 21 22
M  V30 22 1 22 23
M  V30 23 1 22 24
M  V30 24 1 24 25
M  V30 25 1 25 26
M  V30 26 1 26 27
M  V30 27 2 27 28
M  V30 28 1 18 3
M  V30 29 1 23 19
M  V30 30 1 16 9
M  V30 31 1 27 21
M  V30 32 1 1 29
M  V30 33 1 1 30
M  V30 34 1 1 31
M  V30 35 1 4 32
M  V30 36 1 7 33
M  V30 37 1 7 34
M  V30 38 1 10 35
M  V30 39 1 11 36
M  V30 40 1 16 37
M  V30 41 1 17 38
M  V30 42 1 20 39
M  V30 43 1 23 40
M  V30 44 1 24 41
M  V30 45 1 24 42
M  V30 46 1 25 43
M  V30 47 1 25 44
M  V30 48 1 26 45
M  V30 END BOND
M  V30 END CTAB
M  END
>  <Dataset>  (827) 
ChEMBL_Kinases

>  <Ligand_Instance>  (827) 
nan

>  <PDB_ID>  (827) 
nan

>  <Standardized_SMILES>  (827) 
COc1cnc(COc2ccc(F)c(F)c2)cc1-c1cc2c([nH]1)CCNC2=O

>  <Name>  (827) 
nan

>  <Pocket>  (827) 
nan

>  <ATP_Site>  (827) 
nan

>  <Peripheral>  (827) 
nan

>  <Num_H_Atoms_ProtBoundConf>  (827) 
nan

>  <Num_Resolved_Atoms>  (827) 
nan

>  <Num_Not_Resolved_Atoms>  (827) 
nan

$$$$
CHEMBL2203564
     RDKit          3D

  0  0  0  0  0  0  0  0  0  0999 V3000
M  V30 BEGIN CTAB
M  V30 COUNTS 48 51 0 0 0
M  V30 BEGIN ATOM
M  V30 1 C 2.115829 -5.201601 2.123129 0
M  V30 2 O 1.288916 -4.124799 1.733609 0
M  V30 3 C 1.559945 -2.809678 2.018575 0
M  V30 4 C 2.712217 -2.533282 2.728651 0
M  V30 5 N 3.049270 -1.256852 3.048965 0
M  V30 6 C 2.231581 -0.240788 2.659273 0
M  V30 7 C 2.591873 1.147178 3.011999 0
M  V30 8 O 1.826831 2.129555 2.374107 0
M  V30 9 C 1.742650 2.328701 1.004287 0
M  V30 10 C 2.337936 1.677490 -0.056587 0
M  V30 11 C 2.083368 2.079705 -1.345822 0
M  V30 12 C 1.240405 3.129672 -1.643698 0
M  V30 13 F 1.087745 3.409552 -2.960281 0
M  V30 14 C 0.642181 3.784827 -0.586582 0
M  V30 15 C 0.883770 3.397251 0.719211 0
M  V30 16 C 0.153138 4.217846 1.720335 0
M  V30 17 C 1.083377 -0.549306 1.948753 0
M  V30 18 C 0.701209 -1.825485 1.601641 0
M  V30 19 C -0.517439 -2.054589 0.858363 0
M  V30 20 C -1.065510 -3.240315 0.425560 0
M  V30 21 C -2.242686 -3.006433 -0.249502 0
M  V30 22 C -2.426778 -1.646932 -0.234302 0
M  V30 23 N -1.372608 -1.106758 0.438990 0
M  V30 24 C -3.553348 -0.903891 -0.838186 0
M  V30 25 C -4.753637 -1.820684 -0.869946 0
M  V30 26 N -4.374996 -3.054640 -1.505776 0
M  V30 27 C -3.281117 -3.770825 -0.929048 0
M  V30 28 O -3.145241 -5.032059 -0.964872 0
M  V30 29 H 3.163626 -4.948450 1.802214 0
M  V30 30 H 2.175437 -5.340660 3.223033 0
M  V30 31 H 1.814714 -6.141892 1.650924 0
M  V30 32 H 3.366400 -3.335141 3.041272 0
M  V30 33 H 2.352063 1.240398 4.111562 0
M  V30 34 H 3.689633 1.331224 2.953397 0
M  V30 35 H 2.975756 0.876104 0.284723 0
M  V30 36 H 2.606585 1.492968 -2.081978 0
M  V30 37 H -0.011907 4.603179 -0.871474 0
M  V30 38 H 0.200469 5.286582 1.426029 0
M  V30 39 H 0.663473 4.147792 2.695239 0
M  V30 40 H -0.911574 3.910839 1.749733 0
M  V30 41 H 0.488873 0.307972 1.680541 0
M  V30 42 H -0.691172 -4.235122 0.555847 0
M  V30 43 H -1.208624 -0.073021 0.630625 0
M  V30 44 H -3.811788 -0.003564 -0.216969 0
M  V30 45 H -3.293541 -0.519365 -1.847483 0
M  V30 46 H -4.991608 -2.043489 0.196459 0
M  V30 47 H -5.623745 -1.335704 -1.360744 0
M  V30 48 H -4.807928 -3.510722 -2.359068 0
M  V30 END ATOM
M  V30 BEGIN BOND
M  V30 1 1 1 2
M  V30 2 1 2 3
M  V30 3 2 3 4
M  V30 4 1 4 5
M  V30 5 2 5 6
M  V30 6 1 6 7
M  V30 7 1 7 8
M  V30 8 1 8 9
M  V30 9 2 9 10
M  V30 10 1 10 11
M  V30 11 2 11 12
M  V30 12 1 12 13
M  V30 13 1 12 14
M  V30 14 2 14 15
M  V30 15 1 15 16
M  V30 16 1 6 17
M  V30 17 2 17 18
M  V30 18 1 18 19
M  V30 19 2 19 20
M  V30 20 1 20 21
M  V30 21 2 21 22
M  V30 22 1 22 23
M  V30 23 1 22 24
M  V30 24 1 24 25
M  V30 25 1 25 26
M  V30 26 1 26 27
M  V30 27 2 27 28
M  V30 28 1 18 3
M  V30 29 1 23 19
M  V30 30 1 15 9
M  V30 31 1 27 21
M  V30 32 1 1 29
M  V30 33 1 1 30
M  V30 34 1 1 31
M  V30 35 1 4 32
M  V30 36 1 7 33
M  V30 37 1 7 34
M  V30 38 1 10 35
M  V30 39 1 11 36
M  V30 40 1 14 37
M  V30 41 1 16 38
M  V30 42 1 16 39
M  V30 43 1 16 40
M  V30 44 1 17 41
M  V30 45 1 20 42
M  V30 46 1 23 43
M  V30 47 1 24 44
M  V30 48 1 24 45
M  V30 49 1 25 46
M  V30 50 1 25 47
M  V30 51 1 26 48
M  V30 END BOND
M  V30 END CTAB
M  END
>  <Dataset>  (828) 
ChEMBL_Kinases

>  <Ligand_Instance>  (828) 
nan

>  <PDB_ID>  (828) 
nan

>  <Standardized_SMILES>  (828) 
COc1cnc(COc2ccc(F)cc2C)cc1-c1cc2c([nH]1)CCNC2=O

>  <Name>  (828) 
nan

>  <Pocket>  (828) 
nan

>  <ATP_Site>  (828) 
nan

>  <Peripheral>  (828) 
nan

>  <Num_H_Atoms_ProtBoundConf>  (828) 
nan

>  <Num_Resolved_Atoms>  (828) 
nan

>  <Num_Not_Resolved_Atoms>  (828) 
nan

$$$$
CHEMBL2203565
     RDKit          3D

  0  0  0  0  0  0  0  0  0  0999 V3000
M  V30 BEGIN CTAB
M  V30 COUNTS 48 51 0 0 0
M  V30 BEGIN ATOM
M  V30 1 C 0.367310 -5.026056 3.402762 0
M  V30 2 O -0.113911 -3.909824 2.682393 0
M  V30 3 C 0.674446 -2.770977 2.640136 0
M  V30 4 C 1.912340 -2.726479 3.292081 0
M  V30 5 N 2.692438 -1.619100 3.258251 0
M  V30 6 C 2.268568 -0.533770 2.581597 0
M  V30 7 C 3.191419 0.626357 2.608453 0
M  V30 8 O 2.829466 1.677700 1.773835 0
M  V30 9 C 2.682090 1.663274 0.413400 0
M  V30 10 C 2.838500 0.650414 -0.533865 0
M  V30 11 C 2.625353 0.905994 -1.862980 0
M  V30 12 F 2.801439 -0.134199 -2.696172 0
M  V30 13 C 2.253404 2.145047 -2.335111 0
M  V30 14 F 2.059576 2.325474 -3.664778 0
M  V30 15 C 2.093750 3.158457 -1.416056 0
M  V30 16 C 2.304026 2.928389 -0.053338 0
M  V30 17 C 2.084182 4.143167 0.791520 0
M  V30 18 C 1.068157 -0.582822 1.951957 0
M  V30 19 C 0.223982 -1.671754 1.943422 0
M  V30 20 C -1.043402 -1.606041 1.230023 0
M  V30 21 C -1.499599 -0.509007 0.531023 0
M  V30 22 C -2.728389 -0.778395 -0.023488 0
M  V30 23 C -3.036676 -2.071265 0.342173 0
M  V30 24 N -2.003465 -2.505728 1.080721 0
M  V30 25 C -4.328083 -2.669038 -0.110888 0
M  V30 26 C -4.808620 -2.053684 -1.390360 0
M  V30 27 N -4.887563 -0.593658 -1.269298 0
M  V30 28 C -3.646822 0.003844 -0.843311 0
M  V30 29 O -3.327001 1.189660 -1.158585 0
M  V30 30 H -0.332625 -5.870130 3.402155 0
M  V30 31 H 0.562412 -4.768600 4.481959 0
M  V30 32 H 1.355445 -5.373828 3.005871 0
M  V30 33 H 2.218803 -3.631782 3.830988 0
M  V30 34 H 4.208977 0.210714 2.360150 0
M  V30 35 H 3.313104 1.039934 3.631832 0
M  V30 36 H 3.129012 -0.270614 -0.060292 0
M  V30 37 H 1.801762 4.117597 -1.818212 0
M  V30 38 H 2.583516 5.030662 0.367327 0
M  V30 39 H 2.515459 3.993044 1.813405 0
M  V30 40 H 0.989525 4.310756 0.844410 0
M  V30 41 H 0.739180 0.297012 1.414631 0
M  V30 42 H -1.020044 0.453558 0.394201 0
M  V30 43 H -2.021623 -3.461938 1.464812 0
M  V30 44 H -5.070287 -2.437905 0.696294 0
M  V30 45 H -4.227016 -3.753591 -0.271618 0
M  V30 46 H -4.051625 -2.317463 -2.180359 0
M  V30 47 H -5.812438 -2.450012 -1.608009 0
M  V30 48 H -5.684427 0.059393 -1.440335 0
M  V30 END ATOM
M  V30 BEGIN BOND
M  V30 1 1 1 2
M  V30 2 1 2 3
M  V30 3 2 3 4
M  V30 4 1 4 5
M  V30 5 2 5 6
M  V30 6 1 6 7
M  V30 7 1 7 8
M  V30 8 1 8 9
M  V30 9 2 9 10
M  V30 10 1 10 11
M  V30 11 1 11 12
M  V30 12 2 11 13
M  V30 13 1 13 14
M  V30 14 1 13 15
M  V30 15 2 15 16
M  V30 16 1 16 17
M  V30 17 1 6 18
M  V30 18 2 18 19
M  V30 19 1 19 20
M  V30 20 2 20 21
M  V30 21 1 21 22
M  V30 22 2 22 23
M  V30 23 1 23 24
M  V30 24 1 23 25
M  V30 25 1 25 26
M  V30 26 1 26 27
M  V30 27 1 27 28
M  V30 28 2 28 29
M  V30 29 1 19 3
M  V30 30 1 24 20
M  V30 31 1 16 9
M  V30 32 1 28 22
M  V30 33 1 1 30
M  V30 34 1 1 31
M  V30 35 1 1 32
M  V30 36 1 4 33
M  V30 37 1 7 34
M  V30 38 1 7 35
M  V30 39 1 10 36
M  V30 40 1 15 37
M  V30 41 1 17 38
M  V30 42 1 17 39
M  V30 43 1 17 40
M  V30 44 1 18 41
M  V30 45 1 21 42
M  V30 46 1 24 43
M  V30 47 1 25 44
M  V30 48 1 25 45
M  V30 49 1 26 46
M  V30 50 1 26 47
M  V30 51 1 27 48
M  V30 END BOND
M  V30 END CTAB
M  END
>  <Dataset>  (829) 
ChEMBL_Kinases

>  <Ligand_Instance>  (829) 
nan

>  <PDB_ID>  (829) 
nan

>  <Standardized_SMILES>  (829) 
COc1cnc(COc2cc(F)c(F)cc2C)cc1-c1cc2c([nH]1)CCNC2=O

>  <Name>  (829) 
nan

>  <Pocket>  (829) 
nan

>  <ATP_Site>  (829) 
nan

>  <Peripheral>  (829) 
nan

>  <Num_H_Atoms_ProtBoundConf>  (829) 
nan

>  <Num_Resolved_Atoms>  (829) 
nan

>  <Num_Not_Resolved_Atoms>  (829) 
nan

$$$$
CHEMBL2203764
     RDKit          3D

  0  0  0  0  0  0  0  0  0  0999 V3000
M  V30 BEGIN CTAB
M  V30 COUNTS 57 62 0 0 0
M  V30 BEGIN ATOM
M  V30 1 C 2.252665 -2.536959 6.335603 0
M  V30 2 C 1.801362 -2.839118 4.951582 0
M  V30 3 C 2.605760 -2.819071 3.831125 0
M  V30 4 C 1.873659 -3.149585 2.691785 0
M  V30 5 C 2.268373 -3.267085 1.265064 0
M  V30 6 N 2.082321 -1.996381 0.639213 0
M  V30 7 C 2.835456 -0.915664 1.181757 0
M  V30 8 C 2.316345 0.419581 0.693686 0
M  V30 9 N 2.226363 0.339448 -0.751625 0
M  V30 10 C 1.514633 1.457525 -1.264587 0
M  V30 11 C 2.176660 2.602035 -1.610173 0
M  V30 12 Cl 3.909414 2.772357 -1.449504 0
M  V30 13 C 1.441028 3.642079 -2.097602 0
M  V30 14 N 0.100150 3.596648 -2.254324 0
M  V30 15 C -0.565139 2.469975 -1.915892 0
M  V30 16 N -1.876799 2.131200 -1.958478 0
M  V30 17 C -1.986927 0.872080 -1.498299 0
M  V30 18 C -3.258463 0.164416 -1.396874 0
M  V30 19 C -4.479554 0.714714 -1.762977 0
M  V30 20 N -5.419206 -0.235020 -1.526917 0
M  V30 21 C -6.860672 -0.195526 -1.729168 0
M  V30 22 N -4.843625 -1.329930 -1.039337 0
M  V30 23 C -3.501235 -1.116816 -0.945379 0
M  V30 24 C -2.421860 -2.014985 -0.466026 0
M  V30 25 C -2.054877 -1.995866 0.980919 0
M  V30 26 C -2.697251 -3.185041 0.398886 0
M  V30 27 N -0.765520 0.434873 -1.175024 0
M  V30 28 C 0.134955 1.390389 -1.418173 0
M  V30 29 C 2.872944 -0.839557 -1.295437 0
M  V30 30 C 2.118698 -2.059034 -0.805380 0
M  V30 31 N 0.627800 -3.355989 3.214753 0
M  V30 32 O 0.639989 -3.168326 4.492637 0
M  V30 33 H 1.891209 -3.306998 7.060954 0
M  V30 34 H 3.352408 -2.433436 6.359870 0
M  V30 35 H 1.839440 -1.580144 6.716765 0
M  V30 36 H 3.668850 -2.584364 3.791058 0
M  V30 37 H 3.345799 -3.602693 1.225108 0
M  V30 38 H 1.609931 -4.003785 0.783678 0
M  V30 39 H 3.935307 -1.020999 1.105349 0
M  V30 40 H 2.625391 -0.908144 2.291078 0
M  V30 41 H 1.352866 0.649909 1.186807 0
M  V30 42 H 3.052078 1.205276 1.002706 0
M  V30 43 H 1.854895 4.607196 -2.407675 0
M  V30 44 H -2.614436 2.796315 -2.305137 0
M  V30 45 H -4.739692 1.687518 -2.163532 0
M  V30 46 H -7.355319 -0.217360 -0.743190 0
M  V30 47 H -7.167364 0.772314 -2.209439 0
M  V30 48 H -7.161572 -1.013271 -2.396050 0
M  V30 49 H -1.543928 -2.046288 -1.152384 0
M  V30 50 H -0.991655 -2.052170 1.292605 0
M  V30 51 H -2.652025 -1.327887 1.651446 0
M  V30 52 H -2.099535 -4.100733 0.325428 0
M  V30 53 H -3.768577 -3.371672 0.620804 0
M  V30 54 H 3.921073 -0.867379 -0.927455 0
M  V30 55 H 2.929466 -0.801310 -2.394550 0
M  V30 56 H 1.085271 -1.997803 -1.174302 0
M  V30 57 H 2.624683 -2.983214 -1.164686 0
M  V30 END ATOM
M  V30 BEGIN BOND
M  V30 1 1 1 2
M  V30 2 2 2 3
M  V30 3 1 3 4
M  V30 4 1 4 5
M  V30 5 1 5 6
M  V30 6 1 6 7
M  V30 7 1 7 8
M  V30 8 1 8 9
M  V30 9 1 9 10
M  V30 10 2 10 11
M  V30 11 1 11 12
M  V30 12 1 11 13
M  V30 13 2 13 14
M  V30 14 1 14 15
M  V30 15 1 15 16
M  V30 16 1 16 17
M  V30 17 1 17 18
M  V30 18 2 18 19
M  V30 19 1 19 20
M  V30 20 1 20 21
M  V30 21 1 20 22
M  V30 22 2 22 23
M  V30 23 1 23 24
M  V30 24 1 24 25
M  V30 25 1 25 26
M  V30 26 2 17 27
M  V30 27 1 27 28
M  V30 28 1 9 29
M  V30 29 1 29 30
M  V30 30 2 4 31
M  V30 31 1 31 32
M  V30 32 1 32 2
M  V30 33 1 30 6
M  V30 34 1 28 10
M  V30 35 2 28 15
M  V30 36 1 23 18
M  V30 37 1 26 24
M  V30 38 1 1 33
M  V30 39 1 1 34
M  V30 40 1 1 35
M  V30 41 1 3 36
M  V30 42 1 5 37
M  V30 43 1 5 38
M  V30 44 1 7 39
M  V30 45 1 7 40
M  V30 46 1 8 41
M  V30 47 1 8 42
M  V30 48 1 13 43
M  V30 49 1 16 44
M  V30 50 1 19 45
M  V30 51 1 21 46
M  V30 52 1 21 47
M  V30 53 1 21 48
M  V30 54 1 24 49
M  V30 55 1 25 50
M  V30 56 1 25 51
M  V30 57 1 26 52
M  V30 58 1 26 53
M  V30 59 1 29 54
M  V30 60 1 29 55
M  V30 61 1 30 56
M  V30 62 1 30 57
M  V30 END BOND
M  V30 END CTAB
M  END
>  <Dataset>  (830) 
ChEMBL_Kinases

>  <Ligand_Instance>  (830) 
nan

>  <PDB_ID>  (830) 
nan

>  <Standardized_SMILES>  (830) 
Cc1cc(CN2CCN(c3c(Cl)cnc4[nH]c(-c5cn(C)nc5C5CC5)nc34)CC2)no1

>  <Name>  (830) 
nan

>  <Pocket>  (830) 
nan

>  <ATP_Site>  (830) 
nan

>  <Peripheral>  (830) 
nan

>  <Num_H_Atoms_ProtBoundConf>  (830) 
nan

>  <Num_Resolved_Atoms>  (830) 
nan

>  <Num_Not_Resolved_Atoms>  (830) 
nan

$$$$
CHEMBL2203765
     RDKit          3D

  0  0  0  0  0  0  0  0  0  0999 V3000
M  V30 BEGIN CTAB
M  V30 COUNTS 63 68 0 0 0
M  V30 BEGIN ATOM
M  V30 1 C 7.423370 -0.767776 2.460783 0
M  V30 2 C 6.346131 0.178969 2.157438 0
M  V30 3 C 6.187212 1.125224 1.189433 0
M  V30 4 C 4.975580 1.691502 1.418721 0
M  V30 5 C 4.303682 2.763504 0.678348 0
M  V30 6 N 3.470961 2.333242 -0.395021 0
M  V30 7 C 2.892227 3.503852 -1.010186 0
M  V30 8 C 1.619802 3.977292 -0.289220 0
M  V30 9 N 0.655598 2.908789 -0.124750 0
M  V30 10 C -0.560815 2.996361 0.542442 0
M  V30 11 C -1.010616 4.148707 1.131987 0
M  V30 12 Br -0.031420 5.779099 1.099801 0
M  V30 13 C -2.205661 4.271721 1.806105 0
M  V30 14 N -3.010588 3.178813 1.903025 0
M  V30 15 C -2.595867 2.015174 1.328663 0
M  V30 16 N -3.274668 0.857529 1.339863 0
M  V30 17 C -2.510276 -0.018217 0.667458 0
M  V30 18 C -2.818770 -1.421683 0.405917 0
M  V30 19 C -4.009790 -1.926871 0.886548 0
M  V30 20 C -4.341946 -3.269948 0.654338 0
M  V30 21 C -3.485820 -4.090054 -0.051640 0
M  V30 22 N -3.893750 -5.427532 -0.242396 0
M  V30 23 C -5.161366 -5.841966 0.320646 0
M  V30 24 C -5.283433 -7.337655 0.132039 0
M  V30 25 O -5.254365 -7.711131 -1.204511 0
M  V30 26 C -4.176733 -7.166033 -1.871455 0
M  V30 27 C -3.183837 -6.470974 -0.952912 0
M  V30 28 C -2.307021 -3.539450 -0.511905 0
M  V30 29 C -1.947081 -2.223093 -0.302533 0
M  V30 30 N -1.412027 0.650675 0.284828 0
M  V30 31 C -1.400857 1.912651 0.660870 0
M  V30 32 C 1.195166 1.744229 -0.786119 0
M  V30 33 C 2.477470 1.356833 -0.025193 0
M  V30 34 N 4.425141 1.083924 2.513013 0
M  V30 35 O 5.277341 0.192848 2.915737 0
M  V30 36 H 7.940851 -0.394408 3.393333 0
M  V30 37 H 7.041944 -1.771343 2.740034 0
M  V30 38 H 8.182937 -0.763522 1.672616 0
M  V30 39 H 6.895627 1.337664 0.433256 0
M  V30 40 H 5.117490 3.387913 0.228816 0
M  V30 41 H 3.804535 3.427547 1.424428 0
M  V30 42 H 3.609802 4.365522 -0.831640 0
M  V30 43 H 2.791792 3.472655 -2.094413 0
M  V30 44 H 1.990312 4.238719 0.724002 0
M  V30 45 H 1.274420 4.816228 -0.902504 0
M  V30 46 H -2.588120 5.162555 2.280424 0
M  V30 47 H -4.212347 0.653655 1.777919 0
M  V30 48 H -4.696823 -1.298466 1.443942 0
M  V30 49 H -5.304159 -3.588500 1.070216 0
M  V30 50 H -5.053116 -5.649043 1.428353 0
M  V30 51 H -6.023506 -5.290613 -0.055546 0
M  V30 52 H -4.444782 -7.851116 0.644299 0
M  V30 53 H -6.270324 -7.656857 0.547526 0
M  V30 54 H -3.679018 -7.984652 -2.441350 0
M  V30 55 H -4.575247 -6.380801 -2.562354 0
M  V30 56 H -2.735300 -7.231598 -0.253797 0
M  V30 57 H -2.379855 -5.979131 -1.535179 0
M  V30 58 H -1.632422 -4.155763 -1.058698 0
M  V30 59 H -1.017896 -1.810526 -0.671572 0
M  V30 60 H 0.534711 0.892516 -0.889347 0
M  V30 61 H 1.457328 1.997162 -1.861010 0
M  V30 62 H 2.714769 0.338871 -0.400480 0
M  V30 63 H 2.227958 1.324207 1.038859 0
M  V30 END ATOM
M  V30 BEGIN BOND
M  V30 1 1 1 2
M  V30 2 2 2 3
M  V30 3 1 3 4
M  V30 4 1 4 5
M  V30 5 1 5 6
M  V30 6 1 6 7
M  V30 7 1 7 8
M  V30 8 1 8 9
M  V30 9 1 9 10
M  V30 10 2 10 11
M  V30 11 1 11 12
M  V30 12 1 11 13
M  V30 13 2 13 14
M  V30 14 1 14 15
M  V30 15 1 15 16
M  V30 16 1 16 17
M  V30 17 1 17 18
M  V30 18 2 18 19
M  V30 19 1 19 20
M  V30 20 2 20 21
M  V30 21 1 21 22
M  V30 22 1 22 23
M  V30 23 1 23 24
M  V30 24 1 24 25
M  V30 25 1 25 26
M  V30 26 1 26 27
M  V30 27 1 21 28
M  V30 28 2 28 29
M  V30 29 2 17 30
M  V30 30 1 30 31
M  V30 31 1 9 32
M  V30 32 1 32 33
M  V30 33 2 4 34
M  V30 34 1 34 35
M  V30 35 1 35 2
M  V30 36 1 33 6
M  V30 37 1 31 10
M  V30 38 2 31 15
M  V30 39 1 29 18
M  V30 40 1 27 22
M  V30 41 1 1 36
M  V30 42 1 1 37
M  V30 43 1 1 38
M  V30 44 1 3 39
M  V30 45 1 5 40
M  V30 46 1 5 41
M  V30 47 1 7 42
M  V30 48 1 7 43
M  V30 49 1 8 44
M  V30 50 1 8 45
M  V30 51 1 13 46
M  V30 52 1 16 47
M  V30 53 1 19 48
M  V30 54 1 20 49
M  V30 55 1 23 50
M  V30 56 1 23 51
M  V30 57 1 24 52
M  V30 58 1 24 53
M  V30 59 1 26 54
M  V30 60 1 26 55
M  V30 61 1 27 56
M  V30 62 1 27 57
M  V30 63 1 28 58
M  V30 64 1 29 59
M  V30 65 1 32 60
M  V30 66 1 32 61
M  V30 67 1 33 62
M  V30 68 1 33 63
M  V30 END BOND
M  V30 END CTAB
M  END
>  <Dataset>  (831) 
ChEMBL_Kinases

>  <Ligand_Instance>  (831) 
nan

>  <PDB_ID>  (831) 
nan

>  <Standardized_SMILES>  (831) 
Cc1cc(CN2CCN(c3c(Br)cnc4[nH]c(-c5ccc(N6CCOCC6)cc5)nc34)CC2)no1

>  <Name>  (831) 
nan

>  <Pocket>  (831) 
nan

>  <ATP_Site>  (831) 
nan

>  <Peripheral>  (831) 
nan

>  <Num_H_Atoms_ProtBoundConf>  (831) 
nan

>  <Num_Resolved_Atoms>  (831) 
nan

>  <Num_Not_Resolved_Atoms>  (831) 
nan

$$$$
CHEMBL2203766
     RDKit          3D

  0  0  0  0  0  0  0  0  0  0999 V3000
M  V30 BEGIN CTAB
M  V30 COUNTS 69 74 0 0 0
M  V30 BEGIN ATOM
M  V30 1 C 5.691312 0.073024 4.577440 0
M  V30 2 C 5.572603 -0.997034 3.580443 0
M  V30 3 O 5.136711 -2.121318 3.921836 0
M  V30 4 N 5.969410 -0.703070 2.227985 0
M  V30 5 C 6.490509 0.538603 1.673648 0
M  V30 6 C 5.630539 0.973840 0.484010 0
M  V30 7 N 4.465600 0.104332 0.378944 0
M  V30 8 C 3.104977 0.474666 0.522023 0
M  V30 9 C 2.070094 -0.416584 0.353250 0
M  V30 10 C 0.752388 -0.046583 0.496567 0
M  V30 11 C 0.384474 1.243919 0.819323 0
M  V30 12 C -1.006436 1.658498 0.974719 0
M  V30 13 N -2.031385 0.813743 0.806680 0
M  V30 14 C -3.222702 1.383133 0.990993 0
M  V30 15 C -4.553176 1.034716 0.959103 0
M  V30 16 N -4.910706 -0.298775 0.632658 0
M  V30 17 C -3.771941 -1.139329 0.319510 0
M  V30 18 C -4.136126 -2.558611 -0.042440 0
M  V30 19 N -5.090095 -2.611433 -1.128758 0
M  V30 20 C -4.461456 -2.286584 -2.363359 0
M  V30 21 C -3.381162 -3.243904 -2.683355 0
M  V30 22 C -2.019622 -3.377218 -2.519295 0
M  V30 23 C -1.589890 -4.558775 -3.060122 0
M  V30 24 C -0.156573 -4.938978 -3.011966 0
M  V30 25 O -2.667617 -5.119019 -3.536465 0
M  V30 26 N -3.724137 -4.391184 -3.339124 0
M  V30 27 C -6.232781 -1.752547 -0.847483 0
M  V30 28 C -6.086440 -1.107519 0.521456 0
M  V30 29 C -5.451697 2.036404 1.241076 0
M  V30 30 Br -7.322811 1.752290 1.234576 0
M  V30 31 C -5.120147 3.337549 1.547236 0
M  V30 32 N -3.804716 3.643220 1.569190 0
M  V30 33 C -2.910064 2.703071 1.302315 0
M  V30 34 N -1.573863 2.825569 1.281768 0
M  V30 35 C 1.405524 2.155754 0.993750 0
M  V30 36 C 2.717359 1.755449 0.843374 0
M  V30 37 C 4.934454 -1.216682 0.104362 0
M  V30 38 C 5.907936 -1.652971 1.146809 0
M  V30 39 H 4.724795 0.548619 4.734512 0
M  V30 40 H 6.510513 0.797070 4.363258 0
M  V30 41 H 5.985214 -0.383905 5.561483 0
M  V30 42 H 6.519276 1.345550 2.399450 0
M  V30 43 H 7.528515 0.311792 1.353964 0
M  V30 44 H 5.286862 1.994745 0.660948 0
M  V30 45 H 6.241176 0.875814 -0.438913 0
M  V30 46 H 2.235845 -1.445848 0.101155 0
M  V30 47 H -0.044349 -0.758653 0.360104 0
M  V30 48 H -3.164738 -0.676966 -0.520214 0
M  V30 49 H -3.146056 -1.199345 1.230642 0
M  V30 50 H -3.195135 -3.024656 -0.412233 0
M  V30 51 H -4.420507 -3.168598 0.832822 0
M  V30 52 H -3.981668 -1.285283 -2.286931 0
M  V30 53 H -5.217781 -2.223868 -3.176363 0
M  V30 54 H -1.505025 -2.549849 -2.005164 0
M  V30 55 H 0.436932 -4.045351 -3.318770 0
M  V30 56 H 0.088908 -5.768011 -3.676708 0
M  V30 57 H 0.156656 -5.163925 -1.957230 0
M  V30 58 H -7.140395 -2.377719 -0.880411 0
M  V30 59 H -6.210158 -0.935880 -1.592254 0
M  V30 60 H -7.031865 -0.654435 0.846074 0
M  V30 61 H -5.956912 -1.976141 1.247983 0
M  V30 62 H -5.809776 4.130568 1.769801 0
M  V30 63 H -1.013290 3.680440 1.469631 0
M  V30 64 H 1.103806 3.163067 1.246344 0
M  V30 65 H 3.408336 2.556410 1.005980 0
M  V30 66 H 4.149408 -1.969794 -0.102830 0
M  V30 67 H 5.516453 -1.161080 -0.868398 0
M  V30 68 H 6.946194 -1.792845 0.764974 0
M  V30 69 H 5.599259 -2.617368 1.618945 0
M  V30 END ATOM
M  V30 BEGIN BOND
M  V30 1 1 1 2
M  V30 2 2 2 3
M  V30 3 1 2 4
M  V30 4 1 4 5
M  V30 5 1 5 6
M  V30 6 1 6 7
M  V30 7 1 7 8
M  V30 8 2 8 9
M  V30 9 1 9 10
M  V30 10 2 10 11
M  V30 11 1 11 12
M  V30 12 2 12 13
M  V30 13 1 13 14
M  V30 14 2 14 15
M  V30 15 1 15 16
M  V30 16 1 16 17
M  V30 17 1 17 18
M  V30 18 1 18 19
M  V30 19 1 19 20
M  V30 20 1 20 21
M  V30 21 1 21 22
M  V30 22 2 22 23
M  V30 23 1 23 24
M  V30 24 1 23 25
M  V30 25 1 25 26
M  V30 26 1 19 27
M  V30 27 1 27 28
M  V30 28 1 15 29
M  V30 29 1 29 30
M  V30 30 2 29 31
M  V30 31 1 31 32
M  V30 32 2 32 33
M  V30 33 1 33 34
M  V30 34 1 11 35
M  V30 35 2 35 36
M  V30 36 1 7 37
M  V30 37 1 37 38
M  V30 38 1 38 4
M  V30 39 1 36 8
M  V30 40 1 34 12
M  V30 41 1 33 14
M  V30 42 1 28 16
M  V30 43 2 26 21
M  V30 44 1 1 39
M  V30 45 1 1 40
M  V30 46 1 1 41
M  V30 47 1 5 42
M  V30 48 1 5 43
M  V30 49 1 6 44
M  V30 50 1 6 45
M  V30 51 1 9 46
M  V30 52 1 10 47
M  V30 53 1 17 48
M  V30 54 1 17 49
M  V30 55 1 18 50
M  V30 56 1 18 51
M  V30 57 1 20 52
M  V30 58 1 20 53
M  V30 59 1 22 54
M  V30 60 1 24 55
M  V30 61 1 24 56
M  V30 62 1 24 57
M  V30 63 1 27 58
M  V30 64 1 27 59
M  V30 65 1 28 60
M  V30 66 1 28 61
M  V30 67 1 31 62
M  V30 68 1 34 63
M  V30 69 1 35 64
M  V30 70 1 36 65
M  V30 71 1 37 66
M  V30 72 1 37 67
M  V30 73 1 38 68
M  V30 74 1 38 69
M  V30 END BOND
M  V30 END CTAB
M  END
>  <Dataset>  (832) 
ChEMBL_Kinases

>  <Ligand_Instance>  (832) 
nan

>  <PDB_ID>  (832) 
nan

>  <Standardized_SMILES>  (832) 
CC(=O)N1CCN(c2ccc(-c3nc4c(N5CCN(Cc6cc(C)on6)CC5)c(Br)cnc4[nH]3)cc2)CC1

>  <Name>  (832) 
nan

>  <Pocket>  (832) 
nan

>  <ATP_Site>  (832) 
nan

>  <Peripheral>  (832) 
nan

>  <Num_H_Atoms_ProtBoundConf>  (832) 
nan

>  <Num_Resolved_Atoms>  (832) 
nan

>  <Num_Not_Resolved_Atoms>  (832) 
nan

$$$$
CHEMBL2203560
     RDKit          3D

  0  0  0  0  0  0  0  0  0  0999 V3000
M  V30 BEGIN CTAB
M  V30 COUNTS 47 50 0 0 0
M  V30 BEGIN ATOM
M  V30 1 C 1.391959 -3.773046 4.167220 0
M  V30 2 O 0.834231 -3.079713 3.067232 0
M  V30 3 C 1.546438 -2.206265 2.260239 0
M  V30 4 C 2.876522 -2.017840 2.567404 0
M  V30 5 N 3.592167 -1.176649 1.802378 0
M  V30 6 C 3.027921 -0.524293 0.751229 0
M  V30 7 C 3.850268 0.399592 -0.074157 0
M  V30 8 C 3.769289 1.810106 0.522548 0
M  V30 9 C 2.364090 2.287307 0.536207 0
M  V30 10 C 2.023427 2.961782 -0.630077 0
M  V30 11 C 0.755111 3.481233 -0.803376 0
M  V30 12 C -0.154799 3.306302 0.218493 0
M  V30 13 F -1.404963 3.811607 0.061730 0
M  V30 14 C 0.180511 2.629126 1.394286 0
M  V30 15 C 1.459987 2.108944 1.561069 0
M  V30 16 C 1.692636 -0.744706 0.482161 0
M  V30 17 C 0.900755 -1.585278 1.215227 0
M  V30 18 C -0.502638 -1.770229 0.873696 0
M  V30 19 C -1.463266 -2.556720 1.469558 0
M  V30 20 C -2.673760 -2.434216 0.820443 0
M  V30 21 C -2.425457 -1.541011 -0.201109 0
M  V30 22 N -1.135620 -1.163550 -0.147981 0
M  V30 23 C -3.462463 -1.108121 -1.174047 0
M  V30 24 C -4.814702 -1.178370 -0.538733 0
M  V30 25 N -5.026289 -2.511877 -0.036825 0
M  V30 26 C -4.034754 -2.949370 0.914933 0
M  V30 27 O -4.259528 -3.770506 1.854535 0
M  V30 28 H 2.352497 -4.257287 3.938478 0
M  V30 29 H 1.568895 -3.055706 5.004531 0
M  V30 30 H 0.646285 -4.534581 4.485058 0
M  V30 31 H 3.322834 -2.534582 3.399765 0
M  V30 32 H 3.521230 0.398716 -1.133843 0
M  V30 33 H 4.892130 0.030642 -0.002820 0
M  V30 34 H 4.060320 1.700607 1.591890 0
M  V30 35 H 4.460066 2.493183 0.026496 0
M  V30 36 H 2.688616 3.134596 -1.471167 0
M  V30 37 H 0.465271 4.012286 -1.706093 0
M  V30 38 H -0.527268 2.486235 2.203418 0
M  V30 39 H 1.808446 1.573714 2.430264 0
M  V30 40 H 1.311180 -0.199199 -0.359857 0
M  V30 41 H -1.344820 -3.199540 2.326151 0
M  V30 42 H -0.658387 -0.493471 -0.795169 0
M  V30 43 H -3.295063 -0.027833 -1.440110 0
M  V30 44 H -3.390776 -1.660627 -2.131438 0
M  V30 45 H -5.615448 -0.856387 -1.239440 0
M  V30 46 H -4.810768 -0.447632 0.304845 0
M  V30 47 H -5.772228 -3.211639 -0.243645 0
M  V30 END ATOM
M  V30 BEGIN BOND
M  V30 1 1 1 2
M  V30 2 1 2 3
M  V30 3 2 3 4
M  V30 4 1 4 5
M  V30 5 2 5 6
M  V30 6 1 6 7
M  V30 7 1 7 8
M  V30 8 1 8 9
M  V30 9 2 9 10
M  V30 10 1 10 11
M  V30 11 2 11 12
M  V30 12 1 12 13
M  V30 13 1 12 14
M  V30 14 2 14 15
M  V30 15 1 6 16
M  V30 16 2 16 17
M  V30 17 1 17 18
M  V30 18 2 18 19
M  V30 19 1 19 20
M  V30 20 2 20 21
M  V30 21 1 21 22
M  V30 22 1 21 23
M  V30 23 1 23 24
M  V30 24 1 24 25
M  V30 25 1 25 26
M  V30 26 2 26 27
M  V30 27 1 17 3
M  V30 28 1 22 18
M  V30 29 1 15 9
M  V30 30 1 26 20
M  V30 31 1 1 28
M  V30 32 1 1 29
M  V30 33 1 1 30
M  V30 34 1 4 31
M  V30 35 1 7 32
M  V30 36 1 7 33
M  V30 37 1 8 34
M  V30 38 1 8 35
M  V30 39 1 10 36
M  V30 40 1 11 37
M  V30 41 1 14 38
M  V30 42 1 15 39
M  V30 43 1 16 40
M  V30 44 1 19 41
M  V30 45 1 22 42
M  V30 46 1 23 43
M  V30 47 1 23 44
M  V30 48 1 24 45
M  V30 49 1 24 46
M  V30 50 1 25 47
M  V30 END BOND
M  V30 END CTAB
M  END
>  <Dataset>  (833) 
ChEMBL_Kinases

>  <Ligand_Instance>  (833) 
nan

>  <PDB_ID>  (833) 
nan

>  <Standardized_SMILES>  (833) 
COc1cnc(CCc2ccc(F)cc2)cc1-c1cc2c([nH]1)CCNC2=O

>  <Name>  (833) 
nan

>  <Pocket>  (833) 
nan

>  <ATP_Site>  (833) 
nan

>  <Peripheral>  (833) 
nan

>  <Num_H_Atoms_ProtBoundConf>  (833) 
nan

>  <Num_Resolved_Atoms>  (833) 
nan

>  <Num_Not_Resolved_Atoms>  (833) 
nan

$$$$
CHEMBL220497
     RDKit          3D

  0  0  0  0  0  0  0  0  0  0999 V3000
M  V30 BEGIN CTAB
M  V30 COUNTS 37 42 0 0 0
M  V30 BEGIN ATOM
M  V30 1 O -1.061263 -3.756714 2.397363 0
M  V30 2 C -0.174905 -2.986156 1.999169 0
M  V30 3 N 1.096051 -3.457569 2.374952 0
M  V30 4 C 2.070312 -2.515862 1.902933 0
M  V30 5 C 1.260810 -1.461312 1.188532 0
M  V30 6 C -0.084362 -1.741124 1.257935 0
M  V30 7 C -1.078555 -0.987241 0.723974 0
M  V30 8 C -0.685649 0.152642 0.058666 0
M  V30 9 C 0.651011 0.431669 -0.011347 0
M  V30 10 S 1.383974 1.823925 -0.806386 0
M  V30 11 C 3.106497 1.337132 -0.381387 0
M  V30 12 C 4.271304 2.000499 -0.700827 0
M  V30 13 C 5.452832 1.441931 -0.273807 0
M  V30 14 C 5.346512 0.273917 0.430732 0
M  V30 15 C 4.171133 -0.326677 0.711148 0
M  V30 16 C 2.949248 0.167624 0.320528 0
M  V30 17 C 1.680332 -0.305420 0.514998 0
M  V30 18 C -1.876938 0.866367 -0.465594 0
M  V30 19 C -2.977588 -0.015155 -0.010381 0
M  V30 20 C -4.311862 0.225515 -0.256508 0
M  V30 21 C -5.265165 -0.652557 0.207730 0
M  V30 22 C -4.833317 -1.755503 0.912267 0
M  V30 23 C -3.484906 -1.938579 1.124343 0
M  V30 24 C -2.502850 -1.101302 0.687093 0
M  V30 25 H 1.554893 -4.249746 2.873403 0
M  V30 26 H 2.714029 -2.971673 1.130072 0
M  V30 27 H 2.664377 -2.067528 2.722472 0
M  V30 28 H 4.228447 2.909994 -1.258647 0
M  V30 29 H 6.334606 1.997893 -0.548393 0
M  V30 30 H 6.327191 -0.122482 0.744108 0
M  V30 31 H 4.317861 -1.236208 1.274832 0
M  V30 32 H -1.934874 1.881562 -0.039263 0
M  V30 33 H -1.899448 0.890697 -1.565509 0
M  V30 34 H -4.702246 1.070896 -0.800942 0
M  V30 35 H -6.324813 -0.516167 0.045625 0
M  V30 36 H -5.566398 -2.466264 1.290927 0
M  V30 37 H -3.218632 -2.797450 1.668157 0
M  V30 END ATOM
M  V30 BEGIN BOND
M  V30 1 2 1 2
M  V30 2 1 2 3
M  V30 3 1 3 4
M  V30 4 1 4 5
M  V30 5 2 5 6
M  V30 6 1 6 7
M  V30 7 2 7 8
M  V30 8 1 8 9
M  V30 9 1 9 10
M  V30 10 1 10 11
M  V30 11 2 11 12
M  V30 12 1 12 13
M  V30 13 2 13 14
M  V30 14 1 14 15
M  V30 15 2 15 16
M  V30 16 1 16 17
M  V30 17 1 8 18
M  V30 18 1 18 19
M  V30 19 2 19 20
M  V30 20 1 20 21
M  V30 21 2 21 22
M  V30 22 1 22 23
M  V30 23 2 23 24
M  V30 24 1 6 2
M  V30 25 1 24 7
M  V30 26 1 17 5
M  V30 27 1 24 19
M  V30 28 2 17 9
M  V30 29 1 16 11
M  V30 30 1 3 25
M  V30 31 1 4 26
M  V30 32 1 4 27
M  V30 33 1 12 28
M  V30 34 1 13 29
M  V30 35 1 14 30
M  V30 36 1 15 31
M  V30 37 1 18 32
M  V30 38 1 18 33
M  V30 39 1 20 34
M  V30 40 1 21 35
M  V30 41 1 22 36
M  V30 42 1 23 37
M  V30 END BOND
M  V30 END CTAB
M  END
>  <Dataset>  (834) 
ChEMBL_Kinases

>  <Ligand_Instance>  (834) 
nan

>  <PDB_ID>  (834) 
nan

>  <Standardized_SMILES>  (834) 
O=C1NCc2c1c1c(c3sc4ccccc4c23)Cc2ccccc2-1

>  <Name>  (834) 
nan

>  <Pocket>  (834) 
nan

>  <ATP_Site>  (834) 
nan

>  <Peripheral>  (834) 
nan

>  <Num_H_Atoms_ProtBoundConf>  (834) 
nan

>  <Num_Resolved_Atoms>  (834) 
nan

>  <Num_Not_Resolved_Atoms>  (834) 
nan

$$$$
CHEMBL220473
     RDKit          3D

  0  0  0  0  0  0  0  0  0  0999 V3000
M  V30 BEGIN CTAB
M  V30 COUNTS 57 59 0 0 0
M  V30 BEGIN ATOM
M  V30 1 C 3.278833 -2.761928 1.873197 0
M  V30 2 N 4.190684 -1.802371 2.463117 0
M  V30 3 C 5.234964 -2.537813 3.119517 0
M  V30 4 C 4.715393 -0.884508 1.442821 0
M  V30 5 C 3.575853 -0.053524 1.009136 0
M  V30 6 O 2.610445 -0.465429 1.691858 0
M  V30 7 N 3.461369 0.984510 0.067157 0
M  V30 8 C 2.113810 1.435231 0.056166 0
M  V30 9 C 1.257030 0.801979 -0.818092 0
M  V30 10 C -0.075829 1.109988 -0.952651 0
M  V30 11 C -0.490341 2.158308 -0.091425 0
M  V30 12 C 0.305210 2.816215 0.785629 0
M  V30 13 C 1.631456 2.429537 0.843579 0
M  V30 14 Cl 2.782522 3.179050 1.920766 0
M  V30 15 N -1.854982 2.667202 -0.025617 0
M  V30 16 C -3.085745 2.004041 0.312748 0
M  V30 17 O -2.162103 1.177081 0.426907 0
M  V30 18 N -4.298616 1.353402 0.645396 0
M  V30 19 C -4.481789 -0.033060 1.033876 0
M  V30 20 C -5.447941 -0.383021 1.932490 0
M  V30 21 N -5.529227 -1.697922 2.240169 0
M  V30 22 C -4.651715 -2.552863 1.636480 0
M  V30 23 C -4.836399 -3.938384 2.046974 0
M  V30 24 N -4.987591 -5.060583 2.358134 0
M  V30 25 C -3.652055 -2.228068 0.713908 0
M  V30 26 N -3.653947 -0.919328 0.477952 0
M  V30 27 O -2.884185 -3.267595 0.242765 0
M  V30 28 C -1.492317 -3.289896 0.216979 0
M  V30 29 C -0.976810 -2.169925 -0.686822 0
M  V30 30 C -1.366858 -2.404470 -2.114667 0
M  V30 31 C -0.834267 -1.359673 -3.024407 0
M  V30 32 C -1.347505 0.017570 -2.850989 0
M  V30 33 O -1.051112 0.641473 -1.710052 0
M  V30 34 H 3.581060 -3.824440 2.115096 0
M  V30 35 H 2.247303 -2.695136 2.277389 0
M  V30 36 H 3.326105 -2.732196 0.761075 0
M  V30 37 H 6.152177 -2.684201 2.539526 0
M  V30 38 H 5.409233 -2.045705 4.119451 0
M  V30 39 H 4.874366 -3.567489 3.403250 0
M  V30 40 H 5.156332 -1.519411 0.657106 0
M  V30 41 H 5.543063 -0.288044 1.876278 0
M  V30 42 H 4.373202 1.183098 -0.395979 0
M  V30 43 H 1.585688 0.005442 -1.468967 0
M  V30 44 H -0.006902 3.601258 1.425077 0
M  V30 45 H -1.931920 3.678724 -0.258018 0
M  V30 46 H -5.138268 1.967637 0.584075 0
M  V30 47 H -6.026297 0.458419 2.283178 0
M  V30 48 H -0.990275 -3.176176 1.182436 0
M  V30 49 H -1.176884 -4.275123 -0.218027 0
M  V30 50 H 0.112293 -2.118223 -0.591546 0
M  V30 51 H -1.481568 -1.245748 -0.370510 0
M  V30 52 H -1.050094 -3.417045 -2.470396 0
M  V30 53 H -2.492449 -2.393528 -2.204339 0
M  V30 54 H 0.284067 -1.365397 -2.891292 0
M  V30 55 H -0.944492 -1.710987 -4.093304 0
M  V30 56 H -0.889245 0.621983 -3.718000 0
M  V30 57 H -2.450719 0.063312 -3.135466 0
M  V30 END ATOM
M  V30 BEGIN BOND
M  V30 1 1 1 2
M  V30 2 1 2 3
M  V30 3 1 2 4
M  V30 4 1 4 5
M  V30 5 2 5 6
M  V30 6 1 5 7
M  V30 7 1 7 8
M  V30 8 2 8 9
M  V30 9 1 9 10
M  V30 10 2 10 11
M  V30 11 1 11 12
M  V30 12 2 12 13
M  V30 13 1 13 14
M  V30 14 1 11 15
M  V30 15 1 15 16
M  V30 16 2 16 17
M  V30 17 1 16 18
M  V30 18 1 18 19
M  V30 19 1 19 20
M  V30 20 2 20 21
M  V30 21 1 21 22
M  V30 22 1 22 23
M  V30 23 3 23 24
M  V30 24 2 22 25
M  V30 25 1 25 26
M  V30 26 1 25 27
M  V30 27 1 27 28
M  V30 28 1 28 29
M  V30 29 1 29 30
M  V30 30 1 30 31
M  V30 31 1 31 32
M  V30 32 1 32 33
M  V30 33 1 13 8
M  V30 34 2 26 19
M  V30 35 1 33 10
M  V30 36 1 1 34
M  V30 37 1 1 35
M  V30 38 1 1 36
M  V30 39 1 3 37
M  V30 40 1 3 38
M  V30 41 1 3 39
M  V30 42 1 4 40
M  V30 43 1 4 41
M  V30 44 1 7 42
M  V30 45 1 9 43
M  V30 46 1 12 44
M  V30 47 1 15 45
M  V30 48 1 18 46
M  V30 49 1 20 47
M  V30 50 1 28 48
M  V30 51 1 28 49
M  V30 52 1 29 50
M  V30 53 1 29 51
M  V30 54 1 30 52
M  V30 55 1 30 53
M  V30 56 1 31 54
M  V30 57 1 31 55
M  V30 58 1 32 56
M  V30 59 1 32 57
M  V30 END BOND
M  V30 END CTAB
M  END
>  <Dataset>  (835) 
ChEMBL_Kinases

>  <Ligand_Instance>  (835) 
nan

>  <PDB_ID>  (835) 
nan

>  <Standardized_SMILES>  (835) 
CN(C)CC(=O)Nc1cc2c(cc1Cl)NC(=O)Nc1cnc(C#N)c(n1)OCCCCCO2

>  <Name>  (835) 
nan

>  <Pocket>  (835) 
nan

>  <ATP_Site>  (835) 
nan

>  <Peripheral>  (835) 
nan

>  <Num_H_Atoms_ProtBoundConf>  (835) 
nan

>  <Num_Resolved_Atoms>  (835) 
nan

>  <Num_Not_Resolved_Atoms>  (835) 
nan

$$$$
CHEMBL220465
     RDKit          3D

  0  0  0  0  0  0  0  0  0  0999 V3000
M  V30 BEGIN CTAB
M  V30 COUNTS 60 64 0 0 0
M  V30 BEGIN ATOM
M  V30 1 C 5.055349 0.440535 5.963992 0
M  V30 2 C 5.279608 0.297410 4.473840 0
M  V30 3 N 4.510784 1.297104 3.759224 0
M  V30 4 C 4.865846 2.543388 3.397562 0
M  V30 5 C 6.159744 3.156219 3.670193 0
M  V30 6 N 7.199006 2.600866 4.313747 0
M  V30 7 O 8.173219 3.468707 4.354906 0
M  V30 8 N 7.836673 4.580193 3.769321 0
M  V30 9 C 6.576919 4.424399 3.324865 0
M  V30 10 N 5.829862 5.409093 2.625287 0
M  V30 11 N 3.839265 3.121376 2.750669 0
M  V30 12 C 2.799974 2.256151 2.682976 0
M  V30 13 C 1.542908 2.373807 2.130210 0
M  V30 14 N 0.724692 1.289124 2.240691 0
M  V30 15 C 1.121174 0.163496 2.855738 0
M  V30 16 O 0.299420 -0.954870 2.978599 0
M  V30 17 C -0.997834 -0.946467 2.455990 0
M  V30 18 C -1.908854 -0.493329 3.384821 0
M  V30 19 C -3.259921 -0.420012 3.027308 0
M  V30 20 C -3.643851 -0.803216 1.755115 0
M  V30 21 C -2.717206 -1.258208 0.827620 0
M  V30 22 N -3.054835 -1.664327 -0.490751 0
M  V30 23 C -3.408571 -2.972833 -0.885885 0
M  V30 24 O -3.433477 -3.874117 -0.008347 0
M  V30 25 C -3.747668 -3.338016 -2.259499 0
M  V30 26 C -4.076970 -4.675741 -2.482277 0
M  V30 27 C -4.408075 -5.070189 -3.785223 0
M  V30 28 C -4.407255 -4.156073 -4.818282 0
M  V30 29 N -4.744723 -4.564848 -6.138661 0
M  V30 30 C -5.090510 -5.950418 -6.392475 0
M  V30 31 C -4.738689 -3.588272 -7.218105 0
M  V30 32 C -4.076859 -2.840682 -4.564385 0
M  V30 33 C -3.744394 -2.417525 -3.286821 0
M  V30 34 C -1.383710 -1.328828 1.185279 0
M  V30 35 C 2.384618 0.021104 3.421002 0
M  V30 36 C 3.235902 1.101416 3.325711 0
M  V30 37 H 4.667221 -0.535877 6.340439 0
M  V30 38 H 4.334543 1.242589 6.216830 0
M  V30 39 H 5.997195 0.669286 6.517455 0
M  V30 40 H 4.959444 -0.704952 4.095492 0
M  V30 41 H 6.367318 0.371379 4.282062 0
M  V30 42 H 4.810792 5.284934 2.540157 0
M  V30 43 H 6.308690 6.239555 2.207844 0
M  V30 44 H 1.251297 3.289372 1.642207 0
M  V30 45 H -1.693241 -0.175742 4.396040 0
M  V30 46 H -4.001186 -0.064968 3.743119 0
M  V30 47 H -4.670754 -0.768788 1.421695 0
M  V30 48 H -3.024332 -0.892220 -1.192639 0
M  V30 49 H -4.088874 -5.422804 -1.697636 0
M  V30 50 H -4.657837 -6.110261 -3.924838 0
M  V30 51 H -6.071965 -6.163145 -5.905492 0
M  V30 52 H -4.358738 -6.633932 -5.873123 0
M  V30 53 H -5.073209 -6.193962 -7.471811 0
M  V30 54 H -3.690270 -3.301073 -7.471743 0
M  V30 55 H -5.305325 -2.681392 -6.910596 0
M  V30 56 H -5.278243 -4.021063 -8.075232 0
M  V30 57 H -4.058317 -2.068671 -5.343479 0
M  V30 58 H -3.488995 -1.382334 -3.111048 0
M  V30 59 H -0.576267 -1.656543 0.575902 0
M  V30 60 H 2.706167 -0.890766 3.919307 0
M  V30 END ATOM
M  V30 BEGIN BOND
M  V30 1 1 1 2
M  V30 2 1 2 3
M  V30 3 1 3 4
M  V30 4 1 4 5
M  V30 5 2 5 6
M  V30 6 1 6 7
M  V30 7 1 7 8
M  V30 8 2 8 9
M  V30 9 1 9 10
M  V30 10 2 4 11
M  V30 11 1 11 12
M  V30 12 2 12 13
M  V30 13 1 13 14
M  V30 14 2 14 15
M  V30 15 1 15 16
M  V30 16 1 16 17
M  V30 17 2 17 18
M  V30 18 1 18 19
M  V30 19 2 19 20
M  V30 20 1 20 21
M  V30 21 1 21 22
M  V30 22 1 22 23
M  V30 23 2 23 24
M  V30 24 1 23 25
M  V30 25 2 25 26
M  V30 26 1 26 27
M  V30 27 2 27 28
M  V30 28 1 28 29
M  V30 29 1 29 30
M  V30 30 1 29 31
M  V30 31 1 28 32
M  V30 32 2 32 33
M  V30 33 2 21 34
M  V30 34 1 15 35
M  V30 35 2 35 36
M  V30 36 1 36 3
M  V30 37 1 9 5
M  V30 38 1 36 12
M  V30 39 1 34 17
M  V30 40 1 33 25
M  V30 41 1 1 37
M  V30 42 1 1 38
M  V30 43 1 1 39
M  V30 44 1 2 40
M  V30 45 1 2 41
M  V30 46 1 10 42
M  V30 47 1 10 43
M  V30 48 1 13 44
M  V30 49 1 18 45
M  V30 50 1 19 46
M  V30 51 1 20 47
M  V30 52 1 22 48
M  V30 53 1 26 49
M  V30 54 1 27 50
M  V30 55 1 30 51
M  V30 56 1 30 52
M  V30 57 1 30 53
M  V30 58 1 31 54
M  V30 59 1 31 55
M  V30 60 1 31 56
M  V30 61 1 32 57
M  V30 62 1 33 58
M  V30 63 1 34 59
M  V30 64 1 35 60
M  V30 END BOND
M  V30 END CTAB
M  END
>  <Dataset>  (836) 
ChEMBL_Kinases

>  <Ligand_Instance>  (836) 
nan

>  <PDB_ID>  (836) 
nan

>  <Standardized_SMILES>  (836) 
CCn1c(-c2nonc2N)nc2cnc(Oc3cccc(NC(=O)c4ccc(N(C)C)cc4)c3)cc21

>  <Name>  (836) 
GSK-248233A

>  <Pocket>  (836) 
nan

>  <ATP_Site>  (836) 
nan

>  <Peripheral>  (836) 
nan

>  <Num_H_Atoms_ProtBoundConf>  (836) 
nan

>  <Num_Resolved_Atoms>  (836) 
nan

>  <Num_Not_Resolved_Atoms>  (836) 
nan

$$$$
CHEMBL2204592
     RDKit          3D

  0  0  0  0  0  0  0  0  0  0999 V3000
M  V30 BEGIN CTAB
M  V30 COUNTS 55 57 0 0 0
M  V30 BEGIN ATOM
M  V30 1 C -0.214566 -2.380805 3.806730 0
M  V30 2 N 0.646277 -3.089876 2.873407 0
M  V30 3 C 1.524590 -2.521757 1.923838 0
M  V30 4 C 1.639902 -1.154409 1.784250 0
M  V30 5 C 2.489737 -0.599393 0.851403 0
M  V30 6 N 2.598160 0.829116 0.709613 0
M  V30 7 C 1.572461 0.975010 -0.267348 0
M  V30 8 C 1.999816 0.891444 -1.598714 0
M  V30 9 N 1.138788 1.007624 -2.641818 0
M  V30 10 C -0.186853 1.212064 -2.406840 0
M  V30 11 C -1.162715 1.344667 -3.439954 0
M  V30 12 N -1.956078 1.433940 -4.275465 0
M  V30 13 C -0.548618 1.285900 -1.069701 0
M  V30 14 O -1.882276 1.492343 -0.797941 0
M  V30 15 C -2.490165 1.606532 0.428647 0 CFG=2
M  V30 16 C -3.417375 0.457171 0.770623 0
M  V30 17 C -3.215023 2.873553 0.729026 0
M  V30 18 N -2.442521 4.074270 0.699844 0
M  V30 19 C -3.306681 5.192879 1.126159 0
M  V30 20 C -2.094577 4.374756 -0.676332 0
M  V30 21 N 0.250816 1.179727 0.008225 0
M  V30 22 N 3.222850 -1.416667 0.059919 0
M  V30 23 C 3.094531 -2.765532 0.213497 0
M  V30 24 C 2.251385 -3.389744 1.139840 0
M  V30 25 C 2.232320 -4.842609 1.188275 0
M  V30 26 C 2.299417 -5.818149 2.131743 0
M  V30 27 N 2.219996 -7.016938 1.518245 0
M  V30 28 N 2.103813 -6.863946 0.211442 0
M  V30 29 C 1.995413 -7.938441 -0.756088 0
M  V30 30 C 2.108478 -5.537173 -0.020492 0
M  V30 31 H -1.229182 -2.378672 3.391664 0
M  V30 32 H 0.095186 -1.326379 3.960195 0
M  V30 33 H -0.193447 -2.831548 4.834283 0
M  V30 34 H 0.515620 -4.105691 3.006703 0
M  V30 35 H 1.074007 -0.470699 2.394590 0
M  V30 36 H 3.227194 1.517454 1.176795 0
M  V30 37 H 3.029864 0.730432 -1.891608 0
M  V30 38 H -1.658196 1.512409 1.192308 0
M  V30 39 H -4.071218 0.798106 1.598627 0
M  V30 40 H -4.054466 0.126687 -0.046937 0
M  V30 41 H -2.846892 -0.401756 1.190688 0
M  V30 42 H -4.092756 2.981830 0.017965 0
M  V30 43 H -3.720729 2.837855 1.727971 0
M  V30 44 H -3.368007 5.993235 0.392299 0
M  V30 45 H -2.909605 5.610453 2.097739 0
M  V30 46 H -4.325816 4.860793 1.362291 0
M  V30 47 H -0.996272 4.555614 -0.746876 0
M  V30 48 H -2.625728 5.312955 -1.023636 0
M  V30 49 H -2.462270 3.604042 -1.390045 0
M  V30 50 H 3.692253 -3.407574 -0.432626 0
M  V30 51 H 2.402819 -5.542056 3.174506 0
M  V30 52 H 2.618913 -8.793942 -0.454817 0
M  V30 53 H 0.962358 -8.266068 -0.860196 0
M  V30 54 H 2.387663 -7.582849 -1.748000 0
M  V30 55 H 2.022485 -5.171124 -1.040668 0
M  V30 END ATOM
M  V30 BEGIN BOND
M  V30 1 1 1 2
M  V30 2 1 2 3
M  V30 3 2 3 4
M  V30 4 1 4 5
M  V30 5 1 5 6
M  V30 6 1 6 7
M  V30 7 2 7 8
M  V30 8 1 8 9
M  V30 9 2 9 10
M  V30 10 1 10 11
M  V30 11 3 11 12
M  V30 12 1 10 13
M  V30 13 1 13 14
M  V30 14 1 14 15
M  V30 15 1 15 16
M  V30 16 1 15 17
M  V30 17 1 17 18
M  V30 18 1 18 19
M  V30 19 1 18 20
M  V30 20 2 13 21
M  V30 21 2 5 22
M  V30 22 1 22 23
M  V30 23 2 23 24
M  V30 24 1 24 25
M  V30 25 1 25 26
M  V30 26 2 26 27
M  V30 27 1 27 28
M  V30 28 1 28 29
M  V30 29 1 28 30
M  V30 30 1 24 3
M  V30 31 2 30 25
M  V30 32 1 21 7
M  V30 33 1 1 31
M  V30 34 1 1 32
M  V30 35 1 1 33
M  V30 36 1 2 34
M  V30 37 1 4 35
M  V30 38 1 6 36
M  V30 39 1 8 37
M  V30 40 1 15 38 CFG=1
M  V30 41 1 16 39
M  V30 42 1 16 40
M  V30 43 1 16 41
M  V30 44 1 17 42
M  V30 45 1 17 43
M  V30 46 1 19 44
M  V30 47 1 19 45
M  V30 48 1 19 46
M  V30 49 1 20 47
M  V30 50 1 20 48
M  V30 51 1 20 49
M  V30 52 1 23 50
M  V30 53 1 26 51
M  V30 54 1 29 52
M  V30 55 1 29 53
M  V30 56 1 29 54
M  V30 57 1 30 55
M  V30 END BOND
M  V30 END CTAB
M  END
>  <Dataset>  (837) 
ChEMBL_Kinases

>  <Ligand_Instance>  (837) 
nan

>  <PDB_ID>  (837) 
nan

>  <Standardized_SMILES>  (837) 
CNc1cc(Nc2cnc(C#N)c(O[C@H](C)CN(C)C)n2)ncc1-c1cnn(C)c1

>  <Name>  (837) 
nan

>  <Pocket>  (837) 
nan

>  <ATP_Site>  (837) 
nan

>  <Peripheral>  (837) 
nan

>  <Num_H_Atoms_ProtBoundConf>  (837) 
nan

>  <Num_Resolved_Atoms>  (837) 
nan

>  <Num_Not_Resolved_Atoms>  (837) 
nan

$$$$
CHEMBL2204591
     RDKit          3D

  0  0  0  0  0  0  0  0  0  0999 V3000
M  V30 BEGIN CTAB
M  V30 COUNTS 55 57 0 0 0
M  V30 BEGIN ATOM
M  V30 1 C -3.135645 -1.429156 2.595423 0
M  V30 2 N -2.277107 -2.487702 2.101054 0
M  V30 3 C -0.889860 -2.729318 2.288822 0
M  V30 4 C -0.184304 -1.831750 3.100562 0
M  V30 5 C 1.159297 -2.061815 3.311162 0
M  V30 6 N 2.030619 -1.197862 4.077602 0
M  V30 7 C 1.719558 0.104614 3.550636 0
M  V30 8 C 1.390124 1.160086 4.371208 0
M  V30 9 N 1.087029 2.378255 3.893455 0
M  V30 10 C 1.101374 2.591130 2.565556 0
M  V30 11 C 0.749740 3.839496 1.969310 0
M  V30 12 N 0.454872 4.841031 1.484732 0
M  V30 13 C 1.423156 1.583076 1.684250 0
M  V30 14 O 1.524654 1.469415 0.382499 0
M  V30 15 C 1.485751 2.034365 -0.836319 0 CFG=2
M  V30 16 C 2.194224 3.387653 -0.857208 0
M  V30 17 C 0.163328 2.032061 -1.522230 0
M  V30 18 N 0.192297 2.670307 -2.795206 0
M  V30 19 C -1.184490 2.602953 -3.317341 0
M  V30 20 C 1.035834 2.089942 -3.788628 0
M  V30 21 N 1.716900 0.388006 2.224032 0
M  V30 22 N 1.766400 -3.119448 2.751356 0
M  V30 23 C 1.107936 -3.971543 1.983435 0
M  V30 24 C -0.238633 -3.784017 1.739663 0
M  V30 25 C -0.896182 -4.717808 0.853611 0
M  V30 26 C -0.868677 -6.079058 1.040755 0
M  V30 27 C -1.511323 -6.873841 0.124208 0
M  V30 28 C -2.177329 -6.343766 -0.964625 0
M  V30 29 C -2.204455 -4.976857 -1.148405 0
M  V30 30 F -2.869432 -4.508947 -2.231950 0
M  V30 31 C -1.560570 -4.152478 -0.237265 0
M  V30 32 H -4.087302 -1.834599 3.051023 0
M  V30 33 H -3.474801 -0.723424 1.809142 0
M  V30 34 H -2.668217 -0.804007 3.381811 0
M  V30 35 H -2.884960 -3.119340 1.535422 0
M  V30 36 H -0.608234 -0.966644 3.589841 0
M  V30 37 H 2.702377 -1.483054 4.817300 0
M  V30 38 H 1.373206 1.010723 5.438378 0
M  V30 39 H 2.196198 1.409481 -1.497488 0
M  V30 40 H 1.479288 4.210149 -0.999792 0
M  V30 41 H 2.823552 3.495466 0.046641 0
M  V30 42 H 2.923664 3.464004 -1.707705 0
M  V30 43 H -0.121756 0.953544 -1.704767 0
M  V30 44 H -0.651592 2.458520 -0.895513 0
M  V30 45 H -1.925547 2.609825 -2.481074 0
M  V30 46 H -1.304471 1.588947 -3.785443 0
M  V30 47 H -1.360860 3.350525 -4.097181 0
M  V30 48 H 0.438652 1.564686 -4.593706 0
M  V30 49 H 1.764160 1.352453 -3.457276 0
M  V30 50 H 1.524753 2.930486 -4.343661 0
M  V30 51 H 1.617060 -4.818820 1.537587 0
M  V30 52 H -0.332419 -6.395693 1.915525 0
M  V30 53 H -1.466727 -7.962772 0.306522 0
M  V30 54 H -2.663913 -7.029616 -1.656335 0
M  V30 55 H -1.652115 -3.108798 -0.496159 0
M  V30 END ATOM
M  V30 BEGIN BOND
M  V30 1 1 1 2
M  V30 2 1 2 3
M  V30 3 2 3 4
M  V30 4 1 4 5
M  V30 5 1 5 6
M  V30 6 1 6 7
M  V30 7 2 7 8
M  V30 8 1 8 9
M  V30 9 2 9 10
M  V30 10 1 10 11
M  V30 11 3 11 12
M  V30 12 1 10 13
M  V30 13 1 13 14
M  V30 14 1 14 15
M  V30 15 1 15 16
M  V30 16 1 15 17
M  V30 17 1 17 18
M  V30 18 1 18 19
M  V30 19 1 18 20
M  V30 20 2 13 21
M  V30 21 2 5 22
M  V30 22 1 22 23
M  V30 23 2 23 24
M  V30 24 1 24 25
M  V30 25 2 25 26
M  V30 26 1 26 27
M  V30 27 2 27 28
M  V30 28 1 28 29
M  V30 29 1 29 30
M  V30 30 2 29 31
M  V30 31 1 24 3
M  V30 32 1 31 25
M  V30 33 1 21 7
M  V30 34 1 1 32
M  V30 35 1 1 33
M  V30 36 1 1 34
M  V30 37 1 2 35
M  V30 38 1 4 36
M  V30 39 1 6 37
M  V30 40 1 8 38
M  V30 41 1 15 39 CFG=3
M  V30 42 1 16 40
M  V30 43 1 16 41
M  V30 44 1 16 42
M  V30 45 1 17 43
M  V30 46 1 17 44
M  V30 47 1 19 45
M  V30 48 1 19 46
M  V30 49 1 19 47
M  V30 50 1 20 48
M  V30 51 1 20 49
M  V30 52 1 20 50
M  V30 53 1 23 51
M  V30 54 1 26 52
M  V30 55 1 27 53
M  V30 56 1 28 54
M  V30 57 1 31 55
M  V30 END BOND
M  V30 END CTAB
M  END
>  <Dataset>  (838) 
ChEMBL_Kinases

>  <Ligand_Instance>  (838) 
nan

>  <PDB_ID>  (838) 
nan

>  <Standardized_SMILES>  (838) 
CNc1cc(Nc2cnc(C#N)c(O[C@H](C)CN(C)C)n2)ncc1-c1cccc(F)c1

>  <Name>  (838) 
nan

>  <Pocket>  (838) 
nan

>  <ATP_Site>  (838) 
nan

>  <Peripheral>  (838) 
nan

>  <Num_H_Atoms_ProtBoundConf>  (838) 
nan

>  <Num_Resolved_Atoms>  (838) 
nan

>  <Num_Not_Resolved_Atoms>  (838) 
nan

$$$$
CHEMBL2204590
     RDKit          3D

  0  0  0  0  0  0  0  0  0  0999 V3000
M  V30 BEGIN CTAB
M  V30 COUNTS 57 58 0 0 0
M  V30 BEGIN ATOM
M  V30 1 C -0.498634 -2.842587 2.734933 0
M  V30 2 N 0.454331 -3.360475 1.760919 0
M  V30 3 C 1.489268 -2.584228 1.171519 0
M  V30 4 C 1.669390 -1.250495 1.488445 0
M  V30 5 C 2.665637 -0.453586 0.938458 0
M  V30 6 N 2.800030 0.918920 1.306961 0
M  V30 7 C 1.942951 1.471730 0.306085 0
M  V30 8 C 2.418714 1.859407 -0.931227 0
M  V30 9 N 1.610508 2.384765 -1.885635 0
M  V30 10 C 0.295494 2.536621 -1.623912 0
M  V30 11 C -0.579076 3.081809 -2.596553 0
M  V30 12 N -1.291022 3.508079 -3.394133 0
M  V30 13 C -0.174174 2.146584 -0.383558 0
M  V30 14 O -1.513880 2.302487 -0.120009 0
M  V30 15 C -2.169364 1.973384 1.055903 0 CFG=2
M  V30 16 C -3.204093 0.884944 0.888657 0
M  V30 17 C -2.780876 3.153234 1.786695 0
M  V30 18 N -3.762100 3.863851 1.016811 0
M  V30 19 C -4.281820 4.970041 1.805165 0
M  V30 20 C -3.190015 4.464784 -0.173592 0
M  V30 21 N 0.626977 1.623374 0.568823 0
M  V30 22 N 3.515783 -1.003350 0.038705 0
M  V30 23 C 3.369077 -2.306813 -0.295428 0
M  V30 24 C 2.380842 -3.116905 0.243289 0
M  V30 25 C 2.233645 -4.500763 -0.118591 0
M  V30 26 C 2.120744 -5.669157 -0.442402 0
M  V30 27 C 1.984815 -7.081054 -0.859431 0
M  V30 28 C 0.777638 -7.635446 -0.176097 0
M  V30 29 C 1.817292 -7.208690 -2.343523 0
M  V30 30 O 3.149815 -7.712711 -0.428200 0
M  V30 31 H -1.338536 -2.411757 2.138594 0
M  V30 32 H 0.005844 -2.095337 3.369694 0
M  V30 33 H -0.856488 -3.671884 3.385417 0
M  V30 34 H 0.385881 -4.356075 1.469404 0
M  V30 35 H 1.023599 -0.773374 2.192663 0
M  V30 36 H 3.326015 1.408382 2.041356 0
M  V30 37 H 3.459305 1.754861 -1.178663 0
M  V30 38 H -1.405139 1.554350 1.759107 0
M  V30 39 H -4.049256 1.084123 1.611495 0
M  V30 40 H -3.677313 0.882277 -0.114088 0
M  V30 41 H -2.800525 -0.113388 1.062184 0
M  V30 42 H -3.247357 2.757799 2.710992 0
M  V30 43 H -2.020638 3.883168 2.109090 0
M  V30 44 H -4.180253 5.947287 1.324185 0
M  V30 45 H -3.751945 5.025099 2.770589 0
M  V30 46 H -5.370817 4.773594 1.996425 0
M  V30 47 H -2.168436 4.842070 -0.042228 0
M  V30 48 H -3.860741 5.260220 -0.572387 0
M  V30 49 H -3.212940 3.663572 -0.968020 0
M  V30 50 H 4.035111 -2.779077 -1.014824 0
M  V30 51 H 0.996016 -7.694482 0.906011 0
M  V30 52 H 0.515820 -8.656914 -0.486929 0
M  V30 53 H -0.062466 -6.925439 -0.302404 0
M  V30 54 H 2.781065 -7.543330 -2.816205 0
M  V30 55 H 1.572605 -6.173569 -2.724112 0
M  V30 56 H 1.017418 -7.915385 -2.564346 0
M  V30 57 H 3.068287 -8.658300 -0.710987 0
M  V30 END ATOM
M  V30 BEGIN BOND
M  V30 1 1 1 2
M  V30 2 1 2 3
M  V30 3 2 3 4
M  V30 4 1 4 5
M  V30 5 1 5 6
M  V30 6 1 6 7
M  V30 7 2 7 8
M  V30 8 1 8 9
M  V30 9 2 9 10
M  V30 10 1 10 11
M  V30 11 3 11 12
M  V30 12 1 10 13
M  V30 13 1 13 14
M  V30 14 1 14 15
M  V30 15 1 15 16
M  V30 16 1 15 17
M  V30 17 1 17 18
M  V30 18 1 18 19
M  V30 19 1 18 20
M  V30 20 2 13 21
M  V30 21 2 5 22
M  V30 22 1 22 23
M  V30 23 2 23 24
M  V30 24 1 24 25
M  V30 25 3 25 26
M  V30 26 1 26 27
M  V30 27 1 27 28
M  V30 28 1 27 29
M  V30 29 1 27 30
M  V30 30 1 24 3
M  V30 31 1 21 7
M  V30 32 1 1 31
M  V30 33 1 1 32
M  V30 34 1 1 33
M  V30 35 1 2 34
M  V30 36 1 4 35
M  V30 37 1 6 36
M  V30 38 1 8 37
M  V30 39 1 15 38 CFG=1
M  V30 40 1 16 39
M  V30 41 1 16 40
M  V30 42 1 16 41
M  V30 43 1 17 42
M  V30 44 1 17 43
M  V30 45 1 19 44
M  V30 46 1 19 45
M  V30 47 1 19 46
M  V30 48 1 20 47
M  V30 49 1 20 48
M  V30 50 1 20 49
M  V30 51 1 23 50
M  V30 52 1 28 51
M  V30 53 1 28 52
M  V30 54 1 28 53
M  V30 55 1 29 54
M  V30 56 1 29 55
M  V30 57 1 29 56
M  V30 58 1 30 57
M  V30 END BOND
M  V30 END CTAB
M  END
>  <Dataset>  (839) 
ChEMBL_Kinases

>  <Ligand_Instance>  (839) 
nan

>  <PDB_ID>  (839) 
nan

>  <Standardized_SMILES>  (839) 
CNc1cc(Nc2cnc(C#N)c(O[C@H](C)CN(C)C)n2)ncc1C#CC(C)(C)O

>  <Name>  (839) 
nan

>  <Pocket>  (839) 
nan

>  <ATP_Site>  (839) 
nan

>  <Peripheral>  (839) 
nan

>  <Num_H_Atoms_ProtBoundConf>  (839) 
nan

>  <Num_Resolved_Atoms>  (839) 
nan

>  <Num_Not_Resolved_Atoms>  (839) 
nan

$$$$
CHEMBL2204589
     RDKit          3D

  0  0  0  0  0  0  0  0  0  0999 V3000
M  V30 BEGIN CTAB
M  V30 COUNTS 47 48 0 0 0
M  V30 BEGIN ATOM
M  V30 1 C 3.959013 -5.730533 3.172259 0
M  V30 2 C 3.812232 -4.617946 2.716981 0
M  V30 3 C 3.640872 -3.279985 2.193949 0
M  V30 4 C 4.453868 -2.738400 1.212237 0
M  V30 5 N 4.284129 -1.492549 0.738970 0
M  V30 6 C 3.298910 -0.675189 1.193161 0
M  V30 7 N 3.100644 0.661809 0.708714 0
M  V30 8 C 1.999171 1.396240 1.282946 0
M  V30 9 C 2.076140 2.133176 2.447528 0
M  V30 10 N 0.955697 2.782370 2.884698 0
M  V30 11 C -0.177178 2.656289 2.130010 0
M  V30 12 C -1.334053 3.356535 2.628963 0
M  V30 13 N -2.283115 3.912680 3.046275 0
M  V30 14 C -0.231898 1.916648 0.971288 0
M  V30 15 O -1.423403 1.853613 0.281018 0
M  V30 16 C -1.535632 1.109811 -0.948367 0 CFG=2
M  V30 17 C -1.985154 2.129932 -1.955906 0
M  V30 18 C -2.509733 0.023325 -0.668032 0
M  V30 19 N -2.804857 -0.875330 -1.728747 0
M  V30 20 C -3.541162 -0.319496 -2.839854 0
M  V30 21 C -3.590835 -1.968041 -1.190342 0
M  V30 22 N 0.862828 1.274084 0.532104 0
M  V30 23 C 2.490252 -1.221932 2.173170 0
M  V30 24 C 2.612196 -2.484928 2.696784 0
M  V30 25 N 1.737619 -2.981919 3.715019 0
M  V30 26 C 0.683776 -2.073183 4.183569 0
M  V30 27 H 4.075444 -6.694085 3.570092 0
M  V30 28 H 5.228652 -3.407606 0.867826 0
M  V30 29 H 3.781682 0.975555 -0.022337 0
M  V30 30 H 3.058079 2.116810 2.911034 0
M  V30 31 H -0.558733 0.671363 -1.209025 0
M  V30 32 H -1.910824 1.840826 -2.999096 0
M  V30 33 H -3.008078 2.454349 -1.621602 0
M  V30 34 H -1.372225 3.068403 -1.806272 0
M  V30 35 H -3.476886 0.410066 -0.282950 0
M  V30 36 H -2.045745 -0.606485 0.146571 0
M  V30 37 H -4.113353 0.578752 -2.594173 0
M  V30 38 H -4.325155 -1.057950 -3.192457 0
M  V30 39 H -2.889417 -0.206703 -3.749660 0
M  V30 40 H -3.235476 -2.952259 -1.565021 0
M  V30 41 H -4.679811 -1.831016 -1.339652 0
M  V30 42 H -3.451469 -2.012281 -0.070146 0
M  V30 43 H 1.679288 -0.622640 2.586389 0
M  V30 44 H 1.890928 -3.932145 4.058582 0
M  V30 45 H 0.095028 -2.538726 4.985685 0
M  V30 46 H 1.224114 -1.155158 4.548092 0
M  V30 47 H 0.073714 -1.790423 3.321321 0
M  V30 END ATOM
M  V30 BEGIN BOND
M  V30 1 3 1 2
M  V30 2 1 2 3
M  V30 3 2 3 4
M  V30 4 1 4 5
M  V30 5 2 5 6
M  V30 6 1 6 7
M  V30 7 1 7 8
M  V30 8 2 8 9
M  V30 9 1 9 10
M  V30 10 2 10 11
M  V30 11 1 11 12
M  V30 12 3 12 13
M  V30 13 1 11 14
M  V30 14 1 14 15
M  V30 15 1 15 16
M  V30 16 1 16 17
M  V30 17 1 16 18
M  V30 18 1 18 19
M  V30 19 1 19 20
M  V30 20 1 19 21
M  V30 21 2 14 22
M  V30 22 1 6 23
M  V30 23 2 23 24
M  V30 24 1 24 25
M  V30 25 1 25 26
M  V30 26 1 24 3
M  V30 27 1 22 8
M  V30 28 1 1 27
M  V30 29 1 4 28
M  V30 30 1 7 29
M  V30 31 1 9 30
M  V30 32 1 16 31 CFG=3
M  V30 33 1 17 32
M  V30 34 1 17 33
M  V30 35 1 17 34
M  V30 36 1 18 35
M  V30 37 1 18 36
M  V30 38 1 20 37
M  V30 39 1 20 38
M  V30 40 1 20 39
M  V30 41 1 21 40
M  V30 42 1 21 41
M  V30 43 1 21 42
M  V30 44 1 23 43
M  V30 45 1 25 44
M  V30 46 1 26 45
M  V30 47 1 26 46
M  V30 48 1 26 47
M  V30 END BOND
M  V30 END CTAB
M  END
>  <Dataset>  (840) 
ChEMBL_Kinases

>  <Ligand_Instance>  (840) 
nan

>  <PDB_ID>  (840) 
nan

>  <Standardized_SMILES>  (840) 
C#Cc1cnc(Nc2cnc(C#N)c(O[C@H](C)CN(C)C)n2)cc1NC

>  <Name>  (840) 
nan

>  <Pocket>  (840) 
nan

>  <ATP_Site>  (840) 
nan

>  <Peripheral>  (840) 
nan

>  <Num_H_Atoms_ProtBoundConf>  (840) 
nan

>  <Num_Resolved_Atoms>  (840) 
nan

>  <Num_Not_Resolved_Atoms>  (840) 
nan

$$$$
CHEMBL2204588
     RDKit          3D

  0  0  0  0  0  0  0  0  0  0999 V3000
M  V30 BEGIN CTAB
M  V30 COUNTS 52 54 0 0 0
M  V30 BEGIN ATOM
M  V30 1 C -0.357482 -2.704380 3.462205 0
M  V30 2 N -1.300448 -3.041134 2.413674 0
M  V30 3 C -2.006568 -1.984856 1.847413 0
M  V30 4 C -1.888804 -0.675089 2.251542 0
M  V30 5 C -2.669112 0.329220 1.656190 0
M  V30 6 N -2.358103 1.602414 2.233962 0
M  V30 7 C -1.465612 2.014183 1.205678 0
M  V30 8 C -2.006884 2.804019 0.209560 0
M  V30 9 N -1.260857 3.244479 -0.828881 0
M  V30 10 C 0.043413 2.914816 -0.910967 0
M  V30 11 C 0.843944 3.373475 -2.005510 0
M  V30 12 N 1.473580 3.736515 -2.893135 0
M  V30 13 C 0.602875 2.127417 0.073025 0
M  V30 14 O 1.957163 1.739547 0.056759 0
M  V30 15 C 2.400302 0.951894 1.139570 0 CFG=2
M  V30 16 C 3.591654 1.526283 1.834876 0
M  V30 17 C 2.507851 -0.480669 0.747051 0
M  V30 18 N 3.392986 -0.796260 -0.325184 0
M  V30 19 C 3.422235 -2.262273 -0.522703 0
M  V30 20 C 2.999511 -0.224570 -1.597011 0
M  V30 21 N -0.157062 1.715834 1.073679 0
M  V30 22 N -3.532355 -0.011844 0.685611 0
M  V30 23 C -3.649234 -1.301793 0.284202 0
M  V30 24 C -2.879046 -2.325376 0.863919 0
M  V30 25 C -3.173589 -3.610434 0.209585 0
M  V30 26 C -2.748074 -3.802800 -1.241951 0
M  V30 27 C -2.230974 -4.661719 -0.104381 0
M  V30 28 H 0.249776 -3.538046 3.824482 0
M  V30 29 H -0.862216 -2.227611 4.331064 0
M  V30 30 H 0.361208 -1.955879 3.042571 0
M  V30 31 H -1.336963 -4.055898 2.217812 0
M  V30 32 H -1.153467 -0.520458 3.046855 0
M  V30 33 H -2.682660 2.064359 3.115161 0
M  V30 34 H -3.019684 3.138576 0.153146 0
M  V30 35 H 1.521677 0.979818 1.868908 0
M  V30 36 H 3.408635 1.634872 2.925819 0
M  V30 37 H 4.529269 0.950730 1.724071 0
M  V30 38 H 3.812800 2.577960 1.478628 0
M  V30 39 H 2.700980 -1.147074 1.610988 0
M  V30 40 H 1.473634 -0.780227 0.402157 0
M  V30 41 H 4.230347 -2.745226 0.028987 0
M  V30 42 H 3.570025 -2.494443 -1.605758 0
M  V30 43 H 2.407235 -2.608079 -0.207620 0
M  V30 44 H 3.651921 0.608608 -1.936285 0
M  V30 45 H 1.918411 0.063938 -1.519444 0
M  V30 46 H 2.989407 -1.051067 -2.355095 0
M  V30 47 H -4.397254 -1.408539 -0.519236 0
M  V30 48 H -4.228156 -3.922992 0.379543 0
M  V30 49 H -2.089472 -3.031237 -1.691382 0
M  V30 50 H -3.474318 -4.217449 -1.970384 0
M  V30 51 H -1.145701 -4.691259 -0.000682 0
M  V30 52 H -2.622406 -5.716817 -0.179395 0
M  V30 END ATOM
M  V30 BEGIN BOND
M  V30 1 1 1 2
M  V30 2 1 2 3
M  V30 3 2 3 4
M  V30 4 1 4 5
M  V30 5 1 5 6
M  V30 6 1 6 7
M  V30 7 2 7 8
M  V30 8 1 8 9
M  V30 9 2 9 10
M  V30 10 1 10 11
M  V30 11 3 11 12
M  V30 12 1 10 13
M  V30 13 1 13 14
M  V30 14 1 14 15
M  V30 15 1 15 16
M  V30 16 1 15 17
M  V30 17 1 17 18
M  V30 18 1 18 19
M  V30 19 1 18 20
M  V30 20 2 13 21
M  V30 21 2 5 22
M  V30 22 1 22 23
M  V30 23 2 23 24
M  V30 24 1 24 25
M  V30 25 1 25 26
M  V30 26 1 26 27
M  V30 27 1 24 3
M  V30 28 1 27 25
M  V30 29 1 21 7
M  V30 30 1 1 28
M  V30 31 1 1 29
M  V30 32 1 1 30
M  V30 33 1 2 31
M  V30 34 1 4 32
M  V30 35 1 6 33
M  V30 36 1 8 34
M  V30 37 1 15 35 CFG=1
M  V30 38 1 16 36
M  V30 39 1 16 37
M  V30 40 1 16 38
M  V30 41 1 17 39
M  V30 42 1 17 40
M  V30 43 1 19 41
M  V30 44 1 19 42
M  V30 45 1 19 43
M  V30 46 1 20 44
M  V30 47 1 20 45
M  V30 48 1 20 46
M  V30 49 1 23 47
M  V30 50 1 25 48
M  V30 51 1 26 49
M  V30 52 1 26 50
M  V30 53 1 27 51
M  V30 54 1 27 52
M  V30 END BOND
M  V30 END CTAB
M  END
>  <Dataset>  (841) 
ChEMBL_Kinases

>  <Ligand_Instance>  (841) 
nan

>  <PDB_ID>  (841) 
nan

>  <Standardized_SMILES>  (841) 
CNc1cc(Nc2cnc(C#N)c(O[C@H](C)CN(C)C)n2)ncc1C1CC1

>  <Name>  (841) 
nan

>  <Pocket>  (841) 
nan

>  <ATP_Site>  (841) 
nan

>  <Peripheral>  (841) 
nan

>  <Num_H_Atoms_ProtBoundConf>  (841) 
nan

>  <Num_Resolved_Atoms>  (841) 
nan

>  <Num_Not_Resolved_Atoms>  (841) 
nan

$$$$
CHEMBL2204587
     RDKit          3D

  0  0  0  0  0  0  0  0  0  0999 V3000
M  V30 BEGIN CTAB
M  V30 COUNTS 48 49 0 0 0
M  V30 BEGIN ATOM
M  V30 1 C -1.118692 -2.120032 3.939878 0
M  V30 2 N -0.283003 -2.976643 3.106355 0
M  V30 3 C 0.985093 -2.712269 2.520042 0
M  V30 4 C 1.492107 -1.461071 2.773375 0
M  V30 5 C 2.706397 -1.148294 2.224500 0
M  V30 6 N 3.541058 0.030092 2.246173 0
M  V30 7 C 2.962444 1.021076 1.363000 0
M  V30 8 C 3.670935 2.165269 0.984189 0
M  V30 9 N 3.152274 3.107935 0.183772 0
M  V30 10 C 1.901661 2.969740 -0.286119 0
M  V30 11 C 1.206521 3.876498 -1.151870 0
M  V30 12 N 0.656601 4.616258 -1.869439 0
M  V30 13 C 1.144097 1.868484 0.047575 0
M  V30 14 O -0.077923 1.400040 -0.200854 0
M  V30 15 C -1.208905 1.656086 -0.890776 0 CFG=2
M  V30 16 C -2.276863 2.318129 -0.032192 0
M  V30 17 C -1.742462 0.472721 -1.675507 0
M  V30 18 N -2.044230 -0.683035 -0.910592 0
M  V30 19 C -2.491981 -1.718232 -1.865495 0
M  V30 20 C -3.148504 -0.555878 0.020504 0
M  V30 21 N 1.727987 0.964813 0.852351 0
M  V30 22 N 3.359248 -2.061055 1.465423 0
M  V30 23 C 2.873788 -3.279467 1.215411 0
M  V30 24 C 1.651629 -3.639866 1.747731 0
M  V30 25 C 1.057255 -4.962161 1.500861 0
M  V30 26 F -0.153208 -4.751881 0.843039 0
M  V30 27 F 1.876218 -5.635842 0.590965 0
M  V30 28 F 0.853710 -5.695346 2.651967 0
M  V30 29 H -0.513452 -1.283875 4.389512 0
M  V30 30 H -1.635932 -2.700619 4.705645 0
M  V30 31 H -1.814835 -1.616380 3.234274 0
M  V30 32 H -0.694076 -3.909268 2.932443 0
M  V30 33 H 1.109532 -0.630666 3.342632 0
M  V30 34 H 4.415096 0.272619 2.743169 0
M  V30 35 H 4.663476 2.301123 1.340446 0
M  V30 36 H -0.987389 2.446634 -1.676647 0
M  V30 37 H -2.277029 3.447328 -0.166568 0
M  V30 38 H -3.293999 2.021267 -0.254670 0
M  V30 39 H -2.035442 2.191265 1.037698 0
M  V30 40 H -2.616516 0.865102 -2.248767 0
M  V30 41 H -0.957379 0.218534 -2.412704 0
M  V30 42 H -1.769322 -1.824785 -2.697232 0
M  V30 43 H -2.641892 -2.699552 -1.352179 0
M  V30 44 H -3.473010 -1.469344 -2.309810 0
M  V30 45 H -3.420630 -1.586266 0.405048 0
M  V30 46 H -4.084804 -0.212660 -0.460122 0
M  V30 47 H -2.868091 -0.009377 0.938980 0
M  V30 48 H 3.366467 -4.054358 0.609311 0
M  V30 END ATOM
M  V30 BEGIN BOND
M  V30 1 1 1 2
M  V30 2 1 2 3
M  V30 3 2 3 4
M  V30 4 1 4 5
M  V30 5 1 5 6
M  V30 6 1 6 7
M  V30 7 2 7 8
M  V30 8 1 8 9
M  V30 9 2 9 10
M  V30 10 1 10 11
M  V30 11 3 11 12
M  V30 12 1 10 13
M  V30 13 1 13 14
M  V30 14 1 14 15
M  V30 15 1 15 16
M  V30 16 1 15 17
M  V30 17 1 17 18
M  V30 18 1 18 19
M  V30 19 1 18 20
M  V30 20 2 13 21
M  V30 21 2 5 22
M  V30 22 1 22 23
M  V30 23 2 23 24
M  V30 24 1 24 25
M  V30 25 1 25 26
M  V30 26 1 25 27
M  V30 27 1 25 28
M  V30 28 1 24 3
M  V30 29 1 21 7
M  V30 30 1 1 29
M  V30 31 1 1 30
M  V30 32 1 1 31
M  V30 33 1 2 32
M  V30 34 1 4 33
M  V30 35 1 6 34
M  V30 36 1 8 35
M  V30 37 1 15 36 CFG=3
M  V30 38 1 16 37
M  V30 39 1 16 38
M  V30 40 1 16 39
M  V30 41 1 17 40
M  V30 42 1 17 41
M  V30 43 1 19 42
M  V30 44 1 19 43
M  V30 45 1 19 44
M  V30 46 1 20 45
M  V30 47 1 20 46
M  V30 48 1 20 47
M  V30 49 1 23 48
M  V30 END BOND
M  V30 END CTAB
M  END
>  <Dataset>  (842) 
ChEMBL_Kinases

>  <Ligand_Instance>  (842) 
nan

>  <PDB_ID>  (842) 
nan

>  <Standardized_SMILES>  (842) 
CNc1cc(Nc2cnc(C#N)c(O[C@H](C)CN(C)C)n2)ncc1C(F)(F)F

>  <Name>  (842) 
nan

>  <Pocket>  (842) 
nan

>  <ATP_Site>  (842) 
nan

>  <Peripheral>  (842) 
nan

>  <Num_H_Atoms_ProtBoundConf>  (842) 
nan

>  <Num_Resolved_Atoms>  (842) 
nan

>  <Num_Not_Resolved_Atoms>  (842) 
nan

$$$$
CHEMBL2204586
     RDKit          3D

  0  0  0  0  0  0  0  0  0  0999 V3000
M  V30 BEGIN CTAB
M  V30 COUNTS 45 46 0 0 0
M  V30 BEGIN ATOM
M  V30 1 C 0.944792 -4.436477 1.717414 0
M  V30 2 N -0.476171 -4.351863 1.961991 0
M  V30 3 C -1.341781 -3.302294 2.353068 0
M  V30 4 C -0.788535 -2.076633 2.557846 0
M  V30 5 C -1.618417 -1.049115 2.932744 0
M  V30 6 N -1.314241 0.327287 3.215119 0
M  V30 7 C -1.380347 1.001083 1.957396 0
M  V30 8 C -2.528105 1.469063 1.359594 0
M  V30 9 N -2.484088 2.099673 0.178144 0
M  V30 10 C -1.315565 2.291161 -0.453093 0
M  V30 11 C -1.263547 2.964438 -1.721257 0
M  V30 12 N -1.240953 3.510062 -2.745819 0
M  V30 13 C -0.146656 1.836623 0.116517 0
M  V30 14 O 1.088668 2.031246 -0.531867 0
M  V30 15 C 2.270404 1.555699 0.080522 0 CFG=2
M  V30 16 C 3.062442 2.785919 0.524219 0
M  V30 17 C 3.108180 0.675502 -0.800453 0
M  V30 18 N 2.445529 -0.511293 -1.257976 0
M  V30 19 C 2.185141 -1.442512 -0.210959 0
M  V30 20 C 1.319608 -0.277097 -2.114532 0
M  V30 21 N -0.222088 1.210034 1.296884 0
M  V30 22 N -2.946040 -1.249765 3.093707 0
M  V30 23 C -3.458314 -2.479261 2.881560 0
M  V30 24 C -2.689078 -3.544756 2.506968 0
M  V30 25 Cl -3.359132 -5.123837 2.235479 0
M  V30 26 H 1.122267 -4.707349 0.653522 0
M  V30 27 H 1.446823 -5.248576 2.299007 0
M  V30 28 H 1.386501 -3.459910 1.975632 0
M  V30 29 H -0.851508 -5.313035 1.789634 0
M  V30 30 H 0.230964 -1.779859 2.467487 0
M  V30 31 H -1.070217 0.931891 4.048271 0
M  V30 32 H -3.435316 1.287434 1.912131 0
M  V30 33 H 1.971529 0.982037 0.991508 0
M  V30 34 H 2.670588 3.063886 1.533217 0
M  V30 35 H 4.115616 2.459551 0.636145 0
M  V30 36 H 2.928753 3.562035 -0.233657 0
M  V30 37 H 3.585654 1.258437 -1.614548 0
M  V30 38 H 3.958365 0.314925 -0.150230 0
M  V30 39 H 1.120293 -1.436684 0.098330 0
M  V30 40 H 2.418148 -2.504232 -0.510691 0
M  V30 41 H 2.800768 -1.248217 0.696773 0
M  V30 42 H 1.343425 -1.012889 -2.945777 0
M  V30 43 H 0.392549 -0.490155 -1.533307 0
M  V30 44 H 1.373119 0.739972 -2.528174 0
M  V30 45 H -4.531192 -2.685152 3.001655 0
M  V30 END ATOM
M  V30 BEGIN BOND
M  V30 1 1 1 2
M  V30 2 1 2 3
M  V30 3 2 3 4
M  V30 4 1 4 5
M  V30 5 1 5 6
M  V30 6 1 6 7
M  V30 7 2 7 8
M  V30 8 1 8 9
M  V30 9 2 9 10
M  V30 10 1 10 11
M  V30 11 3 11 12
M  V30 12 1 10 13
M  V30 13 1 13 14
M  V30 14 1 14 15
M  V30 15 1 15 16
M  V30 16 1 15 17
M  V30 17 1 17 18
M  V30 18 1 18 19
M  V30 19 1 18 20
M  V30 20 2 13 21
M  V30 21 2 5 22
M  V30 22 1 22 23
M  V30 23 2 23 24
M  V30 24 1 24 25
M  V30 25 1 24 3
M  V30 26 1 21 7
M  V30 27 1 1 26
M  V30 28 1 1 27
M  V30 29 1 1 28
M  V30 30 1 2 29
M  V30 31 1 4 30
M  V30 32 1 6 31
M  V30 33 1 8 32
M  V30 34 1 15 33 CFG=1
M  V30 35 1 16 34
M  V30 36 1 16 35
M  V30 37 1 16 36
M  V30 38 1 17 37
M  V30 39 1 17 38
M  V30 40 1 19 39
M  V30 41 1 19 40
M  V30 42 1 19 41
M  V30 43 1 20 42
M  V30 44 1 20 43
M  V30 45 1 20 44
M  V30 46 1 23 45
M  V30 END BOND
M  V30 END CTAB
M  END
>  <Dataset>  (843) 
ChEMBL_Kinases

>  <Ligand_Instance>  (843) 
nan

>  <PDB_ID>  (843) 
nan

>  <Standardized_SMILES>  (843) 
CNc1cc(Nc2cnc(C#N)c(O[C@H](C)CN(C)C)n2)ncc1Cl

>  <Name>  (843) 
nan

>  <Pocket>  (843) 
nan

>  <ATP_Site>  (843) 
nan

>  <Peripheral>  (843) 
nan

>  <Num_H_Atoms_ProtBoundConf>  (843) 
nan

>  <Num_Resolved_Atoms>  (843) 
nan

>  <Num_Not_Resolved_Atoms>  (843) 
nan

$$$$
CHEMBL2204585
     RDKit          3D

  0  0  0  0  0  0  0  0  0  0999 V3000
M  V30 BEGIN CTAB
M  V30 COUNTS 45 46 0 0 0
M  V30 BEGIN ATOM
M  V30 1 C -1.584098 -4.499177 1.659210 0
M  V30 2 N -0.184701 -4.399415 1.960217 0
M  V30 3 C 0.881238 -3.765122 1.298543 0
M  V30 4 C 2.165093 -3.787459 1.763212 0
M  V30 5 C 3.138751 -3.131946 1.040725 0
M  V30 6 N 2.809313 -2.489230 -0.096880 0
M  V30 7 C 1.528598 -2.461317 -0.569641 0
M  V30 8 N 1.520537 -1.708062 -1.775982 0
M  V30 9 C 1.268182 -0.338339 -2.056437 0
M  V30 10 C 1.372649 0.203626 -3.323388 0
M  V30 11 N 1.099629 1.511641 -3.444713 0
M  V30 12 C 0.738771 2.286626 -2.403611 0
M  V30 13 C 0.481202 3.687091 -2.705526 0
M  V30 14 N 0.260293 4.795034 -2.939195 0
M  V30 15 C 0.629600 1.746989 -1.116671 0
M  V30 16 O 0.247594 2.691350 -0.183856 0
M  V30 17 C 0.065639 2.329314 1.196987 0 CFG=2
M  V30 18 C 1.368343 1.852833 1.741844 0
M  V30 19 C -1.001827 1.273444 1.292514 0
M  V30 20 N -1.333402 0.830003 2.568371 0
M  V30 21 C -0.480087 0.058076 3.356431 0
M  V30 22 C -2.435756 1.484821 3.178611 0
M  V30 23 N 0.910398 0.437998 -1.037450 0
M  V30 24 C 0.539420 -3.111807 0.139535 0
M  V30 25 H -2.145704 -3.779079 2.318787 0
M  V30 26 H -1.845673 -4.239374 0.623565 0
M  V30 27 H -1.976680 -5.528203 1.817972 0
M  V30 28 H 0.032359 -4.911589 2.849405 0
M  V30 29 H 2.399193 -4.308130 2.674738 0
M  V30 30 H 4.134068 -3.186007 1.457696 0
M  V30 31 H 1.748203 -2.311531 -2.594031 0
M  V30 32 H 1.665179 -0.443014 -4.137666 0
M  V30 33 H -0.288997 3.281855 1.678426 0
M  V30 34 H 1.478165 0.762835 1.778505 0
M  V30 35 H 2.234277 2.276324 1.145002 0
M  V30 36 H 1.541952 2.278747 2.763520 0
M  V30 37 H -0.719044 0.387266 0.657836 0
M  V30 38 H -1.950292 1.649065 0.797239 0
M  V30 39 H -1.063288 -0.502315 4.157470 0
M  V30 40 H 0.363912 0.562282 3.853325 0
M  V30 41 H -0.038444 -0.753691 2.699500 0
M  V30 42 H -2.788623 2.344369 2.571524 0
M  V30 43 H -2.260529 1.788601 4.231286 0
M  V30 44 H -3.284895 0.760816 3.191908 0
M  V30 45 H -0.411685 -2.999201 -0.358713 0
M  V30 END ATOM
M  V30 BEGIN BOND
M  V30 1 1 1 2
M  V30 2 1 2 3
M  V30 3 2 3 4
M  V30 4 1 4 5
M  V30 5 2 5 6
M  V30 6 1 6 7
M  V30 7 1 7 8
M  V30 8 1 8 9
M  V30 9 2 9 10
M  V30 10 1 10 11
M  V30 11 2 11 12
M  V30 12 1 12 13
M  V30 13 3 13 14
M  V30 14 1 12 15
M  V30 15 1 15 16
M  V30 16 1 16 17
M  V30 17 1 17 18
M  V30 18 1 17 19
M  V30 19 1 19 20
M  V30 20 1 20 21
M  V30 21 1 20 22
M  V30 22 2 15 23
M  V30 23 2 7 24
M  V30 24 1 24 3
M  V30 25 1 23 9
M  V30 26 1 1 25
M  V30 27 1 1 26
M  V30 28 1 1 27
M  V30 29 1 2 28
M  V30 30 1 4 29
M  V30 31 1 5 30
M  V30 32 1 8 31
M  V30 33 1 10 32
M  V30 34 1 17 33 CFG=1
M  V30 35 1 18 34
M  V30 36 1 18 35
M  V30 37 1 18 36
M  V30 38 1 19 37
M  V30 39 1 19 38
M  V30 40 1 21 39
M  V30 41 1 21 40
M  V30 42 1 21 41
M  V30 43 1 22 42
M  V30 44 1 22 43
M  V30 45 1 22 44
M  V30 46 1 24 45
M  V30 END BOND
M  V30 END CTAB
M  END
>  <Dataset>  (844) 
ChEMBL_Kinases

>  <Ligand_Instance>  (844) 
nan

>  <PDB_ID>  (844) 
nan

>  <Standardized_SMILES>  (844) 
CNc1ccnc(Nc2cnc(C#N)c(O[C@H](C)CN(C)C)n2)c1

>  <Name>  (844) 
nan

>  <Pocket>  (844) 
nan

>  <ATP_Site>  (844) 
nan

>  <Peripheral>  (844) 
nan

>  <Num_H_Atoms_ProtBoundConf>  (844) 
nan

>  <Num_Resolved_Atoms>  (844) 
nan

>  <Num_Not_Resolved_Atoms>  (844) 
nan

$$$$
CHEMBL2204584
     RDKit          3D

  0  0  0  0  0  0  0  0  0  0999 V3000
M  V30 BEGIN CTAB
M  V30 COUNTS 45 47 0 0 0
M  V30 BEGIN ATOM
M  V30 1 C 0.650524 -6.615240 2.548237 0
M  V30 2 O 0.314930 -5.566107 1.628514 0
M  V30 3 C 1.361025 -4.900705 1.037197 0
M  V30 4 O 2.483163 -5.336622 1.413402 0
M  V30 5 C 1.127520 -3.824905 0.092973 0
M  V30 6 C 2.175231 -3.155325 -0.504252 0
M  V30 7 N 1.952982 -2.156886 -1.381829 0
M  V30 8 C 0.711299 -1.759754 -1.722535 0
M  V30 9 N 0.368750 -0.722188 -2.633219 0
M  V30 10 C 0.200521 0.605827 -2.091876 0
M  V30 11 C -0.130364 1.611816 -2.958697 0
M  V30 12 N -0.286162 2.843871 -2.445340 0
M  V30 13 C -0.120948 3.066868 -1.131157 0
M  V30 14 C -0.289027 4.378576 -0.614986 0
M  V30 15 N -0.425068 5.440284 -0.218721 0
M  V30 16 C 0.209523 2.094453 -0.225776 0
M  V30 17 O 0.431549 2.025143 1.091333 0
M  V30 18 C 0.408380 2.928134 2.098517 0 CFG=2
M  V30 19 C 1.740647 2.952270 2.892649 0
M  V30 20 C 1.280708 3.696097 4.128221 0
M  V30 21 N -0.070679 3.251121 4.392314 0
M  V30 22 C -0.498791 2.474669 3.270745 0
M  V30 23 N 0.358048 0.868120 -0.778305 0
M  V30 24 C -0.365869 -2.408675 -1.143306 0
M  V30 25 C -0.165795 -3.444091 -0.232943 0
M  V30 26 O -1.289182 -4.078372 0.333942 0
M  V30 27 C -2.603729 -3.685629 -0.002313 0
M  V30 28 H 0.939058 -7.510263 1.991138 0
M  V30 29 H 1.546573 -6.269699 3.120033 0
M  V30 30 H -0.193764 -6.878952 3.202299 0
M  V30 31 H 3.204502 -3.432746 -0.267199 0
M  V30 32 H 0.243562 -0.903945 -3.645373 0
M  V30 33 H -0.251742 1.385564 -3.999778 0
M  V30 34 H 0.134424 3.962649 1.911247 0
M  V30 35 H 2.499944 3.512876 2.314036 0
M  V30 36 H 2.021064 1.938406 3.182196 0
M  V30 37 H 1.185496 4.788663 3.865769 0
M  V30 38 H 1.959121 3.548883 4.991775 0
M  V30 39 H -0.022645 2.680311 5.287199 0
M  V30 40 H -1.535167 2.609471 2.971266 0
M  V30 41 H -0.239088 1.395851 3.444589 0
M  V30 42 H -1.391190 -2.140289 -1.372250 0
M  V30 43 H -2.702020 -2.597698 0.275591 0
M  V30 44 H -3.286730 -4.241015 0.671744 0
M  V30 45 H -2.811752 -3.803817 -1.066925 0
M  V30 END ATOM
M  V30 BEGIN BOND
M  V30 1 1 1 2
M  V30 2 1 2 3
M  V30 3 2 3 4
M  V30 4 1 3 5
M  V30 5 2 5 6
M  V30 6 1 6 7
M  V30 7 2 7 8
M  V30 8 1 8 9
M  V30 9 1 9 10
M  V30 10 2 10 11
M  V30 11 1 11 12
M  V30 12 2 12 13
M  V30 13 1 13 14
M  V30 14 3 14 15
M  V30 15 1 13 16
M  V30 16 1 16 17
M  V30 17 1 17 18
M  V30 18 1 18 19
M  V30 19 1 19 20
M  V30 20 1 20 21
M  V30 21 1 21 22
M  V30 22 2 16 23
M  V30 23 1 8 24
M  V30 24 2 24 25
M  V30 25 1 25 26
M  V30 26 1 26 27
M  V30 27 1 25 5
M  V30 28 1 23 10
M  V30 29 1 22 18
M  V30 30 1 1 28
M  V30 31 1 1 29
M  V30 32 1 1 30
M  V30 33 1 6 31
M  V30 34 1 9 32
M  V30 35 1 11 33
M  V30 36 1 18 34 CFG=3
M  V30 37 1 19 35
M  V30 38 1 19 36
M  V30 39 1 20 37
M  V30 40 1 20 38
M  V30 41 1 21 39
M  V30 42 1 22 40
M  V30 43 1 22 41
M  V30 44 1 24 42
M  V30 45 1 27 43
M  V30 46 1 27 44
M  V30 47 1 27 45
M  V30 END BOND
M  V30 END CTAB
M  END
>  <Dataset>  (845) 
ChEMBL_Kinases

>  <Ligand_Instance>  (845) 
nan

>  <PDB_ID>  (845) 
nan

>  <Standardized_SMILES>  (845) 
COC(=O)c1cnc(Nc2cnc(C#N)c(O[C@@H]3CCNC3)n2)cc1OC

>  <Name>  (845) 
nan

>  <Pocket>  (845) 
nan

>  <ATP_Site>  (845) 
nan

>  <Peripheral>  (845) 
nan

>  <Num_H_Atoms_ProtBoundConf>  (845) 
nan

>  <Num_Resolved_Atoms>  (845) 
nan

>  <Num_Not_Resolved_Atoms>  (845) 
nan

$$$$
CHEMBL2204583
     RDKit          3D

  0  0  0  0  0  0  0  0  0  0999 V3000
M  V30 BEGIN CTAB
M  V30 COUNTS 49 51 0 0 0
M  V30 BEGIN ATOM
M  V30 1 C 0.358807 -6.349510 2.562822 0
M  V30 2 O -0.332713 -5.517187 1.705309 0
M  V30 3 C 0.046270 -4.478442 0.940500 0
M  V30 4 O 0.929868 -5.034287 1.616870 0
M  V30 5 C 0.387440 -3.360822 0.101246 0
M  V30 6 C 1.707463 -2.972248 0.105763 0
M  V30 7 N 2.000211 -1.914839 -0.694667 0
M  V30 8 C 1.058608 -1.313869 -1.422533 0
M  V30 9 N 1.565566 -0.236733 -2.186529 0
M  V30 10 C 1.598814 1.081402 -1.650551 0
M  V30 11 C 2.087242 2.176700 -2.360335 0
M  V30 12 N 2.096033 3.411981 -1.801588 0
M  V30 13 C 1.637611 3.629897 -0.549614 0
M  V30 14 C 1.677743 4.964102 -0.022941 0
M  V30 15 N 1.728889 6.038509 0.402008 0
M  V30 16 C 1.152519 2.543903 0.156172 0
M  V30 17 O 0.680342 2.758238 1.440948 0
M  V30 18 C 0.162647 1.764469 2.271477 0 CFG=2
M  V30 19 C -1.177828 2.138621 2.876144 0
M  V30 20 C -0.758876 3.245411 3.824237 0
M  V30 21 N 0.655224 3.097235 4.064695 0
M  V30 22 C 1.020154 1.782320 3.544772 0
M  V30 23 N 1.154410 1.338645 -0.415245 0
M  V30 24 C -0.250165 -1.723367 -1.407049 0
M  V30 25 C -0.648036 -2.804574 -0.612850 0
M  V30 26 N -2.004303 -3.162667 -0.654524 0
M  V30 27 C -2.919528 -2.378705 -1.490268 0
M  V30 28 C -2.616110 -4.256408 0.057992 0
M  V30 29 H 0.764144 -5.876860 3.484193 0
M  V30 30 H -0.415114 -7.075965 2.967529 0
M  V30 31 H 1.111981 -7.023600 2.099187 0
M  V30 32 H 2.446985 -3.462883 0.692773 0
M  V30 33 H 1.920537 -0.376941 -3.141744 0
M  V30 34 H 2.448974 1.967515 -3.365767 0
M  V30 35 H 0.150527 0.749699 1.823268 0
M  V30 36 H -1.923615 2.458658 2.131051 0
M  V30 37 H -1.528239 1.283213 3.481719 0
M  V30 38 H -1.009949 4.209338 3.310808 0
M  V30 39 H -1.359953 3.265383 4.759639 0
M  V30 40 H 1.156920 3.790273 3.432500 0
M  V30 41 H 0.617221 1.009119 4.211824 0
M  V30 42 H 2.086446 1.700544 3.319371 0
M  V30 43 H -0.874860 -1.126494 -2.054469 0
M  V30 44 H -2.803808 -2.613346 -2.564638 0
M  V30 45 H -2.751513 -1.289951 -1.297018 0
M  V30 46 H -3.975128 -2.553230 -1.216555 0
M  V30 47 H -2.193355 -5.235265 -0.229382 0
M  V30 48 H -2.547899 -4.082243 1.145420 0
M  V30 49 H -3.725707 -4.292190 -0.146370 0
M  V30 END ATOM
M  V30 BEGIN BOND
M  V30 1 1 1 2
M  V30 2 1 2 3
M  V30 3 2 3 4
M  V30 4 1 3 5
M  V30 5 2 5 6
M  V30 6 1 6 7
M  V30 7 2 7 8
M  V30 8 1 8 9
M  V30 9 1 9 10
M  V30 10 2 10 11
M  V30 11 1 11 12
M  V30 12 2 12 13
M  V30 13 1 13 14
M  V30 14 3 14 15
M  V30 15 1 13 16
M  V30 16 1 16 17
M  V30 17 1 17 18
M  V30 18 1 18 19
M  V30 19 1 19 20
M  V30 20 1 20 21
M  V30 21 1 21 22
M  V30 22 2 16 23
M  V30 23 1 8 24
M  V30 24 2 24 25
M  V30 25 1 25 26
M  V30 26 1 26 27
M  V30 27 1 26 28
M  V30 28 1 25 5
M  V30 29 1 23 10
M  V30 30 1 22 18
M  V30 31 1 1 29
M  V30 32 1 1 30
M  V30 33 1 1 31
M  V30 34 1 6 32
M  V30 35 1 9 33
M  V30 36 1 11 34
M  V30 37 1 18 35 CFG=3
M  V30 38 1 19 36
M  V30 39 1 19 37
M  V30 40 1 20 38
M  V30 41 1 20 39
M  V30 42 1 21 40
M  V30 43 1 22 41
M  V30 44 1 22 42
M  V30 45 1 24 43
M  V30 46 1 27 44
M  V30 47 1 27 45
M  V30 48 1 27 46
M  V30 49 1 28 47
M  V30 50 1 28 48
M  V30 51 1 28 49
M  V30 END BOND
M  V30 END CTAB
M  END
>  <Dataset>  (846) 
ChEMBL_Kinases

>  <Ligand_Instance>  (846) 
nan

>  <PDB_ID>  (846) 
nan

>  <Standardized_SMILES>  (846) 
COC(=O)c1cnc(Nc2cnc(C#N)c(O[C@@H]3CCNC3)n2)cc1N(C)C

>  <Name>  (846) 
nan

>  <Pocket>  (846) 
nan

>  <ATP_Site>  (846) 
nan

>  <Peripheral>  (846) 
nan

>  <Num_H_Atoms_ProtBoundConf>  (846) 
nan

>  <Num_Resolved_Atoms>  (846) 
nan

>  <Num_Not_Resolved_Atoms>  (846) 
nan

$$$$
CHEMBL2204495
     RDKit          3D

  0  0  0  0  0  0  0  0  0  0999 V3000
M  V30 BEGIN CTAB
M  V30 COUNTS 48 51 0 0 0
M  V30 BEGIN ATOM
M  V30 1 O -1.200277 1.887989 1.709304 0
M  V30 2 C -0.337342 1.261407 0.966691 0
M  V30 3 N 0.636815 2.268624 0.997198 0
M  V30 4 C 0.584099 3.507314 1.648342 0
M  V30 5 C 0.216458 4.626898 0.845520 0
M  V30 6 C 0.088985 5.942653 1.366559 0
M  V30 7 C 0.335869 6.136497 2.728072 0
M  V30 8 N 0.666246 5.080409 3.415154 0
M  V30 9 C 0.806356 3.823710 3.000794 0
M  V30 10 C -0.689159 -0.030086 0.487855 0
M  V30 11 C -1.901848 -0.572056 0.868076 0
M  V30 12 C -2.256720 -1.820969 0.488449 0
M  V30 13 C -3.490989 -2.538061 0.798758 0
M  V30 14 C -4.742300 -1.871626 0.972160 0
M  V30 15 C -5.741144 -2.788128 1.238387 0
M  V30 16 N -5.747108 -4.096474 1.353664 0
M  V30 17 C -4.558467 -4.741952 1.191975 0
M  V30 18 F -4.342994 -6.061997 1.267763 0
M  V30 19 C -3.500934 -3.906189 0.921284 0
M  V30 20 C -1.399844 -2.574569 -0.292311 0
M  V30 21 C -0.204028 -1.992664 -0.640647 0
M  V30 22 C 0.271300 -0.725390 -0.312658 0
M  V30 23 O 1.476188 -0.206006 -0.690267 0
M  V30 24 C 2.443306 -0.928111 -1.433887 0
M  V30 25 C 2.982866 -2.081174 -0.706481 0
M  V30 26 C 3.902051 -1.500864 0.248384 0
M  V30 27 C 4.667948 -2.237946 1.171743 0
M  V30 28 C 4.534428 -3.628146 1.166966 0
M  V30 29 C 3.686101 -4.244917 0.291155 0
M  V30 30 C 3.014219 -3.400190 -0.538750 0
M  V30 31 H 1.422539 1.833587 0.394881 0
M  V30 32 H 0.026376 4.450521 -0.220910 0
M  V30 33 H -0.176638 6.666395 0.633626 0
M  V30 34 H 0.238291 7.151277 3.112108 0
M  V30 35 H 1.082565 2.978995 3.617378 0
M  V30 36 H -2.607940 -0.038870 1.446584 0
M  V30 37 H -4.828513 -0.820248 0.899912 0
M  V30 38 H -6.746516 -2.338875 1.388110 0
M  V30 39 H -2.512191 -4.387165 0.779532 0
M  V30 40 H -1.528208 -3.553515 -0.744895 0
M  V30 41 H 0.461922 -2.561995 -1.258242 0
M  V30 42 H 2.000654 -1.224494 -2.427876 0
M  V30 43 H 3.272839 -0.244289 -1.715531 0
M  V30 44 H 4.164425 -0.452080 0.416154 0
M  V30 45 H 5.362459 -1.848232 1.897868 0
M  V30 46 H 5.089564 -4.245242 1.855637 0
M  V30 47 H 3.480771 -5.293914 0.173153 0
M  V30 48 H 2.341543 -3.827054 -1.282016 0
M  V30 END ATOM
M  V30 BEGIN BOND
M  V30 1 2 1 2
M  V30 2 1 2 3
M  V30 3 1 3 4
M  V30 4 2 4 5
M  V30 5 1 5 6
M  V30 6 2 6 7
M  V30 7 1 7 8
M  V30 8 2 8 9
M  V30 9 1 2 10
M  V30 10 2 10 11
M  V30 11 1 11 12
M  V30 12 1 12 13
M  V30 13 2 13 14
M  V30 14 1 14 15
M  V30 15 2 15 16
M  V30 16 1 16 17
M  V30 17 1 17 18
M  V30 18 2 17 19
M  V30 19 2 12 20
M  V30 20 1 20 21
M  V30 21 2 21 22
M  V30 22 1 22 23
M  V30 23 1 23 24
M  V30 24 1 24 25
M  V30 25 2 25 26
M  V30 26 1 26 27
M  V30 27 2 27 28
M  V30 28 1 28 29
M  V30 29 2 29 30
M  V30 30 1 9 4
M  V30 31 1 22 10
M  V30 32 1 30 25
M  V30 33 1 19 13
M  V30 34 1 3 31
M  V30 35 1 5 32
M  V30 36 1 6 33
M  V30 37 1 7 34
M  V30 38 1 9 35
M  V30 39 1 11 36
M  V30 40 1 14 37
M  V30 41 1 15 38
M  V30 42 1 19 39
M  V30 43 1 20 40
M  V30 44 1 21 41
M  V30 45 1 24 42
M  V30 46 1 24 43
M  V30 47 1 26 44
M  V30 48 1 27 45
M  V30 49 1 28 46
M  V30 50 1 29 47
M  V30 51 1 30 48
M  V30 END BOND
M  V30 END CTAB
M  END
>  <Dataset>  (847) 
ChEMBL_Kinases

>  <Ligand_Instance>  (847) 
nan

>  <PDB_ID>  (847) 
nan

>  <Standardized_SMILES>  (847) 
O=C(Nc1cccnc1)c1cc(-c2ccnc(F)c2)ccc1OCc1ccccc1

>  <Name>  (847) 
nan

>  <Pocket>  (847) 
nan

>  <ATP_Site>  (847) 
nan

>  <Peripheral>  (847) 
nan

>  <Num_H_Atoms_ProtBoundConf>  (847) 
nan

>  <Num_Resolved_Atoms>  (847) 
nan

>  <Num_Not_Resolved_Atoms>  (847) 
nan

$$$$
CHEMBL2204241
     RDKit          3D

  0  0  0  0  0  0  0  0  0  0999 V3000
M  V30 BEGIN CTAB
M  V30 COUNTS 38 41 0 0 0
M  V30 BEGIN ATOM
M  V30 1 O 1.039108 -2.051577 2.857656 0
M  V30 2 C 0.706916 -2.786041 1.891006 0
M  V30 3 N 1.326282 -2.469844 0.611472 0
M  V30 4 C 2.167292 -1.367362 0.843707 0
M  V30 5 C 3.386466 -1.832286 1.268836 0
M  V30 6 C 4.382971 -0.946578 1.598126 0
M  V30 7 F 5.618726 -1.288916 2.026387 0
M  V30 8 C 4.093008 0.373803 1.479877 0
M  V30 9 C 2.855703 0.771104 1.048657 0
M  V30 10 C 1.821042 -0.067170 0.704225 0
M  V30 11 C 0.605977 0.506511 0.210460 0
M  V30 12 N 0.535130 1.836791 0.209503 0
M  V30 13 C -0.501790 2.534834 -0.233330 0
M  V30 14 C -0.396762 3.908172 -0.154107 0
M  V30 15 C -1.486817 4.610782 -0.619267 0
M  V30 16 C -2.645703 4.084287 -1.144216 0
M  V30 17 C -2.668261 2.706729 -1.187066 0
M  V30 18 C -1.623215 1.930491 -0.743532 0
M  V30 19 N -1.604935 0.592998 -0.766700 0
M  V30 20 C -0.525460 -0.027790 -0.303553 0
M  V30 21 O -0.641268 -1.251682 -0.387883 0
M  V30 22 C -0.224876 -3.848812 2.098086 0
M  V30 23 C -0.796267 -4.805077 1.333840 0
M  V30 24 C -1.676820 -5.707338 1.828181 0
M  V30 25 C -1.946146 -5.546338 3.258053 0
M  V30 26 S -0.869730 -4.083307 3.707442 0
M  V30 27 H 0.997168 -3.165369 -0.130816 0
M  V30 28 H 3.681444 -2.876231 1.384463 0
M  V30 29 H 4.836088 1.111028 1.724398 0
M  V30 30 H 2.735908 1.857118 0.992591 0
M  V30 31 H 0.489945 4.375359 0.249108 0
M  V30 32 H -1.414162 5.700591 -0.561038 0
M  V30 33 H -3.457646 4.688776 -1.488777 0
M  V30 34 H -3.538690 2.171731 -1.584684 0
M  V30 35 H -2.441584 0.137553 -1.147678 0
M  V30 36 H -0.476736 -4.768905 0.302211 0
M  V30 37 H -2.132490 -6.470292 1.217669 0
M  V30 38 H -2.735098 -6.358876 3.688872 0
M  V30 END ATOM
M  V30 BEGIN BOND
M  V30 1 2 1 2
M  V30 2 1 2 3
M  V30 3 1 3 4
M  V30 4 2 4 5
M  V30 5 1 5 6
M  V30 6 1 6 7
M  V30 7 2 6 8
M  V30 8 1 8 9
M  V30 9 2 9 10
M  V30 10 1 10 11
M  V30 11 2 11 12
M  V30 12 1 12 13
M  V30 13 2 13 14
M  V30 14 1 14 15
M  V30 15 2 15 16
M  V30 16 1 16 17
M  V30 17 2 17 18
M  V30 18 1 18 19
M  V30 19 1 19 20
M  V30 20 2 20 21
M  V30 21 1 2 22
M  V30 22 2 22 23
M  V30 23 1 23 24
M  V30 24 2 24 25
M  V30 25 1 25 26
M  V30 26 1 10 4
M  V30 27 1 20 11
M  V30 28 1 26 22
M  V30 29 1 18 13
M  V30 30 1 3 27
M  V30 31 1 5 28
M  V30 32 1 8 29
M  V30 33 1 9 30
M  V30 34 1 14 31
M  V30 35 1 15 32
M  V30 36 1 16 33
M  V30 37 1 17 34
M  V30 38 1 19 35
M  V30 39 1 23 36
M  V30 40 1 24 37
M  V30 41 1 25 38
M  V30 END BOND
M  V30 END CTAB
M  END
>  <Dataset>  (848) 
ChEMBL_Kinases

>  <Ligand_Instance>  (848) 
nan

>  <PDB_ID>  (848) 
nan

>  <Standardized_SMILES>  (848) 
O=C(Nc1cc(F)ccc1-c1nc2ccccc2[nH]c1=O)c1cccs1

>  <Name>  (848) 
nan

>  <Pocket>  (848) 
nan

>  <ATP_Site>  (848) 
nan

>  <Peripheral>  (848) 
nan

>  <Num_H_Atoms_ProtBoundConf>  (848) 
nan

>  <Num_Resolved_Atoms>  (848) 
nan

>  <Num_Not_Resolved_Atoms>  (848) 
nan

$$$$
CHEMBL2203845
     RDKit          3D

  0  0  0  0  0  0  0  0  0  0999 V3000
M  V30 BEGIN CTAB
M  V30 COUNTS 52 55 0 0 0
M  V30 BEGIN ATOM
M  V30 1 C -2.777338 -4.928470 2.964623 0
M  V30 2 O -2.511590 -4.941741 1.624847 0
M  V30 3 C -1.677048 -4.176820 0.846718 0
M  V30 4 C -0.920531 -3.204285 1.465480 0
M  V30 5 C -0.064046 -2.410658 0.740365 0
M  V30 6 N 0.735076 -1.440210 1.390698 0
M  V30 7 C 1.682535 -0.456528 1.051450 0
M  V30 8 C 2.862302 -1.019679 0.543650 0
M  V30 9 N 3.880226 -0.180028 0.191632 0
M  V30 10 C 3.692044 1.142265 0.353431 0
M  V30 11 C 4.766216 2.039328 -0.022724 0
M  V30 12 N 5.625617 2.773167 -0.334905 0
M  V30 13 C 2.562271 1.735635 0.844389 0
M  V30 14 O 2.459599 3.105325 0.978448 0
M  V30 15 C 1.239680 3.625538 1.507140 0 CFG=2
M  V30 16 C 0.712021 4.733757 0.663519 0
M  V30 17 C 1.357059 5.966265 1.264457 0
M  V30 18 N 1.644527 5.688368 2.634260 0
M  V30 19 C 2.946061 6.169416 3.068873 0
M  V30 20 C 1.501446 4.270057 2.855370 0
M  V30 21 N 1.565222 0.872577 1.185266 0
M  V30 22 N 0.039940 -2.579828 -0.592816 0
M  V30 23 C -0.686132 -3.521791 -1.230879 0
M  V30 24 C -1.559154 -4.343900 -0.544785 0
M  V30 25 C -2.379736 -5.395521 -1.162568 0
M  V30 26 C -2.591551 -6.707841 -0.796602 0
M  V30 27 N -3.432919 -7.294143 -1.668387 0
M  V30 28 N -3.790121 -6.419538 -2.601997 0
M  V30 29 C -4.697164 -6.812260 -3.659013 0
M  V30 30 C -3.155236 -5.265349 -2.302755 0
M  V30 31 H -3.828093 -4.608133 3.217589 0
M  V30 32 H -2.140169 -4.196307 3.489634 0
M  V30 33 H -2.558636 -5.903694 3.475358 0
M  V30 34 H -0.923575 -2.973061 2.539041 0
M  V30 35 H 0.713646 -1.307231 2.424853 0
M  V30 36 H 3.114415 -2.055597 0.375186 0
M  V30 37 H 0.531526 2.796269 1.623045 0
M  V30 38 H -0.394110 4.771131 0.667412 0
M  V30 39 H 1.019438 4.646422 -0.410633 0
M  V30 40 H 0.611338 6.788585 1.205669 0
M  V30 41 H 2.261725 6.251332 0.715923 0
M  V30 42 H 3.496671 6.578456 2.200471 0
M  V30 43 H 2.767373 6.991078 3.788669 0
M  V30 44 H 3.535553 5.369346 3.565232 0
M  V30 45 H 2.373010 3.806705 3.349870 0
M  V30 46 H 0.610008 4.099903 3.490273 0
M  V30 47 H -0.677920 -3.736904 -2.280455 0
M  V30 48 H -2.115779 -7.146602 0.080539 0
M  V30 49 H -4.243993 -7.638976 -4.252297 0
M  V30 50 H -5.692335 -7.103407 -3.255291 0
M  V30 51 H -4.838128 -5.974742 -4.350763 0
M  V30 52 H -3.286900 -4.374225 -2.932820 0
M  V30 END ATOM
M  V30 BEGIN BOND
M  V30 1 1 1 2
M  V30 2 1 2 3
M  V30 3 2 3 4
M  V30 4 1 4 5
M  V30 5 1 5 6
M  V30 6 1 6 7
M  V30 7 2 7 8
M  V30 8 1 8 9
M  V30 9 2 9 10
M  V30 10 1 10 11
M  V30 11 3 11 12
M  V30 12 1 10 13
M  V30 13 1 13 14
M  V30 14 1 14 15
M  V30 15 1 15 16
M  V30 16 1 16 17
M  V30 17 1 17 18
M  V30 18 1 18 19
M  V30 19 1 18 20
M  V30 20 2 13 21
M  V30 21 2 5 22
M  V30 22 1 22 23
M  V30 23 2 23 24
M  V30 24 1 24 25
M  V30 25 1 25 26
M  V30 26 2 26 27
M  V30 27 1 27 28
M  V30 28 1 28 29
M  V30 29 1 28 30
M  V30 30 1 24 3
M  V30 31 2 30 25
M  V30 32 1 21 7
M  V30 33 1 20 15
M  V30 34 1 1 31
M  V30 35 1 1 32
M  V30 36 1 1 33
M  V30 37 1 4 34
M  V30 38 1 6 35
M  V30 39 1 8 36
M  V30 40 1 15 37 CFG=1
M  V30 41 1 16 38
M  V30 42 1 16 39
M  V30 43 1 17 40
M  V30 44 1 17 41
M  V30 45 1 19 42
M  V30 46 1 19 43
M  V30 47 1 19 44
M  V30 48 1 20 45
M  V30 49 1 20 46
M  V30 50 1 23 47
M  V30 51 1 26 48
M  V30 52 1 29 49
M  V30 53 1 29 50
M  V30 54 1 29 51
M  V30 55 1 30 52
M  V30 END BOND
M  V30 END CTAB
M  END
>  <Dataset>  (849) 
ChEMBL_Kinases

>  <Ligand_Instance>  (849) 
nan

>  <PDB_ID>  (849) 
nan

>  <Standardized_SMILES>  (849) 
COc1cc(Nc2cnc(C#N)c(O[C@@H]3CCN(C)C3)n2)ncc1-c1cnn(C)c1

>  <Name>  (849) 
nan

>  <Pocket>  (849) 
nan

>  <ATP_Site>  (849) 
nan

>  <Peripheral>  (849) 
nan

>  <Num_H_Atoms_ProtBoundConf>  (849) 
nan

>  <Num_Resolved_Atoms>  (849) 
nan

>  <Num_Not_Resolved_Atoms>  (849) 
nan

$$$$
CHEMBL2203846
     RDKit          3D

  0  0  0  0  0  0  0  0  0  0999 V3000
M  V30 BEGIN CTAB
M  V30 COUNTS 54 56 0 0 0
M  V30 BEGIN ATOM
M  V30 1 C -1.563275 -3.410693 1.657086 0
M  V30 2 S 0.103727 -3.717381 2.308130 0
M  V30 3 C 1.263763 -3.083983 1.098183 0
M  V30 4 C 1.702044 -1.770766 1.165574 0
M  V30 5 C 2.601930 -1.295249 0.219469 0
M  V30 6 N 3.079685 0.068245 0.259866 0
M  V30 7 C 2.032356 0.621261 -0.564466 0
M  V30 8 C 2.135905 0.706847 -1.954585 0
M  V30 9 N 1.125011 1.233037 -2.664852 0
M  V30 10 C 0.024497 1.671863 -2.032557 0
M  V30 11 C -1.062239 2.239124 -2.811115 0
M  V30 12 N -1.932372 2.681824 -3.450694 0
M  V30 13 C -0.122351 1.607819 -0.662175 0
M  V30 14 O -1.288463 2.082464 -0.094514 0
M  V30 15 C -1.582318 2.087640 1.261893 0 CFG=2
M  V30 16 C -2.681009 1.075984 1.612267 0
M  V30 17 C -2.026960 3.392332 1.829067 0
M  V30 18 N -1.100543 4.476989 1.717238 0
M  V30 19 C -1.701231 5.649600 2.342266 0
M  V30 20 C -0.858455 4.811212 0.327644 0
M  V30 21 N 0.904851 1.077160 0.017319 0
M  V30 22 N 3.027386 -2.138790 -0.749684 0
M  V30 23 C 2.593977 -3.426778 -0.811222 0
M  V30 24 C 1.701046 -3.944975 0.105102 0
M  V30 25 C 1.229498 -5.330462 0.045654 0
M  V30 26 C 0.842675 -5.856089 -1.191587 0
M  V30 27 N 0.458382 -7.129631 -0.956298 0
M  V30 28 N 0.577552 -7.425021 0.315818 0
M  V30 29 C 0.262854 -8.697786 0.957471 0
M  V30 30 C 1.048806 -6.344189 0.964629 0
M  V30 31 H -2.352816 -3.555604 2.408612 0
M  V30 32 H -1.814031 -4.059504 0.793686 0
M  V30 33 H -1.577004 -2.378786 1.263237 0
M  V30 34 H 1.340988 -1.140756 1.946059 0
M  V30 35 H 3.921245 0.444874 0.751682 0
M  V30 36 H 3.040440 0.340270 -2.415620 0
M  V30 37 H -0.675727 1.674970 1.793530 0
M  V30 38 H -2.283370 0.039656 1.560628 0
M  V30 39 H -3.583144 1.251781 1.010621 0
M  V30 40 H -2.957170 1.293760 2.669503 0
M  V30 41 H -2.277019 3.199327 2.907313 0
M  V30 42 H -3.010225 3.645107 1.371675 0
M  V30 43 H -0.978780 6.160290 3.030342 0
M  V30 44 H -2.107681 6.347670 1.593550 0
M  V30 45 H -2.532287 5.322152 2.993986 0
M  V30 46 H -1.706032 4.371726 -0.270442 0
M  V30 47 H -0.944017 5.898288 0.186364 0
M  V30 48 H 0.107800 4.417794 -0.051060 0
M  V30 49 H 2.959235 -4.078436 -1.607483 0
M  V30 50 H 0.834526 -5.372921 -2.180416 0
M  V30 51 H 0.656862 -8.711020 1.993636 0
M  V30 52 H 0.596946 -9.550335 0.345667 0
M  V30 53 H -0.845363 -8.821590 1.063421 0
M  V30 54 H 1.280855 -6.173772 1.989279 0
M  V30 END ATOM
M  V30 BEGIN BOND
M  V30 1 1 1 2
M  V30 2 1 2 3
M  V30 3 2 3 4
M  V30 4 1 4 5
M  V30 5 1 5 6
M  V30 6 1 6 7
M  V30 7 2 7 8
M  V30 8 1 8 9
M  V30 9 2 9 10
M  V30 10 1 10 11
M  V30 11 3 11 12
M  V30 12 1 10 13
M  V30 13 1 13 14
M  V30 14 1 14 15
M  V30 15 1 15 16
M  V30 16 1 15 17
M  V30 17 1 17 18
M  V30 18 1 18 19
M  V30 19 1 18 20
M  V30 20 2 13 21
M  V30 21 2 5 22
M  V30 22 1 22 23
M  V30 23 2 23 24
M  V30 24 1 24 25
M  V30 25 1 25 26
M  V30 26 2 26 27
M  V30 27 1 27 28
M  V30 28 1 28 29
M  V30 29 1 28 30
M  V30 30 1 24 3
M  V30 31 2 30 25
M  V30 32 1 21 7
M  V30 33 1 1 31
M  V30 34 1 1 32
M  V30 35 1 1 33
M  V30 36 1 4 34
M  V30 37 1 6 35
M  V30 38 1 8 36
M  V30 39 1 15 37 CFG=1
M  V30 40 1 16 38
M  V30 41 1 16 39
M  V30 42 1 16 40
M  V30 43 1 17 41
M  V30 44 1 17 42
M  V30 45 1 19 43
M  V30 46 1 19 44
M  V30 47 1 19 45
M  V30 48 1 20 46
M  V30 49 1 20 47
M  V30 50 1 20 48
M  V30 51 1 23 49
M  V30 52 1 26 50
M  V30 53 1 29 51
M  V30 54 1 29 52
M  V30 55 1 29 53
M  V30 56 1 30 54
M  V30 END BOND
M  V30 END CTAB
M  END
>  <Dataset>  (850) 
ChEMBL_Kinases

>  <Ligand_Instance>  (850) 
nan

>  <PDB_ID>  (850) 
nan

>  <Standardized_SMILES>  (850) 
CSc1cc(Nc2cnc(C#N)c(O[C@H](C)CN(C)C)n2)ncc1-c1cnn(C)c1

>  <Name>  (850) 
nan

>  <Pocket>  (850) 
nan

>  <ATP_Site>  (850) 
nan

>  <Peripheral>  (850) 
nan

>  <Num_H_Atoms_ProtBoundConf>  (850) 
nan

>  <Num_Resolved_Atoms>  (850) 
nan

>  <Num_Not_Resolved_Atoms>  (850) 
nan

$$$$
CHEMBL2203847
     RDKit          3D

  0  0  0  0  0  0  0  0  0  0999 V3000
M  V30 BEGIN CTAB
M  V30 COUNTS 51 52 0 0 0
M  V30 BEGIN ATOM
M  V30 1 C -0.025517 -3.625902 2.786240 0
M  V30 2 N 0.738149 -4.107089 1.654241 0
M  V30 3 C 1.705449 -3.417086 0.918698 0
M  V30 4 C 2.066569 -2.122470 1.201089 0
M  V30 5 C 3.041244 -1.470828 0.435988 0
M  V30 6 N 3.381664 -0.124321 0.768621 0
M  V30 7 C 2.423219 0.531520 -0.081299 0
M  V30 8 C 2.779862 0.883873 -1.369760 0
M  V30 9 N 1.860356 1.494548 -2.140156 0
M  V30 10 C 0.607263 1.767061 -1.682232 0
M  V30 11 C -0.317406 2.430879 -2.588773 0
M  V30 12 N -1.066149 2.947986 -3.314744 0
M  V30 13 C 0.255544 1.412882 -0.393728 0
M  V30 14 O -1.018401 1.691730 0.066128 0
M  V30 15 C -1.519060 1.394130 1.330620 0 CFG=2
M  V30 16 C -2.740006 0.574373 1.422795 0
M  V30 17 C -1.715982 2.694636 2.071080 0
M  V30 18 N -2.601518 3.619390 1.463296 0
M  V30 19 C -3.984343 3.301146 1.425105 0
M  V30 20 C -2.449224 4.902346 2.125196 0
M  V30 21 N 1.206671 0.794185 0.368344 0
M  V30 22 N 3.599760 -2.161603 -0.573940 0
M  V30 23 C 3.259920 -3.427218 -0.865086 0
M  V30 24 C 2.301335 -4.086191 -0.122545 0
M  V30 25 C 2.061000 -5.438140 -0.574147 0
M  V30 26 O 2.605103 -6.048072 -1.526307 0
M  V30 27 O 1.225899 -6.443345 -0.157559 0
M  V30 28 C 1.169413 -7.716040 -0.779255 0
M  V30 29 H 0.156108 -2.542526 3.005262 0
M  V30 30 H -1.132653 -3.697006 2.586303 0
M  V30 31 H 0.196399 -4.248630 3.669322 0
M  V30 32 H 0.410181 -5.080569 1.505099 0
M  V30 33 H 1.629336 -1.572014 1.997541 0
M  V30 34 H 4.117076 0.246816 1.437388 0
M  V30 35 H 3.784352 0.642111 -1.673996 0
M  V30 36 H -0.693527 0.866349 1.913615 0
M  V30 37 H -2.472729 -0.485369 1.732740 0
M  V30 38 H -3.297580 0.426160 0.478552 0
M  V30 39 H -3.478529 0.880035 2.190012 0
M  V30 40 H -1.991294 2.494375 3.150035 0
M  V30 41 H -0.725617 3.235517 2.177064 0
M  V30 42 H -4.307807 2.555834 0.691948 0
M  V30 43 H -4.402594 3.052031 2.445743 0
M  V30 44 H -4.514277 4.251798 1.094559 0
M  V30 45 H -2.571386 4.700133 3.210030 0
M  V30 46 H -3.243350 5.626329 1.842414 0
M  V30 47 H -1.432777 5.322476 1.940705 0
M  V30 48 H 3.806635 -3.848090 -1.716695 0
M  V30 49 H 1.203409 -7.634623 -1.891764 0
M  V30 50 H 0.282424 -8.288318 -0.449810 0
M  V30 51 H 2.075090 -8.281908 -0.479319 0
M  V30 END ATOM
M  V30 BEGIN BOND
M  V30 1 1 1 2
M  V30 2 1 2 3
M  V30 3 2 3 4
M  V30 4 1 4 5
M  V30 5 1 5 6
M  V30 6 1 6 7
M  V30 7 2 7 8
M  V30 8 1 8 9
M  V30 9 2 9 10
M  V30 10 1 10 11
M  V30 11 3 11 12
M  V30 12 1 10 13
M  V30 13 1 13 14
M  V30 14 1 14 15
M  V30 15 1 15 16
M  V30 16 1 15 17
M  V30 17 1 17 18
M  V30 18 1 18 19
M  V30 19 1 18 20
M  V30 20 2 13 21
M  V30 21 2 5 22
M  V30 22 1 22 23
M  V30 23 2 23 24
M  V30 24 1 24 25
M  V30 25 2 25 26
M  V30 26 1 25 27
M  V30 27 1 27 28
M  V30 28 1 24 3
M  V30 29 1 21 7
M  V30 30 1 1 29
M  V30 31 1 1 30
M  V30 32 1 1 31
M  V30 33 1 2 32
M  V30 34 1 4 33
M  V30 35 1 6 34
M  V30 36 1 8 35
M  V30 37 1 15 36 CFG=1
M  V30 38 1 16 37
M  V30 39 1 16 38
M  V30 40 1 16 39
M  V30 41 1 17 40
M  V30 42 1 17 41
M  V30 43 1 19 42
M  V30 44 1 19 43
M  V30 45 1 19 44
M  V30 46 1 20 45
M  V30 47 1 20 46
M  V30 48 1 20 47
M  V30 49 1 23 48
M  V30 50 1 28 49
M  V30 51 1 28 50
M  V30 52 1 28 51
M  V30 END BOND
M  V30 END CTAB
M  END
>  <Dataset>  (851) 
ChEMBL_Kinases

>  <Ligand_Instance>  (851) 
nan

>  <PDB_ID>  (851) 
nan

>  <Standardized_SMILES>  (851) 
CNc1cc(Nc2cnc(C#N)c(O[C@H](C)CN(C)C)n2)ncc1C(=O)OC

>  <Name>  (851) 
nan

>  <Pocket>  (851) 
nan

>  <ATP_Site>  (851) 
nan

>  <Peripheral>  (851) 
nan

>  <Num_H_Atoms_ProtBoundConf>  (851) 
nan

>  <Num_Resolved_Atoms>  (851) 
nan

>  <Num_Not_Resolved_Atoms>  (851) 
nan

$$$$
CHEMBL2203848
     RDKit          3D

  0  0  0  0  0  0  0  0  0  0999 V3000
M  V30 BEGIN CTAB
M  V30 COUNTS 46 48 0 0 0
M  V30 BEGIN ATOM
M  V30 1 C -0.327037 -2.669153 3.444216 0
M  V30 2 N -1.302006 -2.747197 2.379606 0
M  V30 3 C -1.789525 -1.624040 1.690647 0
M  V30 4 C -1.364217 -0.328308 1.980948 0
M  V30 5 C -1.844832 0.775129 1.300870 0
M  V30 6 N -1.328969 2.052472 1.683384 0
M  V30 7 C -0.344544 2.155487 0.672528 0
M  V30 8 C -0.814421 2.910064 -0.408792 0
M  V30 9 N -0.003271 3.108431 -1.483971 0
M  V30 10 C 1.235745 2.577593 -1.493409 0
M  V30 11 C 2.106864 2.785954 -2.630697 0
M  V30 12 N 2.797303 2.950562 -3.554823 0
M  V30 13 C 1.710867 1.832879 -0.438864 0
M  V30 14 O 2.985796 1.247194 -0.377476 0
M  V30 15 C 3.307155 0.532883 0.781387 0 CFG=2
M  V30 16 C 4.614515 0.930411 1.423302 0
M  V30 17 C 4.883947 -0.318397 2.274012 0
M  V30 18 N 4.613202 -1.369110 1.315945 0
M  V30 19 C 3.486084 -0.951316 0.533025 0
M  V30 20 N 0.902818 1.639425 0.626681 0
M  V30 21 N -2.750024 0.595518 0.329717 0
M  V30 22 C -3.224732 -0.614562 -0.027342 0
M  V30 23 C -2.719402 -1.683482 0.674993 0
M  V30 24 C -3.268534 -2.969142 0.261963 0
M  V30 25 O -3.222819 -4.195534 0.511648 0
M  V30 26 O -4.179620 -3.183691 -0.731624 0
M  V30 27 C -4.738694 -4.375809 -1.167911 0
M  V30 28 H 0.200979 -3.657099 3.542430 0
M  V30 29 H 0.418540 -1.859014 3.266027 0
M  V30 30 H -0.829988 -2.544072 4.445132 0
M  V30 31 H -1.645853 -3.689907 2.122622 0
M  V30 32 H -0.622333 -0.171362 2.774468 0
M  V30 33 H -1.524361 2.761251 2.430202 0
M  V30 34 H -1.789346 3.383723 -0.514785 0
M  V30 35 H 2.511361 0.637046 1.580588 0
M  V30 36 H 5.437702 1.007715 0.704302 0
M  V30 37 H 4.485371 1.814973 2.074968 0
M  V30 38 H 4.118438 -0.429446 3.083669 0
M  V30 39 H 5.904149 -0.334819 2.651851 0
M  V30 40 H 5.418769 -1.482950 0.662919 0
M  V30 41 H 3.551757 -1.222745 -0.532548 0
M  V30 42 H 2.581968 -1.504918 0.917677 0
M  V30 43 H -3.950657 -0.685134 -0.819135 0
M  V30 44 H -4.138160 -5.277682 -1.072466 0
M  V30 45 H -4.924738 -4.262835 -2.277109 0
M  V30 46 H -5.736950 -4.593454 -0.722874 0
M  V30 END ATOM
M  V30 BEGIN BOND
M  V30 1 1 1 2
M  V30 2 1 2 3
M  V30 3 2 3 4
M  V30 4 1 4 5
M  V30 5 1 5 6
M  V30 6 1 6 7
M  V30 7 2 7 8
M  V30 8 1 8 9
M  V30 9 2 9 10
M  V30 10 1 10 11
M  V30 11 3 11 12
M  V30 12 1 10 13
M  V30 13 1 13 14
M  V30 14 1 14 15
M  V30 15 1 15 16
M  V30 16 1 16 17
M  V30 17 1 17 18
M  V30 18 1 18 19
M  V30 19 2 13 20
M  V30 20 2 5 21
M  V30 21 1 21 22
M  V30 22 2 22 23
M  V30 23 1 23 24
M  V30 24 2 24 25
M  V30 25 1 24 26
M  V30 26 1 26 27
M  V30 27 1 23 3
M  V30 28 1 20 7
M  V30 29 1 19 15
M  V30 30 1 1 28
M  V30 31 1 1 29
M  V30 32 1 1 30
M  V30 33 1 2 31
M  V30 34 1 4 32
M  V30 35 1 6 33
M  V30 36 1 8 34
M  V30 37 1 15 35 CFG=1
M  V30 38 1 16 36
M  V30 39 1 16 37
M  V30 40 1 17 38
M  V30 41 1 17 39
M  V30 42 1 18 40
M  V30 43 1 19 41
M  V30 44 1 19 42
M  V30 45 1 22 43
M  V30 46 1 27 44
M  V30 47 1 27 45
M  V30 48 1 27 46
M  V30 END BOND
M  V30 END CTAB
M  END
>  <Dataset>  (852) 
ChEMBL_Kinases

>  <Ligand_Instance>  (852) 
nan

>  <PDB_ID>  (852) 
nan

>  <Standardized_SMILES>  (852) 
CNc1cc(Nc2cnc(C#N)c(O[C@@H]3CCNC3)n2)ncc1C(=O)OC

>  <Name>  (852) 
nan

>  <Pocket>  (852) 
nan

>  <ATP_Site>  (852) 
nan

>  <Peripheral>  (852) 
nan

>  <Num_H_Atoms_ProtBoundConf>  (852) 
nan

>  <Num_Resolved_Atoms>  (852) 
nan

>  <Num_Not_Resolved_Atoms>  (852) 
nan

$$$$
CHEMBL220408
     RDKit          3D

  0  0  0  0  0  0  0  0  0  0999 V3000
M  V30 BEGIN CTAB
M  V30 COUNTS 44 47 0 0 0
M  V30 BEGIN ATOM
M  V30 1 C 0.368853 -1.788401 -1.679001 0
M  V30 2 C 1.393672 -1.451583 -0.619850 0
M  V30 3 N 1.790569 -0.058762 -0.647704 0
M  V30 4 C 2.781621 0.547679 -1.320858 0
M  V30 5 C 3.712192 -0.131392 -2.215383 0
M  V30 6 N 3.747370 -1.440491 -2.518958 0
M  V30 7 O 4.731721 -1.666638 -3.361697 0
M  V30 8 N 5.349693 -0.553167 -3.626887 0
M  V30 9 C 4.748452 0.434344 -2.933613 0
M  V30 10 N 5.025167 1.846301 -2.860380 0
M  V30 11 N 2.783140 1.857384 -1.046769 0
M  V30 12 C 1.797512 2.172151 -0.184346 0
M  V30 13 C 1.290556 3.292984 0.460822 0
M  V30 14 N 0.236967 3.215654 1.295731 0
M  V30 15 C -0.381713 2.045113 1.549482 0
M  V30 16 O -1.472821 1.881971 2.396666 0
M  V30 17 C -2.065665 0.638042 2.614085 0
M  V30 18 C -3.079735 0.403573 1.697992 0
M  V30 19 C -3.784456 -0.802591 1.771056 0
M  V30 20 C -3.492770 -1.749234 2.724439 0
M  V30 21 C -2.476836 -1.472745 3.613925 0
M  V30 22 S -2.057069 -2.634185 4.849327 0
M  V30 23 C -0.801785 -3.749143 4.232049 0
M  V30 24 O -1.502419 -1.911090 6.040260 0
M  V30 25 O -3.224820 -3.470972 5.257024 0
M  V30 26 C -1.756950 -0.297873 3.578230 0
M  V30 27 C 0.111992 0.904918 0.910946 0
M  V30 28 C 1.197950 0.950430 0.043199 0
M  V30 29 H 0.413777 -1.143235 -2.563643 0
M  V30 30 H -0.643293 -1.762619 -1.188484 0
M  V30 31 H 0.494475 -2.837626 -2.025871 0
M  V30 32 H 2.261541 -2.115308 -0.786517 0
M  V30 33 H 0.965960 -1.625124 0.406232 0
M  V30 34 H 4.309841 2.373439 -3.420558 0
M  V30 35 H 5.888716 1.885214 -2.244077 0
M  V30 36 H 1.787678 4.225070 0.255142 0
M  V30 37 H -3.400314 1.064726 0.908180 0
M  V30 38 H -4.594450 -1.035311 1.070231 0
M  V30 39 H -4.045531 -2.660945 2.758371 0
M  V30 40 H 0.173037 -3.253940 4.160885 0
M  V30 41 H -1.131866 -4.162452 3.238900 0
M  V30 42 H -0.722978 -4.578115 4.949737 0
M  V30 43 H -0.953008 -0.008844 4.234346 0
M  V30 44 H -0.376085 -0.048026 1.104924 0
M  V30 END ATOM
M  V30 BEGIN BOND
M  V30 1 1 1 2
M  V30 2 1 2 3
M  V30 3 1 3 4
M  V30 4 1 4 5
M  V30 5 2 5 6
M  V30 6 1 6 7
M  V30 7 1 7 8
M  V30 8 2 8 9
M  V30 9 1 9 10
M  V30 10 2 4 11
M  V30 11 1 11 12
M  V30 12 2 12 13
M  V30 13 1 13 14
M  V30 14 2 14 15
M  V30 15 1 15 16
M  V30 16 1 16 17
M  V30 17 2 17 18
M  V30 18 1 18 19
M  V30 19 2 19 20
M  V30 20 1 20 21
M  V30 21 1 21 22
M  V30 22 1 22 23
M  V30 23 2 22 24
M  V30 24 2 22 25
M  V30 25 2 21 26
M  V30 26 1 15 27
M  V30 27 2 27 28
M  V30 28 1 28 3
M  V30 29 1 9 5
M  V30 30 1 28 12
M  V30 31 1 26 17
M  V30 32 1 1 29
M  V30 33 1 1 30
M  V30 34 1 1 31
M  V30 35 1 2 32
M  V30 36 1 2 33
M  V30 37 1 10 34
M  V30 38 1 10 35
M  V30 39 1 13 36
M  V30 40 1 18 37
M  V30 41 1 19 38
M  V30 42 1 20 39
M  V30 43 1 23 40
M  V30 44 1 23 41
M  V30 45 1 23 42
M  V30 46 1 26 43
M  V30 47 1 27 44
M  V30 END BOND
M  V30 END CTAB
M  END
>  <Dataset>  (853) 
ChEMBL_Kinases

>  <Ligand_Instance>  (853) 
nan

>  <PDB_ID>  (853) 
nan

>  <Standardized_SMILES>  (853) 
CCn1c(-c2nonc2N)nc2cnc(Oc3cccc(S(C)(=O)=O)c3)cc21

>  <Name>  (853) 
nan

>  <Pocket>  (853) 
nan

>  <ATP_Site>  (853) 
nan

>  <Peripheral>  (853) 
nan

>  <Num_H_Atoms_ProtBoundConf>  (853) 
nan

>  <Num_Resolved_Atoms>  (853) 
nan

>  <Num_Not_Resolved_Atoms>  (853) 
nan

$$$$
CHEMBL2204100
     RDKit          3D

  0  0  0  0  0  0  0  0  0  0999 V3000
M  V30 BEGIN CTAB
M  V30 COUNTS 60 63 0 0 0
M  V30 BEGIN ATOM
M  V30 1 C 3.926014 -2.095465 1.193688 0
M  V30 2 O 2.564057 -1.747525 1.436695 0
M  V30 3 C 1.533987 -2.379076 0.756403 0
M  V30 4 O 2.257580 -3.143790 0.066899 0
M  V30 5 C 0.109715 -2.168450 0.862720 0
M  V30 6 C -0.479603 -1.258540 1.703864 0
M  V30 7 C 0.366966 -0.413690 2.587462 0
M  V30 8 N 1.007517 0.649127 1.830669 0
M  V30 9 C 1.794183 1.416496 2.729096 0
M  V30 10 C 2.305977 2.722451 2.122144 0
M  V30 11 C 1.108959 3.436689 1.602041 0
M  V30 12 S 1.400276 5.079631 1.063820 0
M  V30 13 C -0.135497 5.691072 0.378887 0
M  V30 14 O 2.485167 5.160715 0.043535 0
M  V30 15 O 1.774324 5.927309 2.240528 0
M  V30 16 C 0.603301 2.591689 0.424696 0
M  V30 17 C 0.004050 1.359526 1.115941 0
M  V30 18 C -1.853730 -1.205017 1.658307 0
M  V30 19 O -2.428608 -0.381814 2.416274 0
M  V30 20 C -2.609023 -2.005378 0.827994 0
M  V30 21 C -3.982933 -1.856521 0.874644 0
M  V30 22 C -4.721726 -2.666936 0.035456 0
M  V30 23 C -4.076557 -3.576214 -0.801042 0
M  V30 24 C -4.913744 -4.431297 -1.689701 0
M  V30 25 N -2.724359 -3.664202 -0.790139 0
M  V30 26 C -1.954819 -2.895652 0.010515 0
M  V30 27 N -0.611493 -2.964261 0.039379 0
M  V30 28 C -0.062608 -3.929049 -0.858260 0
M  V30 29 C 0.129365 -5.272096 -0.708382 0
M  V30 30 C 0.688608 -5.998194 -1.740777 0
M  V30 31 C 1.058903 -5.395140 -2.924053 0
M  V30 32 C 0.872754 -4.031995 -3.097296 0
M  V30 33 C 0.307379 -3.301265 -2.052092 0
M  V30 34 H 4.587154 -1.481265 1.819510 0
M  V30 35 H 4.088333 -3.169267 1.425319 0
M  V30 36 H 4.183812 -1.903516 0.135805 0
M  V30 37 H -0.335055 0.058921 3.323989 0
M  V30 38 H 1.151050 -0.976181 3.117364 0
M  V30 39 H 2.642918 0.785156 3.075805 0
M  V30 40 H 1.191028 1.739169 3.607478 0
M  V30 41 H 3.037221 2.464869 1.318757 0
M  V30 42 H 2.825985 3.239140 2.954369 0
M  V30 43 H 0.317390 3.432575 2.365720 0
M  V30 44 H -0.159693 5.549696 -0.739937 0
M  V30 45 H -0.323990 6.740782 0.655882 0
M  V30 46 H -1.015373 5.093074 0.731116 0
M  V30 47 H 1.469959 2.282978 -0.205278 0
M  V30 48 H -0.149611 3.141053 -0.132238 0
M  V30 49 H -0.832125 1.739606 1.705670 0
M  V30 50 H -0.366040 0.733917 0.279302 0
M  V30 51 H -4.440049 -1.130584 1.547087 0
M  V30 52 H -5.803166 -2.576658 0.045858 0
M  V30 53 H -5.858556 -4.734924 -1.196313 0
M  V30 54 H -4.321860 -5.336277 -1.974854 0
M  V30 55 H -5.174102 -3.817073 -2.578568 0
M  V30 56 H -0.198285 -5.631729 0.257953 0
M  V30 57 H 0.814656 -7.042424 -1.565475 0
M  V30 58 H 1.494444 -5.964736 -3.725871 0
M  V30 59 H 1.175463 -3.593575 -4.038349 0
M  V30 60 H 0.210786 -2.240832 -2.305150 0
M  V30 END ATOM
M  V30 BEGIN BOND
M  V30 1 1 1 2
M  V30 2 1 2 3
M  V30 3 2 3 4
M  V30 4 1 3 5
M  V30 5 2 5 6
M  V30 6 1 6 7
M  V30 7 1 7 8
M  V30 8 1 8 9
M  V30 9 1 9 10
M  V30 10 1 10 11
M  V30 11 1 11 12
M  V30 12 1 12 13
M  V30 13 2 12 14
M  V30 14 2 12 15
M  V30 15 1 11 16
M  V30 16 1 16 17
M  V30 17 1 6 18
M  V30 18 2 18 19
M  V30 19 1 18 20
M  V30 20 2 20 21
M  V30 21 1 21 22
M  V30 22 2 22 23
M  V30 23 1 23 24
M  V30 24 1 23 25
M  V30 25 2 25 26
M  V30 26 1 26 27
M  V30 27 1 27 28
M  V30 28 2 28 29
M  V30 29 1 29 30
M  V30 30 2 30 31
M  V30 31 1 31 32
M  V30 32 2 32 33
M  V30 33 1 27 5
M  V30 34 1 33 28
M  V30 35 1 17 8
M  V30 36 1 26 20
M  V30 37 1 1 34
M  V30 38 1 1 35
M  V30 39 1 1 36
M  V30 40 1 7 37
M  V30 41 1 7 38
M  V30 42 1 9 39
M  V30 43 1 9 40
M  V30 44 1 10 41
M  V30 45 1 10 42
M  V30 46 1 11 43
M  V30 47 1 13 44
M  V30 48 1 13 45
M  V30 49 1 13 46
M  V30 50 1 16 47
M  V30 51 1 16 48
M  V30 52 1 17 49
M  V30 53 1 17 50
M  V30 54 1 21 51
M  V30 55 1 22 52
M  V30 56 1 24 53
M  V30 57 1 24 54
M  V30 58 1 24 55
M  V30 59 1 29 56
M  V30 60 1 30 57
M  V30 61 1 31 58
M  V30 62 1 32 59
M  V30 63 1 33 60
M  V30 END BOND
M  V30 END CTAB
M  END
>  <Dataset>  (854) 
ChEMBL_Kinases

>  <Ligand_Instance>  (854) 
nan

>  <PDB_ID>  (854) 
nan

>  <Standardized_SMILES>  (854) 
COC(=O)c1c(CN2CCC(S(C)(=O)=O)CC2)c(=O)c2ccc(C)nc2n1-c1ccccc1

>  <Name>  (854) 
nan

>  <Pocket>  (854) 
nan

>  <ATP_Site>  (854) 
nan

>  <Peripheral>  (854) 
nan

>  <Num_H_Atoms_ProtBoundConf>  (854) 
nan

>  <Num_Resolved_Atoms>  (854) 
nan

>  <Num_Not_Resolved_Atoms>  (854) 
nan

$$$$
CHEMBL2204101
     RDKit          3D

  0  0  0  0  0  0  0  0  0  0999 V3000
M  V30 BEGIN CTAB
M  V30 COUNTS 60 63 0 0 0
M  V30 BEGIN ATOM
M  V30 1 C 4.492670 -1.828526 0.130463 0
M  V30 2 O 3.119019 -2.184658 0.185381 0
M  V30 3 C 2.163534 -1.422676 0.793654 0
M  V30 4 O 2.889876 -0.476570 1.191808 0
M  V30 5 C 0.763898 -1.714280 0.890428 0
M  V30 6 C -0.089040 -0.849536 1.537532 0
M  V30 7 C 0.367647 0.416272 2.168917 0
M  V30 8 N 0.642227 1.438065 1.185091 0
M  V30 9 C 1.092489 2.633348 1.856419 0
M  V30 10 C -0.077940 3.537275 2.150304 0
M  V30 11 C -0.607926 4.169581 0.880902 0
M  V30 12 S -2.325108 4.546244 1.047071 0
M  V30 13 C -3.012249 5.190695 -0.441556 0
M  V30 14 O -2.510113 5.521831 2.191495 0
M  V30 15 O -3.045006 3.276880 1.422116 0
M  V30 16 C -0.370916 3.171852 -0.230645 0
M  V30 17 C -0.445830 1.748602 0.315683 0
M  V30 18 C -1.414961 -1.272716 1.547363 0
M  V30 19 O -2.282245 -0.568176 2.107447 0
M  V30 20 C -1.852625 -2.442761 0.969693 0
M  V30 21 C -3.171178 -2.811076 1.008769 0
M  V30 22 C -3.617967 -3.994209 0.425252 0
M  V30 23 C -2.640533 -4.762145 -0.190703 0
M  V30 24 C -3.082209 -6.048328 -0.834350 0
M  V30 25 F -3.939192 -6.676199 0.034424 0
M  V30 26 F -3.629580 -5.815349 -2.058851 0
M  V30 27 F -1.942093 -6.844404 -0.970398 0
M  V30 28 N -1.346224 -4.379242 -0.217011 0
M  V30 29 C -0.909520 -3.238506 0.344517 0
M  V30 30 N 0.375486 -2.849469 0.323232 0
M  V30 31 C 1.247924 -3.761353 -0.353945 0
M  V30 32 C 1.678258 -3.632637 -1.675580 0
M  V30 33 C 2.523575 -4.603512 -2.182679 0
M  V30 34 C 2.938601 -5.669409 -1.425599 0
M  V30 35 C 2.495676 -5.778653 -0.105143 0
M  V30 36 C 1.649813 -4.824837 0.432387 0
M  V30 37 H 5.013453 -2.059702 1.083383 0
M  V30 38 H 4.620301 -0.747117 -0.083127 0
M  V30 39 H 4.982145 -2.374144 -0.714830 0
M  V30 40 H 1.300668 0.250823 2.734797 0
M  V30 41 H -0.381182 0.762783 2.912425 0
M  V30 42 H 1.798277 3.210189 1.197316 0
M  V30 43 H 1.619962 2.350644 2.770104 0
M  V30 44 H 0.315228 4.333270 2.831675 0
M  V30 45 H -0.912786 3.016263 2.636554 0
M  V30 46 H -0.049321 5.088972 0.618756 0
M  V30 47 H -2.314644 5.130486 -1.303656 0
M  V30 48 H -3.406495 6.208608 -0.253656 0
M  V30 49 H -3.903318 4.581939 -0.764289 0
M  V30 50 H 0.665136 3.327006 -0.594015 0
M  V30 51 H -1.047168 3.269653 -1.082082 0
M  V30 52 H -1.427669 1.694765 0.828493 0
M  V30 53 H -0.459912 1.112451 -0.610391 0
M  V30 54 H -3.876923 -2.149598 1.513731 0
M  V30 55 H -4.655919 -4.288245 0.453556 0
M  V30 56 H 1.312817 -2.769435 -2.213572 0
M  V30 57 H 2.822377 -4.449816 -3.210454 0
M  V30 58 H 3.607998 -6.422847 -1.853713 0
M  V30 59 H 2.848127 -6.643371 0.468161 0
M  V30 60 H 1.357288 -4.979960 1.445815 0
M  V30 END ATOM
M  V30 BEGIN BOND
M  V30 1 1 1 2
M  V30 2 1 2 3
M  V30 3 2 3 4
M  V30 4 1 3 5
M  V30 5 2 5 6
M  V30 6 1 6 7
M  V30 7 1 7 8
M  V30 8 1 8 9
M  V30 9 1 9 10
M  V30 10 1 10 11
M  V30 11 1 11 12
M  V30 12 1 12 13
M  V30 13 2 12 14
M  V30 14 2 12 15
M  V30 15 1 11 16
M  V30 16 1 16 17
M  V30 17 1 6 18
M  V30 18 2 18 19
M  V30 19 1 18 20
M  V30 20 2 20 21
M  V30 21 1 21 22
M  V30 22 2 22 23
M  V30 23 1 23 24
M  V30 24 1 24 25
M  V30 25 1 24 26
M  V30 26 1 24 27
M  V30 27 1 23 28
M  V30 28 2 28 29
M  V30 29 1 29 30
M  V30 30 1 30 31
M  V30 31 2 31 32
M  V30 32 1 32 33
M  V30 33 2 33 34
M  V30 34 1 34 35
M  V30 35 2 35 36
M  V30 36 1 30 5
M  V30 37 1 36 31
M  V30 38 1 17 8
M  V30 39 1 29 20
M  V30 40 1 1 37
M  V30 41 1 1 38
M  V30 42 1 1 39
M  V30 43 1 7 40
M  V30 44 1 7 41
M  V30 45 1 9 42
M  V30 46 1 9 43
M  V30 47 1 10 44
M  V30 48 1 10 45
M  V30 49 1 11 46
M  V30 50 1 13 47
M  V30 51 1 13 48
M  V30 52 1 13 49
M  V30 53 1 16 50
M  V30 54 1 16 51
M  V30 55 1 17 52
M  V30 56 1 17 53
M  V30 57 1 21 54
M  V30 58 1 22 55
M  V30 59 1 32 56
M  V30 60 1 33 57
M  V30 61 1 34 58
M  V30 62 1 35 59
M  V30 63 1 36 60
M  V30 END BOND
M  V30 END CTAB
M  END
>  <Dataset>  (855) 
ChEMBL_Kinases

>  <Ligand_Instance>  (855) 
nan

>  <PDB_ID>  (855) 
nan

>  <Standardized_SMILES>  (855) 
COC(=O)c1c(CN2CCC(S(C)(=O)=O)CC2)c(=O)c2ccc(C(F)(F)F)nc2n1-c1ccccc1

>  <Name>  (855) 
nan

>  <Pocket>  (855) 
nan

>  <ATP_Site>  (855) 
nan

>  <Peripheral>  (855) 
nan

>  <Num_H_Atoms_ProtBoundConf>  (855) 
nan

>  <Num_Resolved_Atoms>  (855) 
nan

>  <Num_Not_Resolved_Atoms>  (855) 
nan

$$$$
CHEMBL2204102
     RDKit          3D

  0  0  0  0  0  0  0  0  0  0999 V3000
M  V30 BEGIN CTAB
M  V30 COUNTS 34 36 0 0 0
M  V30 BEGIN ATOM
M  V30 1 C -1.413196 -2.679125 3.738338 0
M  V30 2 C -1.498573 -3.064864 2.276241 0
M  V30 3 N -0.552292 -2.301901 1.474549 0
M  V30 4 C 0.691970 -2.774273 1.275398 0
M  V30 5 O 1.083727 -3.864675 1.758298 0
M  V30 6 C 1.553343 -2.001212 0.500150 0
M  V30 7 C 2.844688 -2.416572 0.250067 0
M  V30 8 C 3.659760 -1.604042 -0.530469 0
M  V30 9 C 3.237613 -0.387191 -1.075094 0
M  V30 10 C 1.939004 0.001737 -0.806935 0
M  V30 11 C 1.128678 -0.802227 -0.033162 0
M  V30 12 N -0.120530 -0.349121 0.179033 0
M  V30 13 C -0.684717 0.862796 -0.308732 0
M  V30 14 C -1.090358 1.664478 0.764246 0
M  V30 15 C -1.676800 2.910536 0.536328 0
M  V30 16 C -1.850870 3.340570 -0.761194 0
M  V30 17 C -1.444452 2.536387 -1.816498 0
M  V30 18 C -0.866375 1.307641 -1.582225 0
M  V30 19 C -0.950922 -1.116700 0.939333 0
M  V30 20 O -2.139160 -0.746674 1.176491 0
M  V30 21 H -0.911895 -3.454617 4.353622 0
M  V30 22 H -2.403260 -2.379654 4.151394 0
M  V30 23 H -0.763567 -1.763360 3.828093 0
M  V30 24 H -1.260535 -4.137153 2.159812 0
M  V30 25 H -2.542449 -2.869594 1.910880 0
M  V30 26 H 3.216505 -3.350069 0.649645 0
M  V30 27 H 4.676031 -1.994184 -0.690641 0
M  V30 28 H 3.952334 0.166611 -1.667586 0
M  V30 29 H 1.597046 0.939795 -1.220496 0
M  V30 30 H -1.010467 1.444606 1.819966 0
M  V30 31 H -2.009050 3.571690 1.323133 0
M  V30 32 H -2.310048 4.316575 -0.947400 0
M  V30 33 H -1.565067 2.840698 -2.845362 0
M  V30 34 H -0.517722 0.609603 -2.320979 0
M  V30 END ATOM
M  V30 BEGIN BOND
M  V30 1 1 1 2
M  V30 2 1 2 3
M  V30 3 1 3 4
M  V30 4 2 4 5
M  V30 5 1 4 6
M  V30 6 2 6 7
M  V30 7 1 7 8
M  V30 8 2 8 9
M  V30 9 1 9 10
M  V30 10 2 10 11
M  V30 11 1 11 12
M  V30 12 1 12 13
M  V30 13 2 13 14
M  V30 14 1 14 15
M  V30 15 2 15 16
M  V30 16 1 16 17
M  V30 17 2 17 18
M  V30 18 1 12 19
M  V30 19 2 19 20
M  V30 20 1 19 3
M  V30 21 1 11 6
M  V30 22 1 18 13
M  V30 23 1 1 21
M  V30 24 1 1 22
M  V30 25 1 1 23
M  V30 26 1 2 24
M  V30 27 1 2 25
M  V30 28 1 7 26
M  V30 29 1 8 27
M  V30 30 1 9 28
M  V30 31 1 10 29
M  V30 32 1 14 30
M  V30 33 1 15 31
M  V30 34 1 16 32
M  V30 35 1 17 33
M  V30 36 1 18 34
M  V30 END BOND
M  V30 END CTAB
M  END
>  <Dataset>  (856) 
ChEMBL_Kinases

>  <Ligand_Instance>  (856) 
nan

>  <PDB_ID>  (856) 
nan

>  <Standardized_SMILES>  (856) 
CCn1c(=O)c2ccccc2n(-c2ccccc2)c1=O

>  <Name>  (856) 
nan

>  <Pocket>  (856) 
nan

>  <ATP_Site>  (856) 
nan

>  <Peripheral>  (856) 
nan

>  <Num_H_Atoms_ProtBoundConf>  (856) 
nan

>  <Num_Resolved_Atoms>  (856) 
nan

>  <Num_Not_Resolved_Atoms>  (856) 
nan

$$$$
CHEMBL2204240
     RDKit          3D

  0  0  0  0  0  0  0  0  0  0999 V3000
M  V30 BEGIN CTAB
M  V30 COUNTS 38 41 0 0 0
M  V30 BEGIN ATOM
M  V30 1 O 1.095842 -2.069640 2.784013 0
M  V30 2 C 0.715496 -2.808882 1.812683 0
M  V30 3 N 1.299276 -2.476926 0.521693 0
M  V30 4 C 2.148415 -1.388572 0.742407 0
M  V30 5 C 3.376553 -1.860590 1.123145 0
M  V30 6 C 4.394646 -1.007860 1.436233 0
M  V30 7 Cl 6.006560 -1.465273 1.934412 0
M  V30 8 C 4.111691 0.332461 1.346316 0
M  V30 9 C 2.869388 0.737622 0.960494 0
M  V30 10 C 1.812396 -0.080827 0.633880 0
M  V30 11 C 0.589167 0.517534 0.184086 0
M  V30 12 N 0.538222 1.845279 0.209598 0
M  V30 13 C -0.513084 2.539252 -0.198344 0
M  V30 14 C -0.398627 3.924160 -0.101410 0
M  V30 15 C -1.495439 4.637347 -0.526315 0
M  V30 16 C -2.669245 4.122820 -1.027110 0
M  V30 17 C -2.713945 2.746706 -1.095053 0
M  V30 18 C -1.657148 1.964909 -0.689029 0
M  V30 19 N -1.642805 0.624861 -0.730728 0
M  V30 20 C -0.554259 -0.010513 -0.305703 0
M  V30 21 O -0.684618 -1.233213 -0.407259 0
M  V30 22 C -0.223074 -3.868552 2.065409 0
M  V30 23 C -0.838722 -4.814967 1.360119 0
M  V30 24 C -1.707333 -5.697401 1.934515 0
M  V30 25 C -1.904967 -5.529414 3.343264 0
M  V30 26 S -0.781849 -4.058821 3.742880 0
M  V30 27 H 0.926781 -3.173867 -0.198766 0
M  V30 28 H 3.669530 -2.913436 1.215186 0
M  V30 29 H 4.870828 1.057911 1.579685 0
M  V30 30 H 2.757701 1.837932 0.924465 0
M  V30 31 H 0.500458 4.379958 0.284432 0
M  V30 32 H -1.424219 5.722959 -0.457849 0
M  V30 33 H -3.486386 4.755198 -1.340048 0
M  V30 34 H -3.590360 2.240218 -1.473376 0
M  V30 35 H -2.500894 0.164163 -1.100133 0
M  V30 36 H -0.583498 -4.809539 0.311547 0
M  V30 37 H -2.216936 -6.471613 1.382536 0
M  V30 38 H -2.620823 -6.232520 3.900307 0
M  V30 END ATOM
M  V30 BEGIN BOND
M  V30 1 2 1 2
M  V30 2 1 2 3
M  V30 3 1 3 4
M  V30 4 2 4 5
M  V30 5 1 5 6
M  V30 6 1 6 7
M  V30 7 2 6 8
M  V30 8 1 8 9
M  V30 9 2 9 10
M  V30 10 1 10 11
M  V30 11 2 11 12
M  V30 12 1 12 13
M  V30 13 2 13 14
M  V30 14 1 14 15
M  V30 15 2 15 16
M  V30 16 1 16 17
M  V30 17 2 17 18
M  V30 18 1 18 19
M  V30 19 1 19 20
M  V30 20 2 20 21
M  V30 21 1 2 22
M  V30 22 2 22 23
M  V30 23 1 23 24
M  V30 24 2 24 25
M  V30 25 1 25 26
M  V30 26 1 10 4
M  V30 27 1 20 11
M  V30 28 1 26 22
M  V30 29 1 18 13
M  V30 30 1 3 27
M  V30 31 1 5 28
M  V30 32 1 8 29
M  V30 33 1 9 30
M  V30 34 1 14 31
M  V30 35 1 15 32
M  V30 36 1 16 33
M  V30 37 1 17 34
M  V30 38 1 19 35
M  V30 39 1 23 36
M  V30 40 1 24 37
M  V30 41 1 25 38
M  V30 END BOND
M  V30 END CTAB
M  END
>  <Dataset>  (857) 
ChEMBL_Kinases

>  <Ligand_Instance>  (857) 
nan

>  <PDB_ID>  (857) 
nan

>  <Standardized_SMILES>  (857) 
O=C(Nc1cc(Cl)ccc1-c1nc2ccccc2[nH]c1=O)c1cccs1

>  <Name>  (857) 
nan

>  <Pocket>  (857) 
nan

>  <ATP_Site>  (857) 
nan

>  <Peripheral>  (857) 
nan

>  <Num_H_Atoms_ProtBoundConf>  (857) 
nan

>  <Num_Resolved_Atoms>  (857) 
nan

>  <Num_Not_Resolved_Atoms>  (857) 
nan

$$$$
CHEMBL2204232
     RDKit          3D

  0  0  0  0  0  0  0  0  0  0999 V3000
M  V30 BEGIN CTAB
M  V30 COUNTS 38 41 0 0 0
M  V30 BEGIN ATOM
M  V30 1 O -1.065609 0.352309 2.209190 0
M  V30 2 C -0.248843 1.105759 1.619781 0
M  V30 3 N -0.576688 1.478803 0.253709 0
M  V30 4 C -1.801891 0.843662 -0.036796 0
M  V30 5 C -2.815598 1.666579 0.391994 0
M  V30 6 C -4.124455 1.260173 0.253744 0
M  V30 7 C -4.336093 0.030634 -0.316498 0
M  V30 8 C -3.270321 -0.726258 -0.717155 0
M  V30 9 C -1.943202 -0.375973 -0.607510 0
M  V30 10 C -0.934102 -1.251115 -1.131443 0
M  V30 11 N -1.373180 -2.414508 -1.617620 0
M  V30 12 C -0.617241 -3.340138 -2.159558 0
M  V30 13 C -1.252237 -4.490350 -2.610550 0
M  V30 14 C -0.426982 -5.439768 -3.172263 0
M  V30 15 Cl -1.208145 -6.901973 -3.749005 0
M  V30 16 C 0.940604 -5.356347 -3.325113 0
M  V30 17 Cl 1.892429 -6.619195 -4.051821 0
M  V30 18 C 1.486388 -4.182307 -2.850394 0
M  V30 19 C 0.733441 -3.193857 -2.280469 0
M  V30 20 N 1.220011 -2.035691 -1.804139 0
M  V30 21 C 0.392312 -1.159407 -1.275644 0
M  V30 22 O 0.971861 -0.153706 -0.888538 0
M  V30 23 C 0.943081 1.549558 2.315447 0
M  V30 24 C 2.031844 2.316529 2.092997 0
M  V30 25 C 2.953461 2.462891 3.097815 0
M  V30 26 C 2.760003 1.825275 4.326827 0
M  V30 27 S 1.103843 0.927050 4.028280 0
M  V30 28 H 0.170340 2.133626 -0.131405 0
M  V30 29 H -2.727559 2.642208 0.847373 0
M  V30 30 H -5.004774 1.810699 0.548282 0
M  V30 31 H -5.338203 -0.340388 -0.450432 0
M  V30 32 H -3.558115 -1.697829 -1.162383 0
M  V30 33 H -2.310835 -4.600127 -2.513462 0
M  V30 34 H 2.565267 -4.020062 -2.925697 0
M  V30 35 H 2.255383 -1.910452 -1.890949 0
M  V30 36 H 2.113876 2.776363 1.122324 0
M  V30 37 H 3.848273 3.060830 2.991875 0
M  V30 38 H 3.309540 1.807807 5.174478 0
M  V30 END ATOM
M  V30 BEGIN BOND
M  V30 1 2 1 2
M  V30 2 1 2 3
M  V30 3 1 3 4
M  V30 4 2 4 5
M  V30 5 1 5 6
M  V30 6 2 6 7
M  V30 7 1 7 8
M  V30 8 2 8 9
M  V30 9 1 9 10
M  V30 10 2 10 11
M  V30 11 1 11 12
M  V30 12 2 12 13
M  V30 13 1 13 14
M  V30 14 1 14 15
M  V30 15 2 14 16
M  V30 16 1 16 17
M  V30 17 1 16 18
M  V30 18 2 18 19
M  V30 19 1 19 20
M  V30 20 1 20 21
M  V30 21 2 21 22
M  V30 22 1 2 23
M  V30 23 2 23 24
M  V30 24 1 24 25
M  V30 25 2 25 26
M  V30 26 1 26 27
M  V30 27 1 9 4
M  V30 28 1 21 10
M  V30 29 1 27 23
M  V30 30 1 19 12
M  V30 31 1 3 28
M  V30 32 1 5 29
M  V30 33 1 6 30
M  V30 34 1 7 31
M  V30 35 1 8 32
M  V30 36 1 13 33
M  V30 37 1 18 34
M  V30 38 1 20 35
M  V30 39 1 24 36
M  V30 40 1 25 37
M  V30 41 1 26 38
M  V30 END BOND
M  V30 END CTAB
M  END
>  <Dataset>  (858) 
ChEMBL_Kinases

>  <Ligand_Instance>  (858) 
nan

>  <PDB_ID>  (858) 
nan

>  <Standardized_SMILES>  (858) 
O=C(Nc1ccccc1-c1nc2cc(Cl)c(Cl)cc2[nH]c1=O)c1cccs1

>  <Name>  (858) 
nan

>  <Pocket>  (858) 
nan

>  <ATP_Site>  (858) 
nan

>  <Peripheral>  (858) 
nan

>  <Num_H_Atoms_ProtBoundConf>  (858) 
nan

>  <Num_Resolved_Atoms>  (858) 
nan

>  <Num_Not_Resolved_Atoms>  (858) 
nan

$$$$
CHEMBL2204233
     RDKit          3D

  0  0  0  0  0  0  0  0  0  0999 V3000
M  V30 BEGIN CTAB
M  V30 COUNTS 38 41 0 0 0
M  V30 BEGIN ATOM
M  V30 1 O 1.662903 -2.469083 2.029118 0
M  V30 2 C 0.734046 -3.003131 1.331244 0
M  V30 3 N 0.687494 -2.620421 -0.049264 0
M  V30 4 C 1.745092 -1.712493 -0.239984 0
M  V30 5 C 2.884677 -2.426383 -0.520222 0
M  V30 6 C 4.073298 -1.757850 -0.715016 0
M  V30 7 C 4.046076 -0.389867 -0.614820 0
M  V30 8 C 2.867778 0.243927 -0.333074 0
M  V30 9 C 1.651201 -0.367059 -0.130017 0
M  V30 10 C 0.494224 0.446177 0.092300 0
M  V30 11 N 0.702395 1.763369 0.182751 0
M  V30 12 C -0.224202 2.693784 0.362033 0
M  V30 13 C 0.215533 4.001009 0.428057 0
M  V30 14 C -0.783040 4.930852 0.616068 0
M  V30 15 F -0.374476 6.239903 0.685721 0
M  V30 16 C -2.123843 4.682242 0.738715 0
M  V30 17 F -3.038404 5.661662 0.921965 0
M  V30 18 C -2.456064 3.347946 0.658792 0
M  V30 19 C -1.529934 2.356014 0.473221 0
M  V30 20 N -1.810953 1.053289 0.391168 0
M  V30 21 C -0.814838 0.200016 0.210756 0
M  V30 22 O -1.215089 -0.966479 0.148909 0
M  V30 23 C -0.176634 -3.933400 1.983345 0
M  V30 24 C -1.223615 -4.657000 1.596480 0
M  V30 25 C -1.875484 -5.455812 2.500054 0
M  V30 26 C -1.384227 -5.456740 3.800274 0
M  V30 27 S 0.047162 -4.275511 3.698433 0
M  V30 28 H -0.109530 -3.147303 -0.529168 0
M  V30 29 H 2.980429 -3.498646 -0.614158 0
M  V30 30 H 5.026814 -2.209568 -0.940009 0
M  V30 31 H 4.938557 0.175491 -0.756570 0
M  V30 32 H 2.960916 1.344061 -0.275356 0
M  V30 33 H 1.260741 4.244624 0.336759 0
M  V30 34 H -3.492180 3.038327 0.743382 0
M  V30 35 H -2.819789 0.780405 0.475763 0
M  V30 36 H -1.491026 -4.554972 0.555153 0
M  V30 37 H -2.742545 -6.066872 2.218484 0
M  V30 38 H -1.818742 -6.055643 4.620894 0
M  V30 END ATOM
M  V30 BEGIN BOND
M  V30 1 2 1 2
M  V30 2 1 2 3
M  V30 3 1 3 4
M  V30 4 2 4 5
M  V30 5 1 5 6
M  V30 6 2 6 7
M  V30 7 1 7 8
M  V30 8 2 8 9
M  V30 9 1 9 10
M  V30 10 2 10 11
M  V30 11 1 11 12
M  V30 12 2 12 13
M  V30 13 1 13 14
M  V30 14 1 14 15
M  V30 15 2 14 16
M  V30 16 1 16 17
M  V30 17 1 16 18
M  V30 18 2 18 19
M  V30 19 1 19 20
M  V30 20 1 20 21
M  V30 21 2 21 22
M  V30 22 1 2 23
M  V30 23 2 23 24
M  V30 24 1 24 25
M  V30 25 2 25 26
M  V30 26 1 26 27
M  V30 27 1 9 4
M  V30 28 1 21 10
M  V30 29 1 27 23
M  V30 30 1 19 12
M  V30 31 1 3 28
M  V30 32 1 5 29
M  V30 33 1 6 30
M  V30 34 1 7 31
M  V30 35 1 8 32
M  V30 36 1 13 33
M  V30 37 1 18 34
M  V30 38 1 20 35
M  V30 39 1 24 36
M  V30 40 1 25 37
M  V30 41 1 26 38
M  V30 END BOND
M  V30 END CTAB
M  END
>  <Dataset>  (859) 
ChEMBL_Kinases

>  <Ligand_Instance>  (859) 
nan

>  <PDB_ID>  (859) 
nan

>  <Standardized_SMILES>  (859) 
O=C(Nc1ccccc1-c1nc2cc(F)c(F)cc2[nH]c1=O)c1cccs1

>  <Name>  (859) 
nan

>  <Pocket>  (859) 
nan

>  <ATP_Site>  (859) 
nan

>  <Peripheral>  (859) 
nan

>  <Num_H_Atoms_ProtBoundConf>  (859) 
nan

>  <Num_Resolved_Atoms>  (859) 
nan

>  <Num_Not_Resolved_Atoms>  (859) 
nan

$$$$
CHEMBL2204234
     RDKit          3D

  0  0  0  0  0  0  0  0  0  0999 V3000
M  V30 BEGIN CTAB
M  V30 COUNTS 44 47 0 0 0
M  V30 BEGIN ATOM
M  V30 1 C -1.152838 -4.303037 1.104049 0
M  V30 2 C 0.060573 -3.447632 1.180295 0
M  V30 3 C 0.051209 -2.110717 0.835939 0
M  V30 4 C 1.176244 -1.320063 0.907246 0
M  V30 5 N 1.157882 -0.014932 0.568884 0
M  V30 6 C 2.252622 0.762248 0.636334 0
M  V30 7 C 2.135612 2.151179 0.252540 0
M  V30 8 C 3.110351 3.113957 0.243667 0
M  V30 9 C 2.938648 4.426290 -0.133575 0
M  V30 10 C 1.685035 4.830642 -0.542032 0
M  V30 11 C 0.672109 3.896842 -0.549866 0
M  V30 12 C 0.897909 2.591670 -0.161293 0
M  V30 13 N -0.300275 1.808731 -0.252976 0
M  V30 14 C -1.233309 1.658810 0.806261 0
M  V30 15 O -1.047680 2.222371 1.916309 0
M  V30 16 C -2.344848 0.794314 0.369314 0
M  V30 17 C -3.427784 0.450275 1.178053 0
M  V30 18 C -4.409463 -0.358716 0.679467 0
M  V30 19 C -4.319700 -0.842621 -0.657175 0
M  V30 20 S -2.698410 -0.073466 -1.238415 0
M  V30 21 C 3.374013 0.103892 1.077519 0
M  V30 22 O 4.444700 0.736593 1.176076 0
M  V30 23 N 3.445976 -1.189825 1.425996 0
M  V30 24 C 2.330113 -1.934832 1.345179 0
M  V30 25 C 2.380009 -3.266973 1.698171 0
M  V30 26 C 1.229480 -4.043698 1.617097 0
M  V30 27 C 1.369597 -5.469592 2.016046 0
M  V30 28 H -1.284956 -4.955063 1.990477 0
M  V30 29 H -1.206057 -4.858122 0.141898 0
M  V30 30 H -2.034350 -3.599362 1.058162 0
M  V30 31 H -0.890494 -1.704718 0.503077 0
M  V30 32 H 4.094790 2.848712 0.551055 0
M  V30 33 H 3.761583 5.127265 -0.112474 0
M  V30 34 H 1.551671 5.862048 -0.838123 0
M  V30 35 H -0.270262 4.300661 -0.882431 0
M  V30 36 H -0.325237 1.402719 -1.213222 0
M  V30 37 H -3.518411 0.803774 2.192948 0
M  V30 38 H -5.299501 -0.709854 1.174690 0
M  V30 39 H -4.882572 -1.434424 -1.260032 0
M  V30 40 H 4.322287 -1.629392 1.751590 0
M  V30 41 H 3.328208 -3.696981 2.038809 0
M  V30 42 H 2.160439 -5.984253 1.398884 0
M  V30 43 H 0.446826 -6.017641 1.803170 0
M  V30 44 H 1.666149 -5.597898 3.079999 0
M  V30 END ATOM
M  V30 BEGIN BOND
M  V30 1 1 1 2
M  V30 2 2 2 3
M  V30 3 1 3 4
M  V30 4 1 4 5
M  V30 5 2 5 6
M  V30 6 1 6 7
M  V30 7 2 7 8
M  V30 8 1 8 9
M  V30 9 2 9 10
M  V30 10 1 10 11
M  V30 11 2 11 12
M  V30 12 1 12 13
M  V30 13 1 13 14
M  V30 14 2 14 15
M  V30 15 1 14 16
M  V30 16 2 16 17
M  V30 17 1 17 18
M  V30 18 2 18 19
M  V30 19 1 19 20
M  V30 20 1 6 21
M  V30 21 2 21 22
M  V30 22 1 21 23
M  V30 23 1 23 24
M  V30 24 1 24 25
M  V30 25 2 25 26
M  V30 26 1 26 27
M  V30 27 1 26 2
M  V30 28 2 24 4
M  V30 29 1 12 7
M  V30 30 1 20 16
M  V30 31 1 1 28
M  V30 32 1 1 29
M  V30 33 1 1 30
M  V30 34 1 3 31
M  V30 35 1 8 32
M  V30 36 1 9 33
M  V30 37 1 10 34
M  V30 38 1 11 35
M  V30 39 1 13 36
M  V30 40 1 17 37
M  V30 41 1 18 38
M  V30 42 1 19 39
M  V30 43 1 23 40
M  V30 44 1 25 41
M  V30 45 1 27 42
M  V30 46 1 27 43
M  V30 47 1 27 44
M  V30 END BOND
M  V30 END CTAB
M  END
>  <Dataset>  (860) 
ChEMBL_Kinases

>  <Ligand_Instance>  (860) 
nan

>  <PDB_ID>  (860) 
nan

>  <Standardized_SMILES>  (860) 
Cc1cc2nc(-c3ccccc3NC(=O)c3cccs3)c(=O)[nH]c2cc1C

>  <Name>  (860) 
nan

>  <Pocket>  (860) 
nan

>  <ATP_Site>  (860) 
nan

>  <Peripheral>  (860) 
nan

>  <Num_H_Atoms_ProtBoundConf>  (860) 
nan

>  <Num_Resolved_Atoms>  (860) 
nan

>  <Num_Not_Resolved_Atoms>  (860) 
nan

$$$$
CHEMBL2204235
     RDKit          3D

  0  0  0  0  0  0  0  0  0  0999 V3000
M  V30 BEGIN CTAB
M  V30 COUNTS 38 41 0 0 0
M  V30 BEGIN ATOM
M  V30 1 O 0.761571 -2.138347 2.858977 0
M  V30 2 C 0.582168 -2.849001 1.812879 0
M  V30 3 N 1.376018 -2.468438 0.654892 0
M  V30 4 C 2.139062 -1.375500 1.064188 0
M  V30 5 C 3.294739 -1.835959 1.649599 0
M  V30 6 C 4.207780 -0.943406 2.170288 0
M  V30 7 C 3.906167 0.382308 2.073651 0
M  V30 8 Cl 5.005991 1.569638 2.705611 0
M  V30 9 C 2.736740 0.769688 1.476759 0
M  V30 10 C 1.788633 -0.073400 0.938441 0
M  V30 11 C 0.652510 0.509771 0.293148 0
M  V30 12 N 0.538945 1.835895 0.340682 0
M  V30 13 C -0.423730 2.543951 -0.216393 0
M  V30 14 C -0.369142 3.910531 -0.055089 0
M  V30 15 C -1.389543 4.617033 -0.648406 0
M  V30 16 C -2.440383 4.099142 -1.374338 0
M  V30 17 C -2.418592 2.725010 -1.487033 0
M  V30 18 C -1.435564 1.948643 -0.924244 0
M  V30 19 N -1.384576 0.612118 -1.013908 0
M  V30 20 C -0.372405 -0.014556 -0.417778 0
M  V30 21 O -0.444982 -1.235755 -0.581722 0
M  V30 22 C -0.371517 -3.948736 1.858751 0
M  V30 23 C -0.820797 -4.876508 1.022590 0
M  V30 24 C -1.754666 -5.780784 1.428872 0
M  V30 25 C -2.197991 -5.679418 2.732745 0
M  V30 26 S -1.213579 -4.202157 3.401655 0
M  V30 27 H 1.150044 -3.150785 -0.136077 0
M  V30 28 H 3.598466 -2.872167 1.760418 0
M  V30 29 H 5.139274 -1.212894 2.646171 0
M  V30 30 H 2.590424 1.847683 1.450670 0
M  V30 31 H 0.427941 4.367773 0.501502 0
M  V30 32 H -1.356856 5.704507 -0.526884 0
M  V30 33 H -3.201767 4.733433 -1.807183 0
M  V30 34 H -3.204972 2.226222 -2.040526 0
M  V30 35 H -2.139961 0.161526 -1.543199 0
M  V30 36 H -0.375965 -4.823108 0.039018 0
M  V30 37 H -2.141059 -6.548616 0.772718 0
M  V30 38 H -2.963706 -6.356470 3.200730 0
M  V30 END ATOM
M  V30 BEGIN BOND
M  V30 1 2 1 2
M  V30 2 1 2 3
M  V30 3 1 3 4
M  V30 4 2 4 5
M  V30 5 1 5 6
M  V30 6 2 6 7
M  V30 7 1 7 8
M  V30 8 1 7 9
M  V30 9 2 9 10
M  V30 10 1 10 11
M  V30 11 2 11 12
M  V30 12 1 12 13
M  V30 13 2 13 14
M  V30 14 1 14 15
M  V30 15 2 15 16
M  V30 16 1 16 17
M  V30 17 2 17 18
M  V30 18 1 18 19
M  V30 19 1 19 20
M  V30 20 2 20 21
M  V30 21 1 2 22
M  V30 22 2 22 23
M  V30 23 1 23 24
M  V30 24 2 24 25
M  V30 25 1 25 26
M  V30 26 1 10 4
M  V30 27 1 20 11
M  V30 28 1 26 22
M  V30 29 1 18 13
M  V30 30 1 3 27
M  V30 31 1 5 28
M  V30 32 1 6 29
M  V30 33 1 9 30
M  V30 34 1 14 31
M  V30 35 1 15 32
M  V30 36 1 16 33
M  V30 37 1 17 34
M  V30 38 1 19 35
M  V30 39 1 23 36
M  V30 40 1 24 37
M  V30 41 1 25 38
M  V30 END BOND
M  V30 END CTAB
M  END
>  <Dataset>  (861) 
ChEMBL_Kinases

>  <Ligand_Instance>  (861) 
nan

>  <PDB_ID>  (861) 
nan

>  <Standardized_SMILES>  (861) 
O=C(Nc1ccc(Cl)cc1-c1nc2ccccc2[nH]c1=O)c1cccs1

>  <Name>  (861) 
nan

>  <Pocket>  (861) 
nan

>  <ATP_Site>  (861) 
nan

>  <Peripheral>  (861) 
nan

>  <Num_H_Atoms_ProtBoundConf>  (861) 
nan

>  <Num_Resolved_Atoms>  (861) 
nan

>  <Num_Not_Resolved_Atoms>  (861) 
nan

$$$$
CHEMBL2204236
     RDKit          3D

  0  0  0  0  0  0  0  0  0  0999 V3000
M  V30 BEGIN CTAB
M  V30 COUNTS 38 41 0 0 0
M  V30 BEGIN ATOM
M  V30 1 O 0.844220 -1.945278 2.985476 0
M  V30 2 C 0.596301 -2.739370 2.026904 0
M  V30 3 N 1.336423 -2.480115 0.801151 0
M  V30 4 C 2.145751 -1.371364 1.058406 0
M  V30 5 C 3.321313 -1.803705 1.622447 0
M  V30 6 C 4.276800 -0.884840 1.999609 0
M  V30 7 C 3.997103 0.422632 1.788567 0
M  V30 8 F 4.890903 1.372193 2.135496 0
M  V30 9 C 2.805495 0.785998 1.220756 0
M  V30 10 C 1.813143 -0.080748 0.822040 0
M  V30 11 C 0.653046 0.458938 0.187166 0
M  V30 12 N 0.567843 1.787429 0.106173 0
M  V30 13 C -0.415576 2.473619 -0.464839 0
M  V30 14 C -0.301994 3.847163 -0.433509 0
M  V30 15 C -1.340922 4.524364 -1.034390 0
M  V30 16 C -2.443794 3.967878 -1.641999 0
M  V30 17 C -2.458448 2.589654 -1.617522 0
M  V30 18 C -1.476943 1.832365 -1.047028 0
M  V30 19 N -1.457516 0.498456 -1.003689 0
M  V30 20 C -0.425763 -0.096104 -0.408018 0
M  V30 21 O -0.533045 -1.325680 -0.443343 0
M  V30 22 C -0.355652 -3.791914 2.211405 0
M  V30 23 C -0.874271 -4.793889 1.482269 0
M  V30 24 C -1.800906 -5.651848 1.984353 0
M  V30 25 C -2.184127 -5.404993 3.356781 0
M  V30 26 S -1.136037 -3.903364 3.817272 0
M  V30 27 H 1.071403 -3.217125 0.073361 0
M  V30 28 H 3.610128 -2.831306 1.819382 0
M  V30 29 H 5.229417 -1.125825 2.449090 0
M  V30 30 H 2.681446 1.867288 1.095648 0
M  V30 31 H 0.543357 4.333069 0.030819 0
M  V30 32 H -1.271757 5.617456 -1.021297 0
M  V30 33 H -3.215057 4.577906 -2.090637 0
M  V30 34 H -3.288347 2.058271 -2.072068 0
M  V30 35 H -2.254282 0.012290 -1.440881 0
M  V30 36 H -0.478612 -4.834594 0.479907 0
M  V30 37 H -2.225670 -6.459527 1.412264 0
M  V30 38 H -2.970654 -6.106513 3.834659 0
M  V30 END ATOM
M  V30 BEGIN BOND
M  V30 1 2 1 2
M  V30 2 1 2 3
M  V30 3 1 3 4
M  V30 4 2 4 5
M  V30 5 1 5 6
M  V30 6 2 6 7
M  V30 7 1 7 8
M  V30 8 1 7 9
M  V30 9 2 9 10
M  V30 10 1 10 11
M  V30 11 2 11 12
M  V30 12 1 12 13
M  V30 13 2 13 14
M  V30 14 1 14 15
M  V30 15 2 15 16
M  V30 16 1 16 17
M  V30 17 2 17 18
M  V30 18 1 18 19
M  V30 19 1 19 20
M  V30 20 2 20 21
M  V30 21 1 2 22
M  V30 22 2 22 23
M  V30 23 1 23 24
M  V30 24 2 24 25
M  V30 25 1 25 26
M  V30 26 1 10 4
M  V30 27 1 20 11
M  V30 28 1 26 22
M  V30 29 1 18 13
M  V30 30 1 3 27
M  V30 31 1 5 28
M  V30 32 1 6 29
M  V30 33 1 9 30
M  V30 34 1 14 31
M  V30 35 1 15 32
M  V30 36 1 16 33
M  V30 37 1 17 34
M  V30 38 1 19 35
M  V30 39 1 23 36
M  V30 40 1 24 37
M  V30 41 1 25 38
M  V30 END BOND
M  V30 END CTAB
M  END
>  <Dataset>  (862) 
ChEMBL_Kinases

>  <Ligand_Instance>  (862) 
nan

>  <PDB_ID>  (862) 
nan

>  <Standardized_SMILES>  (862) 
O=C(Nc1ccc(F)cc1-c1nc2ccccc2[nH]c1=O)c1cccs1

>  <Name>  (862) 
nan

>  <Pocket>  (862) 
nan

>  <ATP_Site>  (862) 
nan

>  <Peripheral>  (862) 
nan

>  <Num_H_Atoms_ProtBoundConf>  (862) 
nan

>  <Num_Resolved_Atoms>  (862) 
nan

>  <Num_Not_Resolved_Atoms>  (862) 
nan

$$$$
CHEMBL2204237
     RDKit          3D

  0  0  0  0  0  0  0  0  0  0999 V3000
M  V30 BEGIN CTAB
M  V30 COUNTS 42 45 0 0 0
M  V30 BEGIN ATOM
M  V30 1 C 1.761183 -4.046805 4.209579 0
M  V30 2 O 2.827295 -3.758927 3.331090 0
M  V30 3 C 2.629237 -2.932573 2.240703 0
M  V30 4 C 3.681737 -2.669737 1.404008 0
M  V30 5 C 3.442096 -1.852201 0.345832 0
M  V30 6 C 2.186222 -1.328183 0.151715 0
M  V30 7 N 2.204044 -0.492888 -0.983872 0
M  V30 8 C 2.613857 0.819351 -0.523341 0
M  V30 9 O 2.845278 0.908073 0.705332 0
M  V30 10 C 2.701443 1.871999 -1.571578 0
M  V30 11 C 3.077170 3.187787 -1.316645 0
M  V30 12 C 3.117963 4.054520 -2.363787 0
M  V30 13 C 2.763996 3.517383 -3.646975 0
M  V30 14 S 2.383770 1.720972 -3.214729 0
M  V30 15 C 1.103021 -1.547150 0.936139 0
M  V30 16 C -0.248077 -1.094895 0.782143 0
M  V30 17 N -1.105482 -1.455909 1.737421 0
M  V30 18 C -2.395943 -1.152806 1.758222 0
M  V30 19 C -3.125527 -1.613584 2.830301 0
M  V30 20 C -4.462706 -1.280225 2.821232 0
M  V30 21 C -5.127754 -0.547027 1.865798 0
M  V30 22 C -4.312849 -0.131478 0.834473 0
M  V30 23 C -2.975563 -0.413919 0.758213 0
M  V30 24 N -2.159418 -0.024218 -0.229314 0
M  V30 25 C -0.876381 -0.374699 -0.168222 0
M  V30 26 O -0.255864 0.046342 -1.135183 0
M  V30 27 C 1.407434 -2.376067 1.984116 0
M  V30 28 H 2.085824 -4.583825 5.111633 0
M  V30 29 H 0.920167 -4.564194 3.674771 0
M  V30 30 H 1.285701 -3.098942 4.598504 0
M  V30 31 H 4.633550 -3.125737 1.634048 0
M  V30 32 H 4.311543 -1.676753 -0.286625 0
M  V30 33 H 1.993916 -0.766842 -1.996012 0
M  V30 34 H 3.329388 3.512237 -0.315815 0
M  V30 35 H 3.393422 5.097743 -2.293569 0
M  V30 36 H 2.776678 4.209002 -4.599323 0
M  V30 37 H -2.662014 -2.190416 3.606521 0
M  V30 38 H -5.046606 -1.646083 3.674486 0
M  V30 39 H -6.173966 -0.327981 1.928663 0
M  V30 40 H -4.732646 0.459520 0.016558 0
M  V30 41 H -2.596473 0.529960 -0.978783 0
M  V30 42 H 0.646227 -2.653372 2.713984 0
M  V30 END ATOM
M  V30 BEGIN BOND
M  V30 1 1 1 2
M  V30 2 1 2 3
M  V30 3 2 3 4
M  V30 4 1 4 5
M  V30 5 2 5 6
M  V30 6 1 6 7
M  V30 7 1 7 8
M  V30 8 2 8 9
M  V30 9 1 8 10
M  V30 10 2 10 11
M  V30 11 1 11 12
M  V30 12 2 12 13
M  V30 13 1 13 14
M  V30 14 1 6 15
M  V30 15 1 15 16
M  V30 16 2 16 17
M  V30 17 1 17 18
M  V30 18 2 18 19
M  V30 19 1 19 20
M  V30 20 2 20 21
M  V30 21 1 21 22
M  V30 22 2 22 23
M  V30 23 1 23 24
M  V30 24 1 24 25
M  V30 25 2 25 26
M  V30 26 2 15 27
M  V30 27 1 27 3
M  V30 28 1 14 10
M  V30 29 1 25 16
M  V30 30 1 23 18
M  V30 31 1 1 28
M  V30 32 1 1 29
M  V30 33 1 1 30
M  V30 34 1 4 31
M  V30 35 1 5 32
M  V30 36 1 7 33
M  V30 37 1 11 34
M  V30 38 1 12 35
M  V30 39 1 13 36
M  V30 40 1 19 37
M  V30 41 1 20 38
M  V30 42 1 21 39
M  V30 43 1 22 40
M  V30 44 1 24 41
M  V30 45 1 27 42
M  V30 END BOND
M  V30 END CTAB
M  END
>  <Dataset>  (863) 
ChEMBL_Kinases

>  <Ligand_Instance>  (863) 
nan

>  <PDB_ID>  (863) 
nan

>  <Standardized_SMILES>  (863) 
COc1ccc(NC(=O)c2cccs2)c(-c2nc3ccccc3[nH]c2=O)c1

>  <Name>  (863) 
nan

>  <Pocket>  (863) 
nan

>  <ATP_Site>  (863) 
nan

>  <Peripheral>  (863) 
nan

>  <Num_H_Atoms_ProtBoundConf>  (863) 
nan

>  <Num_Resolved_Atoms>  (863) 
nan

>  <Num_Not_Resolved_Atoms>  (863) 
nan

$$$$
CHEMBL2204238
     RDKit          3D

  0  0  0  0  0  0  0  0  0  0999 V3000
M  V30 BEGIN CTAB
M  V30 COUNTS 42 45 0 0 0
M  V30 BEGIN ATOM
M  V30 1 O 1.490377 -2.595370 2.253581 0
M  V30 2 C 1.569997 -2.456830 1.004160 0
M  V30 3 N 1.870856 -1.243612 0.335737 0
M  V30 4 C 2.094507 -0.125039 1.197877 0
M  V30 5 C 3.441963 -0.023665 1.557796 0
M  V30 6 C 3.891527 0.983693 2.385946 0
M  V30 7 C 2.972309 1.893168 2.851983 0
M  V30 8 O 3.378267 2.915765 3.682031 0
M  V30 9 C 3.790797 4.144187 3.107599 0
M  V30 10 F 2.720833 4.638741 2.393033 0
M  V30 11 F 4.100726 5.003582 4.150391 0
M  V30 12 F 4.862302 3.974568 2.269951 0
M  V30 13 C 1.661203 1.755818 2.473473 0
M  V30 14 C 1.157876 0.777936 1.655415 0
M  V30 15 C -0.204886 0.575004 1.218242 0
M  V30 16 N -0.471531 -0.460579 0.407046 0
M  V30 17 C -1.723131 -0.717867 -0.046447 0
M  V30 18 C -1.958822 -1.789720 -0.878173 0
M  V30 19 C -3.237968 -2.048362 -1.339225 0
M  V30 20 C -4.299079 -1.260966 -0.991186 0
M  V30 21 C -4.053219 -0.188604 -0.156949 0
M  V30 22 C -2.780487 0.066181 0.299964 0
M  V30 23 N -2.563491 1.116482 1.111442 0
M  V30 24 C -1.307410 1.328063 1.532638 0
M  V30 25 O -1.165101 2.319788 2.285488 0
M  V30 26 C 1.326671 -3.667400 0.212923 0
M  V30 27 C 1.337814 -3.857594 -1.105444 0
M  V30 28 C 1.082794 -5.088205 -1.652395 0
M  V30 29 C 0.814936 -6.101445 -0.693810 0
M  V30 30 S 0.951577 -5.204795 0.906122 0
M  V30 31 H 1.918529 -1.202760 -0.710841 0
M  V30 32 H 4.217583 -0.699665 1.230408 0
M  V30 33 H 4.920034 1.080971 2.675054 0
M  V30 34 H 0.987215 2.485895 2.860583 0
M  V30 35 H -1.186193 -2.449842 -1.195881 0
M  V30 36 H -3.407195 -2.889675 -1.988498 0
M  V30 37 H -5.306084 -1.478393 -1.364054 0
M  V30 38 H -4.897425 0.439831 0.121464 0
M  V30 39 H -3.355387 1.734273 1.393125 0
M  V30 40 H 1.558024 -2.998608 -1.751749 0
M  V30 41 H 1.074513 -5.325510 -2.707607 0
M  V30 42 H 0.589073 -7.151985 -0.959500 0
M  V30 END ATOM
M  V30 BEGIN BOND
M  V30 1 2 1 2
M  V30 2 1 2 3
M  V30 3 1 3 4
M  V30 4 2 4 5
M  V30 5 1 5 6
M  V30 6 2 6 7
M  V30 7 1 7 8
M  V30 8 1 8 9
M  V30 9 1 9 10
M  V30 10 1 9 11
M  V30 11 1 9 12
M  V30 12 1 7 13
M  V30 13 2 13 14
M  V30 14 1 14 15
M  V30 15 2 15 16
M  V30 16 1 16 17
M  V30 17 2 17 18
M  V30 18 1 18 19
M  V30 19 2 19 20
M  V30 20 1 20 21
M  V30 21 2 21 22
M  V30 22 1 22 23
M  V30 23 1 23 24
M  V30 24 2 24 25
M  V30 25 1 2 26
M  V30 26 2 26 27
M  V30 27 1 27 28
M  V30 28 2 28 29
M  V30 29 1 29 30
M  V30 30 1 14 4
M  V30 31 1 24 15
M  V30 32 1 30 26
M  V30 33 1 22 17
M  V30 34 1 3 31
M  V30 35 1 5 32
M  V30 36 1 6 33
M  V30 37 1 13 34
M  V30 38 1 18 35
M  V30 39 1 19 36
M  V30 40 1 20 37
M  V30 41 1 21 38
M  V30 42 1 23 39
M  V30 43 1 27 40
M  V30 44 1 28 41
M  V30 45 1 29 42
M  V30 END BOND
M  V30 END CTAB
M  END
>  <Dataset>  (864) 
ChEMBL_Kinases

>  <Ligand_Instance>  (864) 
nan

>  <PDB_ID>  (864) 
nan

>  <Standardized_SMILES>  (864) 
O=C(Nc1ccc(OC(F)(F)F)cc1-c1nc2ccccc2[nH]c1=O)c1cccs1

>  <Name>  (864) 
nan

>  <Pocket>  (864) 
nan

>  <ATP_Site>  (864) 
nan

>  <Peripheral>  (864) 
nan

>  <Num_H_Atoms_ProtBoundConf>  (864) 
nan

>  <Num_Resolved_Atoms>  (864) 
nan

>  <Num_Not_Resolved_Atoms>  (864) 
nan

$$$$
CHEMBL2204239
     RDKit          3D

  0  0  0  0  0  0  0  0  0  0999 V3000
M  V30 BEGIN CTAB
M  V30 COUNTS 47 50 0 0 0
M  V30 BEGIN ATOM
M  V30 1 C 0.678684 -5.296123 3.195910 0
M  V30 2 C 1.246177 -4.112737 3.971282 0
M  V30 3 C 0.222935 -3.756335 5.033042 0
M  V30 4 C 1.386658 -2.978225 2.989001 0
M  V30 5 C 2.603277 -2.373735 2.751532 0
M  V30 6 C 2.638894 -1.343136 1.836304 0
M  V30 7 C 1.496722 -0.923863 1.174392 0
M  V30 8 N 1.782770 0.166656 0.270036 0
M  V30 9 C 1.661640 1.450547 0.869048 0
M  V30 10 O 1.332259 1.603622 2.075035 0
M  V30 11 C 1.930666 2.602889 0.047915 0
M  V30 12 C 2.293534 2.801787 -1.222660 0
M  V30 13 C 2.470695 4.080646 -1.690761 0
M  V30 14 C 2.260485 5.107741 -0.807593 0
M  V30 15 S 1.787321 4.263441 0.773820 0
M  V30 16 C 0.269189 -1.510785 1.393238 0
M  V30 17 C -0.850915 -0.990412 0.642782 0
M  V30 18 N -0.635257 0.022093 -0.214964 0
M  V30 19 C -1.618426 0.567454 -0.953783 0
M  V30 20 C -1.379150 1.604231 -1.828168 0
M  V30 21 C -2.412969 2.136033 -2.568041 0
M  V30 22 C -3.714790 1.685676 -2.490034 0
M  V30 23 C -3.950239 0.646897 -1.612924 0
M  V30 24 C -2.917074 0.114636 -0.872814 0
M  V30 25 N -3.173411 -0.896016 -0.026920 0
M  V30 26 C -2.159044 -1.406049 0.687880 0
M  V30 27 O -2.468044 -2.342833 1.453947 0
M  V30 28 C 0.279897 -2.529247 2.309250 0
M  V30 29 H 0.737211 -6.176640 3.876168 0
M  V30 30 H 1.252119 -5.481673 2.268586 0
M  V30 31 H -0.378279 -5.089532 3.011065 0
M  V30 32 H 2.219664 -4.348286 4.427582 0
M  V30 33 H 0.710135 -3.260245 5.901350 0
M  V30 34 H -0.337717 -4.678339 5.325973 0
M  V30 35 H -0.536175 -3.091090 4.563293 0
M  V30 36 H 3.458636 -2.744815 3.298410 0
M  V30 37 H 3.623407 -0.919869 1.703234 0
M  V30 38 H 2.058029 0.063691 -0.742823 0
M  V30 39 H 2.425836 1.904457 -1.810838 0
M  V30 40 H 2.765413 4.293736 -2.716032 0
M  V30 41 H 2.349980 6.166351 -0.990964 0
M  V30 42 H -0.390521 2.015701 -1.950542 0
M  V30 43 H -2.182686 2.960692 -3.253459 0
M  V30 44 H -4.515146 2.113670 -3.077497 0
M  V30 45 H -4.945543 0.222528 -1.481097 0
M  V30 46 H -4.145446 -1.260145 0.056424 0
M  V30 47 H -0.641313 -3.029314 2.527008 0
M  V30 END ATOM
M  V30 BEGIN BOND
M  V30 1 1 1 2
M  V30 2 1 2 3
M  V30 3 1 2 4
M  V30 4 2 4 5
M  V30 5 1 5 6
M  V30 6 2 6 7
M  V30 7 1 7 8
M  V30 8 1 8 9
M  V30 9 2 9 10
M  V30 10 1 9 11
M  V30 11 2 11 12
M  V30 12 1 12 13
M  V30 13 2 13 14
M  V30 14 1 14 15
M  V30 15 1 7 16
M  V30 16 1 16 17
M  V30 17 2 17 18
M  V30 18 1 18 19
M  V30 19 2 19 20
M  V30 20 1 20 21
M  V30 21 2 21 22
M  V30 22 1 22 23
M  V30 23 2 23 24
M  V30 24 1 24 25
M  V30 25 1 25 26
M  V30 26 2 26 27
M  V30 27 2 16 28
M  V30 28 1 28 4
M  V30 29 1 15 11
M  V30 30 1 26 17
M  V30 31 1 24 19
M  V30 32 1 1 29
M  V30 33 1 1 30
M  V30 34 1 1 31
M  V30 35 1 2 32
M  V30 36 1 3 33
M  V30 37 1 3 34
M  V30 38 1 3 35
M  V30 39 1 5 36
M  V30 40 1 6 37
M  V30 41 1 8 38
M  V30 42 1 12 39
M  V30 43 1 13 40
M  V30 44 1 14 41
M  V30 45 1 20 42
M  V30 46 1 21 43
M  V30 47 1 22 44
M  V30 48 1 23 45
M  V30 49 1 25 46
M  V30 50 1 28 47
M  V30 END BOND
M  V30 END CTAB
M  END
>  <Dataset>  (865) 
ChEMBL_Kinases

>  <Ligand_Instance>  (865) 
nan

>  <PDB_ID>  (865) 
nan

>  <Standardized_SMILES>  (865) 
CC(C)c1ccc(NC(=O)c2cccs2)c(-c2nc3ccccc3[nH]c2=O)c1

>  <Name>  (865) 
nan

>  <Pocket>  (865) 
nan

>  <ATP_Site>  (865) 
nan

>  <Peripheral>  (865) 
nan

>  <Num_H_Atoms_ProtBoundConf>  (865) 
nan

>  <Num_Resolved_Atoms>  (865) 
nan

>  <Num_Not_Resolved_Atoms>  (865) 
nan

$$$$
CHEMBL2204231
     RDKit          3D

  0  0  0  0  0  0  0  0  0  0999 V3000
M  V30 BEGIN CTAB
M  V30 COUNTS 42 45 0 0 0
M  V30 BEGIN ATOM
M  V30 1 O 0.652736 -0.781575 2.636012 0
M  V30 2 C 1.556743 -0.583975 1.817577 0
M  V30 3 N 2.606319 -1.363951 2.066180 0
M  V30 4 C 3.667418 -1.268249 1.255186 0
M  V30 5 C 4.823578 -2.001239 1.379049 0
M  V30 6 C 5.888488 -1.861288 0.513789 0
M  V30 7 C 5.719025 -0.932338 -0.491444 0
M  V30 8 C 4.589355 -0.147570 -0.694930 0
M  V30 9 C 3.586379 -0.367498 0.225854 0
M  V30 10 N 2.487948 0.363431 0.069149 0
M  V30 11 C 1.391226 0.331272 0.828947 0
M  V30 12 C 0.279226 1.161667 0.477708 0
M  V30 13 C 0.369562 1.825298 -0.750028 0
M  V30 14 C -0.619293 2.583786 -1.307475 0
M  V30 15 C -1.805881 2.740437 -0.660852 0
M  V30 16 C -1.945260 2.108176 0.554824 0
M  V30 17 C -0.906458 1.363506 1.051823 0
M  V30 18 N -1.212721 0.894952 2.341688 0
M  V30 19 S -2.585475 -0.152227 2.616825 0
M  V30 20 O -2.709443 -0.454296 4.087831 0
M  V30 21 O -3.858936 0.484661 2.147149 0
M  V30 22 C -2.342834 -1.619753 1.704836 0
M  V30 23 C -1.779210 -2.812092 2.107516 0
M  V30 24 C -1.663192 -3.881929 1.249755 0
M  V30 25 C -2.101949 -3.823276 -0.055866 0
M  V30 26 C -2.669344 -2.656177 -0.499156 0
M  V30 27 C -2.774561 -1.598576 0.378447 0
M  V30 28 H 2.680071 -2.051191 2.843084 0
M  V30 29 H 4.887588 -2.716584 2.196635 0
M  V30 30 H 6.805241 -2.428675 0.595397 0
M  V30 31 H 6.545779 -0.808669 -1.181044 0
M  V30 32 H 4.511672 0.558955 -1.493008 0
M  V30 33 H 1.284239 1.773474 -1.367533 0
M  V30 34 H -0.469538 3.061129 -2.259689 0
M  V30 35 H -2.563919 3.341803 -1.126690 0
M  V30 36 H -2.903316 2.265774 1.027425 0
M  V30 37 H -0.651690 1.211370 3.193496 0
M  V30 38 H -1.452497 -2.789304 3.155552 0
M  V30 39 H -1.210599 -4.777775 1.643445 0
M  V30 40 H -1.987221 -4.689882 -0.685774 0
M  V30 41 H -3.020435 -2.586682 -1.518190 0
M  V30 42 H -3.233931 -0.707468 -0.041787 0
M  V30 END ATOM
M  V30 BEGIN BOND
M  V30 1 2 1 2
M  V30 2 1 2 3
M  V30 3 1 3 4
M  V30 4 2 4 5
M  V30 5 1 5 6
M  V30 6 2 6 7
M  V30 7 1 7 8
M  V30 8 2 8 9
M  V30 9 1 9 10
M  V30 10 2 10 11
M  V30 11 1 11 12
M  V30 12 2 12 13
M  V30 13 1 13 14
M  V30 14 2 14 15
M  V30 15 1 15 16
M  V30 16 2 16 17
M  V30 17 1 17 18
M  V30 18 1 18 19
M  V30 19 2 19 20
M  V30 20 2 19 21
M  V30 21 1 19 22
M  V30 22 2 22 23
M  V30 23 1 23 24
M  V30 24 2 24 25
M  V30 25 1 25 26
M  V30 26 2 26 27
M  V30 27 1 11 2
M  V30 28 1 17 12
M  V30 29 1 27 22
M  V30 30 1 9 4
M  V30 31 1 3 28
M  V30 32 1 5 29
M  V30 33 1 6 30
M  V30 34 1 7 31
M  V30 35 1 8 32
M  V30 36 1 13 33
M  V30 37 1 14 34
M  V30 38 1 15 35
M  V30 39 1 16 36
M  V30 40 1 18 37
M  V30 41 1 23 38
M  V30 42 1 24 39
M  V30 43 1 25 40
M  V30 44 1 26 41
M  V30 45 1 27 42
M  V30 END BOND
M  V30 END CTAB
M  END
>  <Dataset>  (866) 
ChEMBL_Kinases

>  <Ligand_Instance>  (866) 
nan

>  <PDB_ID>  (866) 
nan

>  <Standardized_SMILES>  (866) 
O=c1[nH]c2ccccc2nc1-c1ccccc1NS(=O)(=O)c1ccccc1

>  <Name>  (866) 
nan

>  <Pocket>  (866) 
nan

>  <ATP_Site>  (866) 
nan

>  <Peripheral>  (866) 
nan

>  <Num_H_Atoms_ProtBoundConf>  (866) 
nan

>  <Num_Resolved_Atoms>  (866) 
nan

>  <Num_Not_Resolved_Atoms>  (866) 
nan

$$$$
CHEMBL2151048
     RDKit          3D

  0  0  0  0  0  0  0  0  0  0999 V3000
M  V30 BEGIN CTAB
M  V30 COUNTS 41 43 0 0 0
M  V30 BEGIN ATOM
M  V30 1 O -0.147240 -0.372772 2.334336 0
M  V30 2 C -0.236973 -1.529078 2.820490 0
M  V30 3 C 1.166161 -1.788098 2.413556 0
M  V30 4 C 1.786439 -0.646067 1.740215 0
M  V30 5 N 1.664091 -0.579855 0.383552 0
M  V30 6 C 2.189935 0.416474 -0.328056 0
M  V30 7 N 2.026262 0.426222 -1.741029 0
M  V30 8 C 1.304424 -0.621935 -2.440594 0
M  V30 9 C 2.325339 -1.298066 -3.354417 0
M  V30 10 O 3.223343 -0.373746 -3.826348 0
M  V30 11 C 2.640025 0.899960 -3.974056 0
M  V30 12 C 2.577548 1.494756 -2.562287 0
M  V30 13 C 2.892806 1.447606 0.256026 0
M  V30 14 C 3.007174 1.361889 1.645616 0
M  V30 15 O 3.625156 2.241387 2.297523 0
M  V30 16 N 2.458693 0.334519 2.327483 0
M  V30 17 N -1.022044 -2.483688 3.479494 0
M  V30 18 C -2.340901 -1.973947 3.757456 0
M  V30 19 C -2.559130 -1.319797 4.954605 0
M  V30 20 C -3.794374 -0.804712 5.290763 0
M  V30 21 C -4.810717 -0.969929 4.377315 0
M  V30 22 F -6.061168 -0.503747 4.606031 0
M  V30 23 C -4.621463 -1.618810 3.174296 0
M  V30 24 Br -6.010295 -1.854167 1.906434 0
M  V30 25 C -3.365953 -2.136594 2.844255 0
M  V30 26 H 1.131787 -2.662500 1.727507 0
M  V30 27 H 1.768040 -2.115274 3.282589 0
M  V30 28 H 0.942072 -1.336856 -1.670745 0
M  V30 29 H 0.447199 -0.234409 -3.029569 0
M  V30 30 H 2.856973 -2.037951 -2.691869 0
M  V30 31 H 1.840218 -1.895996 -4.145026 0
M  V30 32 H 1.614572 0.786230 -4.354643 0
M  V30 33 H 3.179469 1.530140 -4.681486 0
M  V30 34 H 1.825187 2.302811 -2.602870 0
M  V30 35 H 3.580981 1.826252 -2.231702 0
M  V30 36 H 3.335852 2.269367 -0.253102 0
M  V30 37 H 2.544446 0.267520 3.383497 0
M  V30 38 H -0.539510 -3.389911 3.660167 0
M  V30 39 H -1.731962 -1.213148 5.641797 0
M  V30 40 H -3.993529 -0.285325 6.226480 0
M  V30 41 H -3.166099 -2.654807 1.911396 0
M  V30 END ATOM
M  V30 BEGIN BOND
M  V30 1 2 1 2
M  V30 2 1 2 3
M  V30 3 1 3 4
M  V30 4 2 4 5
M  V30 5 1 5 6
M  V30 6 1 6 7
M  V30 7 1 7 8
M  V30 8 1 8 9
M  V30 9 1 9 10
M  V30 10 1 10 11
M  V30 11 1 11 12
M  V30 12 2 6 13
M  V30 13 1 13 14
M  V30 14 2 14 15
M  V30 15 1 14 16
M  V30 16 1 2 17
M  V30 17 1 17 18
M  V30 18 2 18 19
M  V30 19 1 19 20
M  V30 20 2 20 21
M  V30 21 1 21 22
M  V30 22 1 21 23
M  V30 23 1 23 24
M  V30 24 2 23 25
M  V30 25 1 16 4
M  V30 26 1 25 18
M  V30 27 1 12 7
M  V30 28 1 3 26
M  V30 29 1 3 27
M  V30 30 1 8 28
M  V30 31 1 8 29
M  V30 32 1 9 30
M  V30 33 1 9 31
M  V30 34 1 11 32
M  V30 35 1 11 33
M  V30 36 1 12 34
M  V30 37 1 12 35
M  V30 38 1 13 36
M  V30 39 1 16 37
M  V30 40 1 17 38
M  V30 41 1 19 39
M  V30 42 1 20 40
M  V30 43 1 25 41
M  V30 END BOND
M  V30 END CTAB
M  END
>  <Dataset>  (867) 
ChEMBL_Kinases

>  <Ligand_Instance>  (867) 
nan

>  <PDB_ID>  (867) 
nan

>  <Standardized_SMILES>  (867) 
O=C(Cc1nc(N2CCOCC2)cc(=O)[nH]1)Nc1ccc(F)c(Br)c1

>  <Name>  (867) 
nan

>  <Pocket>  (867) 
nan

>  <ATP_Site>  (867) 
nan

>  <Peripheral>  (867) 
nan

>  <Num_H_Atoms_ProtBoundConf>  (867) 
nan

>  <Num_Resolved_Atoms>  (867) 
nan

>  <Num_Not_Resolved_Atoms>  (867) 
nan

$$$$
CHEMBL215038
     RDKit          3D

  0  0  0  0  0  0  0  0  0  0999 V3000
M  V30 BEGIN CTAB
M  V30 COUNTS 47 49 0 0 0
M  V30 BEGIN ATOM
M  V30 1 C 2.377333 -0.492089 -3.158201 0
M  V30 2 C 3.030033 -0.315200 -1.801442 0
M  V30 3 C 4.508077 -0.463820 -1.984132 0
M  V30 4 O 4.738256 -1.778083 -2.451529 0
M  V30 5 N 2.623777 0.989478 -1.320804 0
M  V30 6 C 2.220650 1.090806 -0.106592 0
M  V30 7 N 2.157227 -0.012690 0.775456 0
M  V30 8 C 1.770986 2.287539 0.572654 0
M  V30 9 C 1.787638 3.419457 -0.199202 0
M  V30 10 O 2.156058 3.660382 -1.540269 0
M  V30 11 N 1.422473 4.726374 0.148341 0
M  V30 12 S 0.955952 4.331352 1.901977 0
M  V30 13 C 1.320741 2.552133 1.855167 0
M  V30 14 N 1.214084 1.540096 2.832606 0
M  V30 15 C 0.032657 0.773515 3.070665 0
M  V30 16 C -0.060490 -0.215033 4.004638 0
M  V30 17 C -1.210723 -0.942839 4.223004 0
M  V30 18 C -2.338864 -0.682251 3.476648 0
M  V30 19 O -3.566522 -1.296690 3.549726 0
M  V30 20 C -3.792277 -2.408066 2.736655 0
M  V30 21 C -2.821417 -2.889598 1.877046 0
M  V30 22 C -3.027054 -3.999082 1.055795 0
M  V30 23 F -2.095635 -4.478154 0.216870 0
M  V30 24 C -4.256149 -4.646435 1.103008 0
M  V30 25 C -5.251358 -4.183701 1.958633 0
M  V30 26 F -6.470129 -4.760538 2.059177 0
M  V30 27 C -4.993932 -3.076737 2.753275 0
M  V30 28 Cl -6.255606 -2.490974 3.838631 0
M  V30 29 C -2.304279 0.319672 2.503893 0
M  V30 30 C -1.116308 1.033038 2.316149 0
M  V30 31 H 2.338680 -1.573304 -3.416158 0
M  V30 32 H 3.071092 0.004494 -3.895390 0
M  V30 33 H 1.378201 -0.019904 -3.229939 0
M  V30 34 H 2.667073 -1.138782 -1.155068 0
M  V30 35 H 5.095048 -0.350064 -1.061014 0
M  V30 36 H 4.888260 0.190509 -2.815439 0
M  V30 37 H 4.733990 -2.443588 -1.718253 0
M  V30 38 H 3.052306 -0.030115 1.328716 0
M  V30 39 H 1.837822 -0.854904 1.284813 0
M  V30 40 H 1.830924 3.059688 -2.268962 0
M  V30 41 H 2.042901 1.299078 3.454652 0
M  V30 42 H 0.815532 -0.454562 4.620800 0
M  V30 43 H -1.311967 -1.727690 4.953192 0
M  V30 44 H -1.854515 -2.382770 1.837867 0
M  V30 45 H -4.524810 -5.522816 0.504211 0
M  V30 46 H -3.143833 0.596278 1.866676 0
M  V30 47 H -1.081817 1.812321 1.563048 0
M  V30 END ATOM
M  V30 BEGIN BOND
M  V30 1 1 1 2
M  V30 2 1 2 3
M  V30 3 1 3 4
M  V30 4 1 2 5
M  V30 5 2 5 6
M  V30 6 1 6 7
M  V30 7 1 6 8
M  V30 8 1 8 9
M  V30 9 1 9 10
M  V30 10 2 9 11
M  V30 11 1 11 12
M  V30 12 1 12 13
M  V30 13 1 13 14
M  V30 14 1 14 15
M  V30 15 2 15 16
M  V30 16 1 16 17
M  V30 17 2 17 18
M  V30 18 1 18 19
M  V30 19 1 19 20
M  V30 20 2 20 21
M  V30 21 1 21 22
M  V30 22 1 22 23
M  V30 23 2 22 24
M  V30 24 1 24 25
M  V30 25 1 25 26
M  V30 26 2 25 27
M  V30 27 1 27 28
M  V30 28 1 18 29
M  V30 29 2 29 30
M  V30 30 2 13 8
M  V30 31 1 30 15
M  V30 32 1 27 20
M  V30 33 1 1 31
M  V30 34 1 1 32
M  V30 35 1 1 33
M  V30 36 1 2 34
M  V30 37 1 3 35
M  V30 38 1 3 36
M  V30 39 1 4 37
M  V30 40 1 7 38
M  V30 41 1 7 39
M  V30 42 1 10 40
M  V30 43 1 14 41
M  V30 44 1 16 42
M  V30 45 1 17 43
M  V30 46 1 21 44
M  V30 47 1 24 45
M  V30 48 1 29 46
M  V30 49 1 30 47
M  V30 END BOND
M  V30 END CTAB
M  END
>  <Dataset>  (868) 
ChEMBL_Kinases

>  <Ligand_Instance>  (868) 
nan

>  <PDB_ID>  (868) 
nan

>  <Standardized_SMILES>  (868) 
CC(CO)/N=C(\N)c1c(O)nsc1Nc1ccc(Oc2cc(F)cc(F)c2Cl)cc1

>  <Name>  (868) 
nan

>  <Pocket>  (868) 
nan

>  <ATP_Site>  (868) 
nan

>  <Peripheral>  (868) 
nan

>  <Num_H_Atoms_ProtBoundConf>  (868) 
nan

>  <Num_Resolved_Atoms>  (868) 
nan

>  <Num_Not_Resolved_Atoms>  (868) 
nan

$$$$
CHEMBL215022
     RDKit          3D

  0  0  0  0  0  0  0  0  0  0999 V3000
M  V30 BEGIN CTAB
M  V30 COUNTS 68 72 0 0 0
M  V30 BEGIN ATOM
M  V30 1 O 5.206759 -2.202802 1.836587 0
M  V30 2 C 4.185794 -1.903963 2.498420 0
M  V30 3 C 3.944613 -1.485506 3.920222 0
M  V30 4 C 4.226490 -0.019069 4.031702 0
M  V30 5 C 3.165024 0.807917 3.580435 0
M  V30 6 C 3.433879 2.149607 3.690136 0
M  V30 7 N 2.539496 3.224655 3.304112 0
M  V30 8 C 2.286367 2.993347 1.901626 0
M  V30 9 N 3.214396 3.345932 0.997604 0
M  V30 10 C 2.993851 3.082691 -0.318240 0
M  V30 11 N 1.833689 2.467749 -0.708092 0
M  V30 12 C 0.885972 2.106180 0.169745 0
M  V30 13 C -0.283350 1.485113 -0.298940 0
M  V30 14 C -1.262868 1.127145 0.623463 0
M  V30 15 O -2.453473 0.505178 0.239485 0
M  V30 16 C -3.440860 0.177717 1.177358 0
M  V30 17 C -4.643056 -0.496000 0.643962 0
M  V30 18 C -4.425924 -1.822224 0.004289 0
M  V30 19 N -3.558054 -1.751492 -1.111459 0
M  V30 20 C -4.114549 -1.026341 -2.235019 0
M  V30 21 C -3.322492 -1.481232 -3.425019 0
M  V30 22 C -2.772881 -2.830824 -3.055138 0
M  V30 23 C -3.094706 -3.014914 -1.601824 0 CFG=2
M  V30 24 C -4.021741 -4.169244 -1.431149 0
M  V30 25 O -4.354518 -4.483442 -0.125550 0
M  V30 26 C -1.061057 1.388451 1.968574 0
M  V30 27 C 0.092258 1.992365 2.385488 0
M  V30 28 C 1.112849 2.376765 1.509517 0
M  V30 29 N 4.677205 2.139610 4.214584 0
M  V30 30 N 5.121970 0.912575 4.406288 0
M  V30 31 N 3.032951 -1.978302 1.708133 0
M  V30 32 C 2.518594 -2.271826 0.392216 0
M  V30 33 C 1.895416 -3.321009 -0.208069 0
M  V30 34 C 1.596404 -3.168898 -1.542558 0
M  V30 35 C 1.870009 -2.060585 -2.316096 0
M  V30 36 C 2.510662 -0.979063 -1.712449 0
M  V30 37 F 2.773783 0.106316 -2.487799 0
M  V30 38 C 2.823600 -1.117810 -0.344577 0
M  V30 39 F 3.467025 0.000733 0.091479 0
M  V30 40 H 4.685062 -2.057957 4.539048 0
M  V30 41 H 2.929526 -1.678290 4.216459 0
M  V30 42 H 2.220211 0.457169 3.172364 0
M  V30 43 H 2.222234 3.944058 4.002161 0
M  V30 44 H 3.783032 3.393163 -0.982786 0
M  V30 45 H -0.439695 1.280469 -1.352992 0
M  V30 46 H -3.001665 -0.305217 2.076853 0
M  V30 47 H -3.787146 1.182731 1.580498 0
M  V30 48 H -5.414673 -0.657807 1.451292 0
M  V30 49 H -5.161470 0.224170 -0.051985 0
M  V30 50 H -3.883046 -2.446512 0.779880 0
M  V30 51 H -5.360466 -2.387235 -0.172077 0
M  V30 52 H -5.201388 -1.159979 -2.333132 0
M  V30 53 H -3.913624 0.057105 -2.075729 0
M  V30 54 H -2.414289 -0.839941 -3.610391 0
M  V30 55 H -3.916857 -1.479769 -4.357041 0
M  V30 56 H -3.296881 -3.584910 -3.717430 0
M  V30 57 H -1.679156 -2.933540 -3.253046 0
M  V30 58 H -2.158896 -3.266394 -1.059387 0
M  V30 59 H -4.936250 -4.063547 -2.073359 0
M  V30 60 H -3.503628 -5.066513 -1.866836 0
M  V30 61 H -4.196498 -5.440633 0.054008 0
M  V30 62 H -1.747019 1.157976 2.766837 0
M  V30 63 H 0.299212 2.213400 3.419186 0
M  V30 64 H 6.002318 0.500233 4.778669 0
M  V30 65 H 2.060081 -1.765143 2.093370 0
M  V30 66 H 1.735806 -4.115311 0.481261 0
M  V30 67 H 1.094511 -4.039047 -1.990249 0
M  V30 68 H 1.563903 -2.109095 -3.354128 0
M  V30 END ATOM
M  V30 BEGIN BOND
M  V30 1 2 1 2
M  V30 2 1 2 3
M  V30 3 1 3 4
M  V30 4 2 4 5
M  V30 5 1 5 6
M  V30 6 1 6 7
M  V30 7 1 7 8
M  V30 8 2 8 9
M  V30 9 1 9 10
M  V30 10 2 10 11
M  V30 11 1 11 12
M  V30 12 2 12 13
M  V30 13 1 13 14
M  V30 14 1 14 15
M  V30 15 1 15 16
M  V30 16 1 16 17
M  V30 17 1 17 18
M  V30 18 1 18 19
M  V30 19 1 19 20
M  V30 20 1 20 21
M  V30 21 1 21 22
M  V30 22 1 22 23
M  V30 23 1 23 24
M  V30 24 1 24 25
M  V30 25 2 14 26
M  V30 26 1 26 27
M  V30 27 2 27 28
M  V30 28 2 6 29
M  V30 29 1 29 30
M  V30 30 1 2 31
M  V30 31 1 31 32
M  V30 32 2 32 33
M  V30 33 1 33 34
M  V30 34 2 34 35
M  V30 35 1 35 36
M  V30 36 1 36 37
M  V30 37 2 36 38
M  V30 38 1 38 39
M  V30 39 1 30 4
M  V30 40 1 38 32
M  V30 41 1 28 8
M  V30 42 1 28 12
M  V30 43 1 23 19
M  V30 44 1 3 40
M  V30 45 1 3 41
M  V30 46 1 5 42
M  V30 47 1 7 43
M  V30 48 1 10 44
M  V30 49 1 13 45
M  V30 50 1 16 46
M  V30 51 1 16 47
M  V30 52 1 17 48
M  V30 53 1 17 49
M  V30 54 1 18 50
M  V30 55 1 18 51
M  V30 56 1 20 52
M  V30 57 1 20 53
M  V30 58 1 21 54
M  V30 59 1 21 55
M  V30 60 1 22 56
M  V30 61 1 22 57
M  V30 62 1 23 58 CFG=1
M  V30 63 1 24 59
M  V30 64 1 24 60
M  V30 65 1 25 61
M  V30 66 1 26 62
M  V30 67 1 27 63
M  V30 68 1 30 64
M  V30 69 1 31 65
M  V30 70 1 33 66
M  V30 71 1 34 67
M  V30 72 1 35 68
M  V30 END BOND
M  V30 END CTAB
M  END
>  <Dataset>  (869) 
ChEMBL_Kinases

>  <Ligand_Instance>  (869) 
nan

>  <PDB_ID>  (869) 
nan

>  <Standardized_SMILES>  (869) 
O=C(Cc1cc(Nc2ncnc3cc(OCCCN4CCC[C@@H]4CO)ccc23)n[nH]1)Nc1cccc(F)c1F

>  <Name>  (869) 
nan

>  <Pocket>  (869) 
nan

>  <ATP_Site>  (869) 
nan

>  <Peripheral>  (869) 
nan

>  <Num_H_Atoms_ProtBoundConf>  (869) 
nan

>  <Num_Resolved_Atoms>  (869) 
nan

>  <Num_Not_Resolved_Atoms>  (869) 
nan

$$$$
CHEMBL215019
     RDKit          3D

  0  0  0  0  0  0  0  0  0  0999 V3000
M  V30 BEGIN CTAB
M  V30 COUNTS 51 54 0 0 0
M  V30 BEGIN ATOM
M  V30 1 C 5.503477 -6.251326 4.713457 0
M  V30 2 N 5.153807 -4.846449 4.826995 0
M  V30 3 C 4.579994 -4.073798 3.760223 0
M  V30 4 N 5.400311 -3.423021 2.910472 0
M  V30 5 C 4.954114 -2.676286 1.883444 0
M  V30 6 C 3.591831 -2.597171 1.725390 0
M  V30 7 C 3.142916 -1.830042 0.670572 0
M  V30 8 C 1.806866 -1.707719 0.454810 0
M  V30 9 C 1.064156 -0.976625 -0.567396 0
M  V30 10 C -0.034342 -0.181995 -0.227239 0
M  V30 11 C -0.751968 0.517828 -1.149291 0
M  V30 12 C -1.871629 1.306147 -0.665794 0
M  V30 13 O -2.121699 1.303594 0.568105 0
M  V30 14 N -2.727845 2.096822 -1.479889 0
M  V30 15 C -3.719903 2.730917 -0.645679 0
M  V30 16 C -3.350472 3.978282 -0.152871 0
M  V30 17 C -4.249942 4.670881 0.667152 0
M  V30 18 C -5.456153 4.040150 0.922218 0
M  V30 19 Cl -6.593289 4.914740 1.958423 0
M  V30 20 C -5.823881 2.803560 0.434401 0
M  V30 21 C -7.162280 2.226356 0.783909 0
M  V30 22 F -8.199597 3.020068 0.365228 0
M  V30 23 F -7.254896 1.975900 2.129694 0
M  V30 24 F -7.280934 1.006127 0.123807 0
M  V30 25 C -4.912589 2.131674 -0.380257 0
M  V30 26 C -0.420496 0.473275 -2.488227 0
M  V30 27 C 0.657893 -0.299923 -2.866283 0
M  V30 28 C 1.367372 -0.998436 -1.913064 0
M  V30 29 C 2.516814 -1.816560 -2.382004 0
M  V30 30 C 0.916129 -2.365709 1.311803 0
M  V30 31 C 1.392767 -3.136280 2.372388 0
M  V30 32 C 2.747704 -3.262107 2.593433 0
M  V30 33 N 3.248694 -3.996764 3.606127 0
M  V30 34 H 6.503906 -6.398310 4.227236 0
M  V30 35 H 5.563286 -6.676376 5.719879 0
M  V30 36 H 4.789854 -6.806275 4.075527 0
M  V30 37 H 5.304837 -4.307479 5.714517 0
M  V30 38 H 5.629514 -2.165075 1.217122 0
M  V30 39 H 3.732765 -1.291043 -0.033814 0
M  V30 40 H -0.266402 -0.171759 0.842963 0
M  V30 41 H -2.541706 2.115119 -2.501299 0
M  V30 42 H -2.391016 4.455025 -0.369284 0
M  V30 43 H -4.036152 5.646912 1.089996 0
M  V30 44 H -5.169827 1.162721 -0.777706 0
M  V30 45 H -0.981360 1.023785 -3.230888 0
M  V30 46 H 0.956579 -0.364855 -3.915930 0
M  V30 47 H 2.729720 -2.674154 -1.710007 0
M  V30 48 H 3.425503 -1.184779 -2.405493 0
M  V30 49 H 2.325611 -2.220556 -3.409531 0
M  V30 50 H -0.184663 -2.362156 1.265699 0
M  V30 51 H 0.744320 -3.663561 3.061615 0
M  V30 END ATOM
M  V30 BEGIN BOND
M  V30 1 1 1 2
M  V30 2 1 2 3
M  V30 3 2 3 4
M  V30 4 1 4 5
M  V30 5 2 5 6
M  V30 6 1 6 7
M  V30 7 2 7 8
M  V30 8 1 8 9
M  V30 9 2 9 10
M  V30 10 1 10 11
M  V30 11 1 11 12
M  V30 12 2 12 13
M  V30 13 1 12 14
M  V30 14 1 14 15
M  V30 15 2 15 16
M  V30 16 1 16 17
M  V30 17 2 17 18
M  V30 18 1 18 19
M  V30 19 1 18 20
M  V30 20 1 20 21
M  V30 21 1 21 22
M  V30 22 1 21 23
M  V30 23 1 21 24
M  V30 24 2 20 25
M  V30 25 2 11 26
M  V30 26 1 26 27
M  V30 27 2 27 28
M  V30 28 1 28 29
M  V30 29 1 8 30
M  V30 30 2 30 31
M  V30 31 1 31 32
M  V30 32 2 32 33
M  V30 33 1 33 3
M  V30 34 1 32 6
M  V30 35 1 28 9
M  V30 36 1 25 15
M  V30 37 1 1 34
M  V30 38 1 1 35
M  V30 39 1 1 36
M  V30 40 1 2 37
M  V30 41 1 5 38
M  V30 42 1 7 39
M  V30 43 1 10 40
M  V30 44 1 14 41
M  V30 45 1 16 42
M  V30 46 1 17 43
M  V30 47 1 25 44
M  V30 48 1 26 45
M  V30 49 1 27 46
M  V30 50 1 29 47
M  V30 51 1 29 48
M  V30 52 1 29 49
M  V30 53 1 30 50
M  V30 54 1 31 51
M  V30 END BOND
M  V30 END CTAB
M  END
>  <Dataset>  (870) 
ChEMBL_Kinases

>  <Ligand_Instance>  (870) 
nan

>  <PDB_ID>  (870) 
nan

>  <Standardized_SMILES>  (870) 
CNc1ncc2cc(-c3cc(C(=O)Nc4ccc(Cl)c(C(F)(F)F)c4)ccc3C)ccc2n1

>  <Name>  (870) 
nan

>  <Pocket>  (870) 
nan

>  <ATP_Site>  (870) 
nan

>  <Peripheral>  (870) 
nan

>  <Num_H_Atoms_ProtBoundConf>  (870) 
nan

>  <Num_Resolved_Atoms>  (870) 
nan

>  <Num_Not_Resolved_Atoms>  (870) 
nan

$$$$
CHEMBL215012
     RDKit          3D

  0  0  0  0  0  0  0  0  0  0999 V3000
M  V30 BEGIN CTAB
M  V30 COUNTS 47 49 0 0 0
M  V30 BEGIN ATOM
M  V30 1 C 2.512246 -1.302855 -1.442078 0
M  V30 2 C 3.761579 -0.658144 -0.884069 0
M  V30 3 C 4.761509 -0.501448 -1.979730 0
M  V30 4 O 5.038297 -1.803032 -2.453152 0
M  V30 5 N 3.388745 0.617771 -0.296186 0
M  V30 6 C 2.685502 0.608717 0.785721 0
M  V30 7 N 2.269866 -0.565203 1.409141 0
M  V30 8 C 2.268956 1.802897 1.468673 0
M  V30 9 C 2.609767 3.008945 0.990376 0
M  V30 10 O 3.358378 3.361172 -0.161311 0
M  V30 11 N 2.351819 4.281934 1.451206 0
M  V30 12 S 1.381530 3.728247 2.943611 0
M  V30 13 C 1.527186 2.067957 2.639849 0
M  V30 14 N 1.027692 0.902045 3.354404 0
M  V30 15 C -0.304694 0.381075 3.203444 0
M  V30 16 C -0.666236 -0.827986 3.760740 0
M  V30 17 C -1.945505 -1.309436 3.616374 0
M  V30 18 C -2.850021 -0.535508 2.893158 0
M  V30 19 O -4.169307 -1.004386 2.729537 0
M  V30 20 C -4.369648 -1.785045 1.598837 0
M  V30 21 C -3.347115 -2.080644 0.709432 0
M  V30 22 C -3.507000 -2.855516 -0.429244 0
M  V30 23 C -4.774962 -3.354587 -0.674096 0
M  V30 24 F -4.849538 -4.109526 -1.816532 0
M  V30 25 C -5.835474 -3.099158 0.168521 0
M  V30 26 C -5.626799 -2.322278 1.290171 0
M  V30 27 Cl -6.970697 -1.986701 2.379667 0
M  V30 28 C -2.529635 0.687119 2.315065 0
M  V30 29 C -1.217512 1.138880 2.486500 0
M  V30 30 H 1.901192 -1.813220 -0.643137 0
M  V30 31 H 2.751922 -2.108195 -2.185676 0
M  V30 32 H 1.824762 -0.581292 -1.934114 0
M  V30 33 H 4.191251 -1.345532 -0.125666 0
M  V30 34 H 4.441341 0.160223 -2.805228 0
M  V30 35 H 5.713242 -0.107512 -1.547128 0
M  V30 36 H 4.744189 -1.949872 -3.376200 0
M  V30 37 H 3.175874 -0.703267 1.908110 0
M  V30 38 H 3.193459 -0.703170 1.915884 0
M  V30 39 H 3.236865 2.876514 -1.019451 0
M  V30 40 H 1.662853 0.407710 4.012924 0
M  V30 41 H 0.087968 -1.370505 4.305516 0
M  V30 42 H -2.231688 -2.266832 4.054549 0
M  V30 43 H -2.333433 -1.688192 0.893662 0
M  V30 44 H -2.657182 -3.047840 -1.082642 0
M  V30 45 H -6.797357 -3.525845 -0.092100 0
M  V30 46 H -3.311395 1.227151 1.762810 0
M  V30 47 H -0.982706 2.110098 2.021454 0
M  V30 END ATOM
M  V30 BEGIN BOND
M  V30 1 1 1 2
M  V30 2 1 2 3
M  V30 3 1 3 4
M  V30 4 1 2 5
M  V30 5 2 5 6
M  V30 6 1 6 7
M  V30 7 1 6 8
M  V30 8 1 8 9
M  V30 9 1 9 10
M  V30 10 2 9 11
M  V30 11 1 11 12
M  V30 12 1 12 13
M  V30 13 1 13 14
M  V30 14 1 14 15
M  V30 15 2 15 16
M  V30 16 1 16 17
M  V30 17 2 17 18
M  V30 18 1 18 19
M  V30 19 1 19 20
M  V30 20 2 20 21
M  V30 21 1 21 22
M  V30 22 2 22 23
M  V30 23 1 23 24
M  V30 24 1 23 25
M  V30 25 2 25 26
M  V30 26 1 26 27
M  V30 27 1 18 28
M  V30 28 2 28 29
M  V30 29 2 13 8
M  V30 30 1 29 15
M  V30 31 1 26 20
M  V30 32 1 1 30
M  V30 33 1 1 31
M  V30 34 1 1 32
M  V30 35 1 2 33
M  V30 36 1 3 34
M  V30 37 1 3 35
M  V30 38 1 4 36
M  V30 39 1 7 37
M  V30 40 1 7 38
M  V30 41 1 10 39
M  V30 42 1 14 40
M  V30 43 1 16 41
M  V30 44 1 17 42
M  V30 45 1 21 43
M  V30 46 1 22 44
M  V30 47 1 25 45
M  V30 48 1 28 46
M  V30 49 1 29 47
M  V30 END BOND
M  V30 END CTAB
M  END
>  <Dataset>  (871) 
ChEMBL_Kinases

>  <Ligand_Instance>  (871) 
nan

>  <PDB_ID>  (871) 
nan

>  <Standardized_SMILES>  (871) 
CC(CO)/N=C(\N)c1c(O)nsc1Nc1ccc(Oc2ccc(F)cc2Cl)cc1

>  <Name>  (871) 
nan

>  <Pocket>  (871) 
nan

>  <ATP_Site>  (871) 
nan

>  <Peripheral>  (871) 
nan

>  <Num_H_Atoms_ProtBoundConf>  (871) 
nan

>  <Num_Resolved_Atoms>  (871) 
nan

>  <Num_Not_Resolved_Atoms>  (871) 
nan

$$$$
CHEMBL215011
     RDKit          3D

  0  0  0  0  0  0  0  0  0  0999 V3000
M  V30 BEGIN CTAB
M  V30 COUNTS 47 49 0 0 0
M  V30 BEGIN ATOM
M  V30 1 C -0.464315 1.600057 -3.437225 0
M  V30 2 C -0.017443 0.764832 -2.257332 0
M  V30 3 C 0.335397 -0.645590 -2.677492 0
M  V30 4 O 1.345126 -0.678675 -3.617968 0
M  V30 5 N 1.180398 1.355003 -1.692102 0
M  V30 6 C 1.566942 1.153117 -0.487793 0
M  V30 7 N 0.789904 0.319536 0.319546 0
M  V30 8 C 2.752818 1.735742 0.077106 0
M  V30 9 C 3.523633 2.551893 -0.694053 0
M  V30 10 O 3.364244 2.959865 -2.035963 0
M  V30 11 N 4.681183 3.192888 -0.330180 0
M  V30 12 S 4.729345 2.554883 1.415246 0
M  V30 13 C 3.296113 1.613640 1.348868 0
M  V30 14 N 2.797953 0.853854 2.450316 0
M  V30 15 C 1.826680 0.005541 2.946637 0
M  V30 16 C 1.970048 -1.384523 2.833784 0
M  V30 17 C 1.006271 -2.273685 3.323605 0
M  V30 18 C -0.075778 -1.663017 3.915970 0
M  V30 19 O -1.049284 -2.518293 4.411627 0
M  V30 20 C -2.126884 -2.946814 3.627819 0
M  V30 21 C -3.309341 -2.235755 3.589413 0
M  V30 22 C -4.406103 -2.612979 2.832648 0
M  V30 23 F -5.555977 -1.898861 2.811057 0
M  V30 24 C -4.287290 -3.780077 2.074396 0
M  V30 25 C -3.126552 -4.501550 2.095769 0
M  V30 26 F -2.991754 -5.651757 1.356473 0
M  V30 27 C -2.031953 -4.107924 2.862969 0
M  V30 28 C -0.321616 -0.318753 4.082493 0
M  V30 29 C 0.679042 0.514527 3.571551 0
M  V30 30 H -1.565514 1.625622 -3.479426 0
M  V30 31 H -0.108595 1.110387 -4.370489 0
M  V30 32 H -0.031337 2.624401 -3.391895 0
M  V30 33 H -0.775164 0.723994 -1.459327 0
M  V30 34 H -0.569844 -1.113133 -3.134539 0
M  V30 35 H 0.604137 -1.264070 -1.814479 0
M  V30 36 H 1.609168 -1.646112 -3.687575 0
M  V30 37 H -0.031558 0.786384 0.761465 0
M  V30 38 H -0.031176 0.781553 0.762668 0
M  V30 39 H 2.500436 3.239800 -2.440075 0
M  V30 40 H 3.330286 0.873597 3.339900 0
M  V30 41 H 2.846104 -1.787567 2.356732 0
M  V30 42 H 1.090839 -3.346334 3.250273 0
M  V30 43 H -3.444369 -1.335134 4.155000 0
M  V30 44 H -5.126220 -4.110733 1.466254 0
M  V30 45 H -1.130913 -4.699973 2.857298 0
M  V30 46 H -1.212837 0.045629 4.566849 0
M  V30 47 H 0.555837 1.590296 3.665778 0
M  V30 END ATOM
M  V30 BEGIN BOND
M  V30 1 1 1 2
M  V30 2 1 2 3
M  V30 3 1 3 4
M  V30 4 1 2 5
M  V30 5 2 5 6
M  V30 6 1 6 7
M  V30 7 1 6 8
M  V30 8 1 8 9
M  V30 9 1 9 10
M  V30 10 2 9 11
M  V30 11 1 11 12
M  V30 12 1 12 13
M  V30 13 1 13 14
M  V30 14 1 14 15
M  V30 15 2 15 16
M  V30 16 1 16 17
M  V30 17 2 17 18
M  V30 18 1 18 19
M  V30 19 1 19 20
M  V30 20 2 20 21
M  V30 21 1 21 22
M  V30 22 1 22 23
M  V30 23 2 22 24
M  V30 24 1 24 25
M  V30 25 1 25 26
M  V30 26 2 25 27
M  V30 27 1 18 28
M  V30 28 2 28 29
M  V30 29 2 13 8
M  V30 30 1 29 15
M  V30 31 1 27 20
M  V30 32 1 1 30
M  V30 33 1 1 31
M  V30 34 1 1 32
M  V30 35 1 2 33
M  V30 36 1 3 34
M  V30 37 1 3 35
M  V30 38 1 4 36
M  V30 39 1 7 37
M  V30 40 1 7 38
M  V30 41 1 10 39
M  V30 42 1 14 40
M  V30 43 1 16 41
M  V30 44 1 17 42
M  V30 45 1 21 43
M  V30 46 1 24 44
M  V30 47 1 27 45
M  V30 48 1 28 46
M  V30 49 1 29 47
M  V30 END BOND
M  V30 END CTAB
M  END
>  <Dataset>  (872) 
ChEMBL_Kinases

>  <Ligand_Instance>  (872) 
nan

>  <PDB_ID>  (872) 
nan

>  <Standardized_SMILES>  (872) 
CC(CO)/N=C(\N)c1c(O)nsc1Nc1ccc(Oc2cc(F)cc(F)c2)cc1

>  <Name>  (872) 
nan

>  <Pocket>  (872) 
nan

>  <ATP_Site>  (872) 
nan

>  <Peripheral>  (872) 
nan

>  <Num_H_Atoms_ProtBoundConf>  (872) 
nan

>  <Num_Resolved_Atoms>  (872) 
nan

>  <Num_Not_Resolved_Atoms>  (872) 
nan

$$$$
CHEMBL214977
     RDKit          3D

  0  0  0  0  0  0  0  0  0  0999 V3000
M  V30 BEGIN CTAB
M  V30 COUNTS 60 63 0 0 0
M  V30 BEGIN ATOM
M  V30 1 C 3.127512 -3.107247 3.073284 0
M  V30 2 N 2.423999 -1.987972 2.557199 0
M  V30 3 C 2.846307 -0.721144 3.056043 0
M  V30 4 C 4.090414 -0.224246 2.348452 0
M  V30 5 N 3.881538 -0.092137 0.902307 0
M  V30 6 C 3.036725 1.051041 0.695155 0
M  V30 7 C 2.913159 1.484787 -0.766115 0
M  V30 8 N 1.958745 2.616330 -0.696518 0
M  V30 9 C 0.734219 2.446209 -0.846212 0
M  V30 10 N 0.431222 1.069375 -1.065647 0
M  V30 11 C -0.220500 3.508901 -0.863084 0
M  V30 12 C -0.508702 4.787615 -0.824067 0
M  V30 13 O 0.781092 5.359350 -0.994682 0
M  V30 14 N -1.587867 5.607190 -0.675820 0
M  V30 15 S -2.873085 4.209322 -0.495547 0
M  V30 16 C -1.584376 2.842722 -0.670206 0
M  V30 17 N -2.272270 1.693237 -0.476608 0
M  V30 18 C -2.996734 0.523511 -0.280933 0
M  V30 19 C -2.830441 -0.562970 -1.170676 0
M  V30 20 C -3.465503 -1.778117 -0.911164 0
M  V30 21 C -4.218444 -1.734452 0.261802 0
M  V30 22 O -4.813753 -3.002541 0.473813 0
M  V30 23 C -4.029498 -4.133121 0.093598 0
M  V30 24 C -4.237633 -5.131823 -0.816867 0
M  V30 25 C -3.293678 -6.114021 -0.984804 0
M  V30 26 Cl -3.670293 -7.332428 -2.172211 0
M  V30 27 C -2.144669 -6.080672 -0.227949 0
M  V30 28 C -1.864343 -5.103532 0.711799 0
M  V30 29 C -2.840946 -4.117395 0.858445 0
M  V30 30 Cl -2.394894 -2.911410 2.059796 0
M  V30 31 C -4.428934 -0.736227 1.156719 0
M  V30 32 C -3.777022 0.445431 0.854134 0
M  V30 33 C 3.302261 -1.285443 0.356703 0
M  V30 34 C 2.228937 -1.950103 1.150014 0
M  V30 35 H 4.170746 -2.788846 3.305110 0
M  V30 36 H 3.160265 -3.913858 2.329718 0
M  V30 37 H 2.642409 -3.523421 4.006817 0
M  V30 38 H 2.028441 0.018156 2.992766 0
M  V30 39 H 3.143747 -0.869476 4.115402 0
M  V30 40 H 4.962301 -0.830458 2.600165 0
M  V30 41 H 4.266525 0.801200 2.728022 0
M  V30 42 H 2.042087 0.768213 1.109573 0
M  V30 43 H 3.400145 1.903592 1.328384 0
M  V30 44 H 2.561652 0.708889 -1.425664 0
M  V30 45 H 3.877622 1.882173 -1.104605 0
M  V30 46 H 0.247532 0.077628 -1.128528 0
M  V30 47 H 0.012998 0.974221 -2.050896 0
M  V30 48 H 0.892609 5.993131 -1.785389 0
M  V30 49 H -1.444343 1.205166 -0.072499 0
M  V30 50 H -2.197054 -0.418662 -2.046117 0
M  V30 51 H -3.323364 -2.572624 -1.602195 0
M  V30 52 H -5.182934 -4.988777 -1.311450 0
M  V30 53 H -1.468391 -6.909277 -0.449212 0
M  V30 54 H -0.923353 -5.152056 1.266515 0
M  V30 55 H -5.070887 -0.924268 2.010352 0
M  V30 56 H -3.884095 1.280645 1.515209 0
M  V30 57 H 4.097304 -2.002789 0.142262 0
M  V30 58 H 2.860231 -1.012641 -0.639883 0
M  V30 59 H 2.183311 -3.017637 0.798886 0
M  V30 60 H 1.198628 -1.571207 0.961974 0
M  V30 END ATOM
M  V30 BEGIN BOND
M  V30 1 1 1 2
M  V30 2 1 2 3
M  V30 3 1 3 4
M  V30 4 1 4 5
M  V30 5 1 5 6
M  V30 6 1 6 7
M  V30 7 1 7 8
M  V30 8 2 8 9
M  V30 9 1 9 10
M  V30 10 1 9 11
M  V30 11 1 11 12
M  V30 12 1 12 13
M  V30 13 2 12 14
M  V30 14 1 14 15
M  V30 15 1 15 16
M  V30 16 1 16 17
M  V30 17 1 17 18
M  V30 18 2 18 19
M  V30 19 1 19 20
M  V30 20 2 20 21
M  V30 21 1 21 22
M  V30 22 1 22 23
M  V30 23 2 23 24
M  V30 24 1 24 25
M  V30 25 1 25 26
M  V30 26 2 25 27
M  V30 27 1 27 28
M  V30 28 2 28 29
M  V30 29 1 29 30
M  V30 30 1 21 31
M  V30 31 2 31 32
M  V30 32 1 5 33
M  V30 33 1 33 34
M  V30 34 1 34 2
M  V30 35 2 16 11
M  V30 36 1 32 18
M  V30 37 1 29 23
M  V30 38 1 1 35
M  V30 39 1 1 36
M  V30 40 1 1 37
M  V30 41 1 3 38
M  V30 42 1 3 39
M  V30 43 1 4 40
M  V30 44 1 4 41
M  V30 45 1 6 42
M  V30 46 1 6 43
M  V30 47 1 7 44
M  V30 48 1 7 45
M  V30 49 1 10 46
M  V30 50 1 10 47
M  V30 51 1 13 48
M  V30 52 1 17 49
M  V30 53 1 19 50
M  V30 54 1 20 51
M  V30 55 1 24 52
M  V30 56 1 27 53
M  V30 57 1 28 54
M  V30 58 1 31 55
M  V30 59 1 32 56
M  V30 60 1 33 57
M  V30 61 1 33 58
M  V30 62 1 34 59
M  V30 63 1 34 60
M  V30 END BOND
M  V30 END CTAB
M  END
>  <Dataset>  (873) 
ChEMBL_Kinases

>  <Ligand_Instance>  (873) 
nan

>  <PDB_ID>  (873) 
nan

>  <Standardized_SMILES>  (873) 
CN1CCN(CC/N=C(\N)c2c(O)nsc2Nc2ccc(Oc3cc(Cl)ccc3Cl)cc2)CC1

>  <Name>  (873) 
nan

>  <Pocket>  (873) 
nan

>  <ATP_Site>  (873) 
nan

>  <Peripheral>  (873) 
nan

>  <Num_H_Atoms_ProtBoundConf>  (873) 
nan

>  <Num_Resolved_Atoms>  (873) 
nan

>  <Num_Not_Resolved_Atoms>  (873) 
nan

$$$$
CHEMBL214940
     RDKit          3D

  0  0  0  0  0  0  0  0  0  0999 V3000
M  V30 BEGIN CTAB
M  V30 COUNTS 72 76 0 0 0
M  V30 BEGIN ATOM
M  V30 1 C 3.540199 -3.711745 2.277086 0
M  V30 2 O 2.561175 -3.044334 2.986432 0
M  V30 3 C 1.201025 -3.105610 2.766696 0
M  V30 4 C 0.882697 -3.952009 1.697226 0
M  V30 5 C -0.429347 -4.131259 1.339297 0
M  V30 6 C -0.884729 -4.927347 0.310203 0
M  V30 7 N 0.089645 -5.636275 -0.450765 0
M  V30 8 C 0.646309 -4.917582 -1.561148 0
M  V30 9 C 0.330884 -3.613586 -1.917123 0
M  V30 10 C 1.059007 -3.258407 -3.033323 0
M  V30 11 C 1.059983 -1.978910 -3.759730 0
M  V30 12 C 0.030561 -1.865934 -4.808910 0
M  V30 13 O -0.774620 -2.784402 -5.057842 0
M  V30 14 N 0.093058 -0.607186 -5.462500 0
M  V30 15 C -0.757365 -0.184799 -6.512217 0
M  V30 16 C -1.903308 0.469701 -6.043098 0
M  V30 17 C -2.827966 0.939532 -6.960305 0
M  V30 18 C -2.704288 0.809811 -8.331217 0
M  V30 19 C -1.561405 0.159618 -8.743277 0
M  V30 20 F -1.363921 -0.008571 -10.069206 0
M  V30 21 C -0.625386 -0.318808 -7.873898 0
M  V30 22 F 0.517180 -0.968678 -8.241125 0
M  V30 23 N 1.810254 -4.348607 -3.346786 0
M  V30 24 N 1.564202 -5.334457 -2.470974 0
M  V30 25 N -2.214816 -5.032631 0.035320 0
M  V30 26 C -3.152213 -4.364532 0.754842 0
M  V30 27 N -2.723396 -3.570116 1.779031 0
M  V30 28 C -1.419574 -3.475164 2.038181 0
M  V30 29 C -1.065339 -2.653562 3.081842 0
M  V30 30 C 0.222648 -2.420182 3.502220 0
M  V30 31 O 0.830346 -1.682574 4.464681 0
M  V30 32 C 0.198619 -0.868215 5.360699 0
M  V30 33 C -0.579039 0.302148 4.825769 0
M  V30 34 C 0.256554 1.252853 4.033457 0
M  V30 35 N -0.509728 2.357326 3.512608 0
M  V30 36 C 0.328268 3.231359 2.681975 0
M  V30 37 C 0.956902 4.244542 3.581428 0
M  V30 38 C 0.161702 4.131435 4.849483 0
M  V30 39 C -1.022244 3.255236 4.490626 0 CFG=1
M  V30 40 C -2.114502 4.094204 3.851784 0
M  V30 41 O -2.662341 4.994895 4.762069 0
M  V30 42 H 3.390259 -4.811227 2.467963 0
M  V30 43 H 4.518033 -3.498768 2.800643 0
M  V30 44 H 3.661437 -3.459065 1.219387 0
M  V30 45 H 1.607220 -4.495572 1.109566 0
M  V30 46 H 0.458687 -6.604107 -0.319233 0
M  V30 47 H -0.352816 -2.928339 -1.455303 0
M  V30 48 H 2.041464 -1.799440 -4.284866 0
M  V30 49 H 0.972877 -1.145135 -3.033494 0
M  V30 50 H 0.750804 0.169060 -5.276329 0
M  V30 51 H -2.126484 0.638921 -4.997809 0
M  V30 52 H -3.721582 1.449860 -6.596703 0
M  V30 53 H -3.418339 1.173337 -9.040938 0
M  V30 54 H 2.493503 -4.494953 -4.117282 0
M  V30 55 H -4.183969 -4.477759 0.501461 0
M  V30 56 H -1.791630 -2.126444 3.670313 0
M  V30 57 H 0.846727 -0.476601 6.175147 0
M  V30 58 H -0.568057 -1.502004 5.904981 0
M  V30 59 H -1.528952 0.045022 4.368637 0
M  V30 60 H -0.884197 0.872469 5.764615 0
M  V30 61 H 0.737464 0.781165 3.149791 0
M  V30 62 H 1.114031 1.573291 4.674542 0
M  V30 63 H -0.300753 3.710113 1.927997 0
M  V30 64 H 1.104565 2.612890 2.145659 0
M  V30 65 H 0.852514 5.259536 3.122835 0
M  V30 66 H 2.043688 4.056339 3.722265 0
M  V30 67 H 0.780758 3.660698 5.633755 0
M  V30 68 H -0.231889 5.131356 5.155930 0
M  V30 69 H -1.371140 2.724271 5.376446 0
M  V30 70 H -1.688082 4.683458 3.033870 0
M  V30 71 H -2.926952 3.485906 3.440506 0
M  V30 72 H -3.442613 5.396413 4.286768 0
M  V30 END ATOM
M  V30 BEGIN BOND
M  V30 1 1 1 2
M  V30 2 1 2 3
M  V30 3 2 3 4
M  V30 4 1 4 5
M  V30 5 2 5 6
M  V30 6 1 6 7
M  V30 7 1 7 8
M  V30 8 1 8 9
M  V30 9 2 9 10
M  V30 10 1 10 11
M  V30 11 1 11 12
M  V30 12 2 12 13
M  V30 13 1 12 14
M  V30 14 1 14 15
M  V30 15 2 15 16
M  V30 16 1 16 17
M  V30 17 2 17 18
M  V30 18 1 18 19
M  V30 19 1 19 20
M  V30 20 2 19 21
M  V30 21 1 21 22
M  V30 22 1 10 23
M  V30 23 1 23 24
M  V30 24 1 6 25
M  V30 25 2 25 26
M  V30 26 1 26 27
M  V30 27 2 27 28
M  V30 28 1 28 29
M  V30 29 2 29 30
M  V30 30 1 30 31
M  V30 31 1 31 32
M  V30 32 1 32 33
M  V30 33 1 33 34
M  V30 34 1 34 35
M  V30 35 1 35 36
M  V30 36 1 36 37
M  V30 37 1 37 38
M  V30 38 1 38 39
M  V30 39 1 39 40
M  V30 40 1 40 41
M  V30 41 1 30 3
M  V30 42 1 39 35
M  V30 43 1 28 5
M  V30 44 2 24 8
M  V30 45 1 21 15
M  V30 46 1 1 42
M  V30 47 1 1 43
M  V30 48 1 1 44
M  V30 49 1 4 45
M  V30 50 1 7 46
M  V30 51 1 9 47
M  V30 52 1 11 48
M  V30 53 1 11 49
M  V30 54 1 14 50
M  V30 55 1 16 51
M  V30 56 1 17 52
M  V30 57 1 18 53
M  V30 58 1 23 54
M  V30 59 1 26 55
M  V30 60 1 29 56
M  V30 61 1 32 57
M  V30 62 1 32 58
M  V30 63 1 33 59
M  V30 64 1 33 60
M  V30 65 1 34 61
M  V30 66 1 34 62
M  V30 67 1 36 63
M  V30 68 1 36 64
M  V30 69 1 37 65
M  V30 70 1 37 66
M  V30 71 1 38 67
M  V30 72 1 38 68
M  V30 73 1 39 69 CFG=1
M  V30 74 1 40 70
M  V30 75 1 40 71
M  V30 76 1 41 72
M  V30 END BOND
M  V30 END CTAB
M  END
>  <Dataset>  (874) 
ChEMBL_Kinases

>  <Ligand_Instance>  (874) 
nan

>  <PDB_ID>  (874) 
nan

>  <Standardized_SMILES>  (874) 
COc1cc2c(Nc3cc(CC(=O)Nc4cccc(F)c4F)[nH]n3)ncnc2cc1OCCCN1CCC[C@H]1CO

>  <Name>  (874) 
nan

>  <Pocket>  (874) 
nan

>  <ATP_Site>  (874) 
nan

>  <Peripheral>  (874) 
nan

>  <Num_H_Atoms_ProtBoundConf>  (874) 
nan

>  <Num_Resolved_Atoms>  (874) 
nan

>  <Num_Not_Resolved_Atoms>  (874) 
nan

$$$$
CHEMBL214913
     RDKit          3D

  0  0  0  0  0  0  0  0  0  0999 V3000
M  V30 BEGIN CTAB
M  V30 COUNTS 66 70 0 0 0
M  V30 BEGIN ATOM
M  V30 1 C 1.747753 -1.359761 3.885730 0
M  V30 2 O 1.987261 -1.633541 2.555771 0
M  V30 3 C 3.318645 -1.892095 2.289731 0
M  V30 4 C 4.257794 -0.775607 2.622449 0
M  V30 5 N 4.046554 0.434683 1.968792 0
M  V30 6 C 4.283360 0.499083 0.558468 0
M  V30 7 C 3.574681 1.721197 -0.006199 0
M  V30 8 N 2.551348 2.170597 0.922455 0
M  V30 9 C 1.139073 2.159237 0.758354 0
M  V30 10 C 0.499729 1.250066 -0.052925 0
M  V30 11 C -0.873415 1.314467 -0.164933 0
M  V30 12 C -1.665122 2.236971 0.485778 0
M  V30 13 N -3.077437 2.300643 0.390858 0
M  V30 14 C -3.971561 1.301232 -0.075561 0
M  V30 15 N -5.285221 1.496787 -0.254442 0
M  V30 16 C -6.061231 0.468155 -0.684694 0
M  V30 17 C -5.505228 -0.776023 -0.937590 0
M  V30 18 C -5.986730 -2.019992 -1.370833 0
M  V30 19 C -4.897432 -2.856095 -1.408803 0
M  V30 20 N -3.775282 -2.243371 -1.037649 0
M  V30 21 C -2.403852 -2.677486 -0.911154 0
M  V30 22 C -1.814087 -2.771448 -2.292383 0
M  V30 23 C -0.983333 -3.987897 -2.522781 0
M  V30 24 C -0.084851 -4.366392 -1.389007 0
M  V30 25 C -0.778758 -4.294035 -0.064151 0
M  V30 26 C -2.271140 -4.015564 -0.243648 0
M  V30 27 C -4.157646 -0.977103 -0.753514 0
M  V30 28 N -3.489729 0.080756 -0.335632 0
M  V30 29 C -0.988874 3.134823 1.291719 0
M  V30 30 C 0.377633 3.097013 1.425629 0
M  V30 31 C 3.087019 2.645161 2.160867 0
M  V30 32 C 4.094338 1.651018 2.662058 0
M  V30 33 H 0.659045 -1.158541 4.085060 0
M  V30 34 H 2.117157 -2.173825 4.560613 0
M  V30 35 H 2.259338 -0.428856 4.208987 0
M  V30 36 H 3.430896 -2.292657 1.262536 0
M  V30 37 H 3.607395 -2.743248 2.956423 0
M  V30 38 H 5.288449 -1.139613 2.392548 0
M  V30 39 H 4.224841 -0.617936 3.716415 0
M  V30 40 H 3.964530 -0.368177 -0.026667 0
M  V30 41 H 5.365860 0.646537 0.391755 0
M  V30 42 H 3.071703 1.467318 -0.955987 0
M  V30 43 H 4.253313 2.570585 -0.191329 0
M  V30 44 H 1.097285 0.512310 -0.577147 0
M  V30 45 H -1.286418 0.571060 -0.822534 0
M  V30 46 H -3.541606 3.187826 0.693643 0
M  V30 47 H -7.107701 0.518852 -0.860009 0
M  V30 48 H -7.026858 -2.224864 -1.614530 0
M  V30 49 H -4.895129 -3.903622 -1.698666 0
M  V30 50 H -1.807403 -1.963538 -0.286493 0
M  V30 51 H -2.640515 -2.789543 -3.059873 0
M  V30 52 H -1.198648 -1.882253 -2.542498 0
M  V30 53 H -1.617849 -4.870344 -2.811693 0
M  V30 54 H -0.329766 -3.813533 -3.421246 0
M  V30 55 H 0.827489 -3.712363 -1.389778 0
M  V30 56 H 0.289258 -5.411037 -1.596278 0
M  V30 57 H -0.682115 -5.275397 0.461738 0
M  V30 58 H -0.305171 -3.501544 0.550521 0
M  V30 59 H -2.741402 -4.046441 0.747796 0
M  V30 60 H -2.687465 -4.782168 -0.927800 0
M  V30 61 H -1.599090 3.873313 1.814205 0
M  V30 62 H 0.780582 3.868430 2.094572 0
M  V30 63 H 3.573688 3.631909 1.983517 0
M  V30 64 H 2.279006 2.779477 2.922615 0
M  V30 65 H 5.103079 2.150692 2.627660 0
M  V30 66 H 3.936747 1.431410 3.756400 0
M  V30 END ATOM
M  V30 BEGIN BOND
M  V30 1 1 1 2
M  V30 2 1 2 3
M  V30 3 1 3 4
M  V30 4 1 4 5
M  V30 5 1 5 6
M  V30 6 1 6 7
M  V30 7 1 7 8
M  V30 8 1 8 9
M  V30 9 2 9 10
M  V30 10 1 10 11
M  V30 11 2 11 12
M  V30 12 1 12 13
M  V30 13 1 13 14
M  V30 14 2 14 15
M  V30 15 1 15 16
M  V30 16 2 16 17
M  V30 17 1 17 18
M  V30 18 2 18 19
M  V30 19 1 19 20
M  V30 20 1 20 21
M  V30 21 1 21 22
M  V30 22 1 22 23
M  V30 23 1 23 24
M  V30 24 1 24 25
M  V30 25 1 25 26
M  V30 26 1 20 27
M  V30 27 2 27 28
M  V30 28 1 12 29
M  V30 29 2 29 30
M  V30 30 1 8 31
M  V30 31 1 31 32
M  V30 32 1 32 5
M  V30 33 1 30 9
M  V30 34 1 28 14
M  V30 35 1 27 17
M  V30 36 1 26 21
M  V30 37 1 1 33
M  V30 38 1 1 34
M  V30 39 1 1 35
M  V30 40 1 3 36
M  V30 41 1 3 37
M  V30 42 1 4 38
M  V30 43 1 4 39
M  V30 44 1 6 40
M  V30 45 1 6 41
M  V30 46 1 7 42
M  V30 47 1 7 43
M  V30 48 1 10 44
M  V30 49 1 11 45
M  V30 50 1 13 46
M  V30 51 1 16 47
M  V30 52 1 18 48
M  V30 53 1 19 49
M  V30 54 1 21 50
M  V30 55 1 22 51
M  V30 56 1 22 52
M  V30 57 1 23 53
M  V30 58 1 23 54
M  V30 59 1 24 55
M  V30 60 1 24 56
M  V30 61 1 25 57
M  V30 62 1 25 58
M  V30 63 1 26 59
M  V30 64 1 26 60
M  V30 65 1 29 61
M  V30 66 1 30 62
M  V30 67 1 31 63
M  V30 68 1 31 64
M  V30 69 1 32 65
M  V30 70 1 32 66
M  V30 END BOND
M  V30 END CTAB
M  END
>  <Dataset>  (875) 
ChEMBL_Kinases

>  <Ligand_Instance>  (875) 
nan

>  <PDB_ID>  (875) 
nan

>  <Standardized_SMILES>  (875) 
COCCN1CCN(c2ccc(Nc3ncc4ccn(C5CCCCC5)c4n3)cc2)CC1

>  <Name>  (875) 
nan

>  <Pocket>  (875) 
nan

>  <ATP_Site>  (875) 
nan

>  <Peripheral>  (875) 
nan

>  <Num_H_Atoms_ProtBoundConf>  (875) 
nan

>  <Num_Resolved_Atoms>  (875) 
nan

>  <Num_Not_Resolved_Atoms>  (875) 
nan

$$$$
CHEMBL214906
     RDKit          3D

  0  0  0  0  0  0  0  0  0  0999 V3000
M  V30 BEGIN CTAB
M  V30 COUNTS 43 45 0 0 0
M  V30 BEGIN ATOM
M  V30 1 C -0.459599 -5.910627 1.789594 0
M  V30 2 N -0.166870 -5.667940 0.373023 0
M  V30 3 C 0.899062 -4.726433 0.255065 0
M  V30 4 N 2.172710 -5.099096 0.521656 0
M  V30 5 C 3.217640 -4.243915 0.443065 0
M  V30 6 C 2.978832 -2.930121 0.074851 0
M  V30 7 C 1.685048 -2.557345 -0.194840 0
M  V30 8 C 1.315308 -1.137529 -0.505417 0
M  V30 9 C 0.227828 -0.540367 -1.004588 0
M  V30 10 C 0.276003 0.796714 -1.129161 0
M  V30 11 C 1.418386 1.465584 -0.746760 0
M  V30 12 C 1.417286 3.039646 -0.883071 0
M  V30 13 N 0.639872 3.431993 0.328107 0
M  V30 14 C 1.381625 3.032748 1.494524 0
M  V30 15 C 0.473025 2.824325 2.702096 0
M  V30 16 C -0.509946 1.733484 2.363244 0
M  V30 17 C -0.330243 0.397085 2.659185 0
M  V30 18 C -1.210639 -0.570484 2.265301 0
M  V30 19 C -2.337439 -0.212411 1.537405 0
M  V30 20 Cl -3.486130 -1.432881 1.011352 0
M  V30 21 C -2.548659 1.096333 1.228571 0
M  V30 22 C -1.650221 2.059957 1.633882 0
M  V30 23 Cl -2.086835 3.707546 1.169389 0
M  V30 24 S 2.454621 0.124507 -0.190178 0
M  V30 25 N 0.669733 -3.445322 -0.104395 0
M  V30 26 H -0.276882 -5.035088 2.434746 0
M  V30 27 H 0.240931 -6.712015 2.157028 0
M  V30 28 H -1.508036 -6.237215 1.950027 0
M  V30 29 H -0.746862 -6.190188 -0.304326 0
M  V30 30 H 4.240171 -4.525569 0.653087 0
M  V30 31 H 3.771126 -2.176122 -0.014348 0
M  V30 32 H -0.573091 -1.239341 -1.247687 0
M  V30 33 H -0.617509 1.295801 -1.547352 0
M  V30 34 H 2.436325 3.367107 -0.801600 0
M  V30 35 H 0.844756 3.293955 -1.753804 0
M  V30 36 H 0.646240 4.477642 0.267788 0
M  V30 37 H 2.075989 3.847617 1.804649 0
M  V30 38 H 1.962236 2.128018 1.352206 0
M  V30 39 H 1.060793 2.521069 3.563000 0
M  V30 40 H -0.103371 3.739134 2.885121 0
M  V30 41 H 0.571885 0.135494 3.232512 0
M  V30 42 H -1.059843 -1.638291 2.498065 0
M  V30 43 H -3.430289 1.333159 0.667779 0
M  V30 END ATOM
M  V30 BEGIN BOND
M  V30 1 1 1 2
M  V30 2 1 2 3
M  V30 3 2 3 4
M  V30 4 1 4 5
M  V30 5 2 5 6
M  V30 6 1 6 7
M  V30 7 1 7 8
M  V30 8 2 8 9
M  V30 9 1 9 10
M  V30 10 2 10 11
M  V30 11 1 11 12
M  V30 12 1 12 13
M  V30 13 1 13 14
M  V30 14 1 14 15
M  V30 15 1 15 16
M  V30 16 2 16 17
M  V30 17 1 17 18
M  V30 18 2 18 19
M  V30 19 1 19 20
M  V30 20 1 19 21
M  V30 21 2 21 22
M  V30 22 1 22 23
M  V30 23 1 11 24
M  V30 24 2 7 25
M  V30 25 1 25 3
M  V30 26 1 24 8
M  V30 27 1 22 16
M  V30 28 1 1 26
M  V30 29 1 1 27
M  V30 30 1 1 28
M  V30 31 1 2 29
M  V30 32 1 5 30
M  V30 33 1 6 31
M  V30 34 1 9 32
M  V30 35 1 10 33
M  V30 36 1 12 34
M  V30 37 1 12 35
M  V30 38 1 13 36
M  V30 39 1 14 37
M  V30 40 1 14 38
M  V30 41 1 15 39
M  V30 42 1 15 40
M  V30 43 1 17 41
M  V30 44 1 18 42
M  V30 45 1 21 43
M  V30 END BOND
M  V30 END CTAB
M  END
>  <Dataset>  (876) 
ChEMBL_Kinases

>  <Ligand_Instance>  (876) 
nan

>  <PDB_ID>  (876) 
nan

>  <Standardized_SMILES>  (876) 
CNc1nccc(-c2ccc(CNCCc3ccc(Cl)cc3Cl)s2)n1

>  <Name>  (876) 
nan

>  <Pocket>  (876) 
nan

>  <ATP_Site>  (876) 
nan

>  <Peripheral>  (876) 
nan

>  <Num_H_Atoms_ProtBoundConf>  (876) 
nan

>  <Num_Resolved_Atoms>  (876) 
nan

>  <Num_Not_Resolved_Atoms>  (876) 
nan

$$$$
CHEMBL214901
     RDKit          3D

  0  0  0  0  0  0  0  0  0  0999 V3000
M  V30 BEGIN CTAB
M  V30 COUNTS 50 53 0 0 0
M  V30 BEGIN ATOM
M  V30 1 N 0.767454 1.798576 1.076664 0
M  V30 2 C 1.697673 1.660332 0.010236 0
M  V30 3 N 2.667732 0.846765 0.159843 0
M  V30 4 N 2.853255 0.086132 1.333507 0
M  V30 5 C 2.145666 -1.095225 1.787759 0
M  V30 6 C 3.030628 -1.864164 2.735438 0
M  V30 7 O 3.346866 -1.143241 3.880266 0
M  V30 8 C 3.451786 0.218243 3.640311 0
M  V30 9 C 3.898444 0.529973 2.230827 0
M  V30 10 C 1.427423 2.505361 -1.120859 0
M  V30 11 C 2.500544 3.124194 -1.690275 0
M  V30 12 O 3.860732 3.109695 -1.431190 0
M  V30 13 N 2.375780 4.037421 -2.834952 0
M  V30 14 S 0.621560 3.976924 -3.073305 0
M  V30 15 C 0.220116 2.795023 -1.694267 0
M  V30 16 N -1.056716 2.395664 -1.518540 0
M  V30 17 C -1.767296 1.360232 -0.875010 0
M  V30 18 C -2.983793 1.323945 -0.222488 0
M  V30 19 C -3.462926 0.134641 0.282187 0
M  V30 20 C -2.789856 -1.062990 0.177635 0
M  V30 21 O -3.465675 -2.122058 0.755949 0
M  V30 22 C -3.024361 -3.419875 0.821029 0
M  V30 23 C -3.933063 -4.210921 0.108211 0
M  V30 24 C -3.760394 -5.595000 -0.013557 0
M  V30 25 Cl -4.824701 -6.670008 -0.874192 0
M  V30 26 C -2.674496 -6.192259 0.580369 0
M  V30 27 C -1.779807 -5.417418 1.282156 0
M  V30 28 C -1.953873 -4.056101 1.399100 0
M  V30 29 Cl -0.914692 -2.934931 2.268432 0
M  V30 30 C -1.573217 -1.048640 -0.470308 0
M  V30 31 C -1.091235 0.136624 -0.975471 0
M  V30 32 H -0.130774 1.841977 1.588031 0
M  V30 33 H 0.858319 1.982811 2.100561 0
M  V30 34 H 1.204746 -0.831502 2.317536 0
M  V30 35 H 1.966349 -1.735464 0.901481 0
M  V30 36 H 3.931433 -2.250412 2.238254 0
M  V30 37 H 2.447705 -2.751774 3.078522 0
M  V30 38 H 2.497872 0.709330 3.830215 0
M  V30 39 H 4.209479 0.654757 4.319769 0
M  V30 40 H 4.888235 0.130064 1.975572 0
M  V30 41 H 3.960072 1.632847 2.165591 0
M  V30 42 H 4.401704 2.247252 -1.597015 0
M  V30 43 H -1.846484 2.936799 -1.932846 0
M  V30 44 H -3.432335 2.304035 -0.194313 0
M  V30 45 H -4.431117 0.287498 0.759967 0
M  V30 46 H -4.849866 -3.917326 -0.428883 0
M  V30 47 H -2.486378 -7.275803 0.518758 0
M  V30 48 H -0.890394 -5.799530 1.784093 0
M  V30 49 H -1.083105 -1.998934 -0.533716 0
M  V30 50 H -0.123498 -0.014972 -1.457815 0
M  V30 END ATOM
M  V30 BEGIN BOND
M  V30 1 1 1 2
M  V30 2 2 2 3
M  V30 3 1 3 4
M  V30 4 1 4 5
M  V30 5 1 5 6
M  V30 6 1 6 7
M  V30 7 1 7 8
M  V30 8 1 8 9
M  V30 9 1 2 10
M  V30 10 1 10 11
M  V30 11 1 11 12
M  V30 12 2 11 13
M  V30 13 1 13 14
M  V30 14 1 14 15
M  V30 15 1 15 16
M  V30 16 1 16 17
M  V30 17 2 17 18
M  V30 18 1 18 19
M  V30 19 2 19 20
M  V30 20 1 20 21
M  V30 21 1 21 22
M  V30 22 2 22 23
M  V30 23 1 23 24
M  V30 24 1 24 25
M  V30 25 2 24 26
M  V30 26 1 26 27
M  V30 27 2 27 28
M  V30 28 1 28 29
M  V30 29 1 20 30
M  V30 30 2 30 31
M  V30 31 1 9 4
M  V30 32 2 15 10
M  V30 33 1 31 17
M  V30 34 1 28 22
M  V30 35 1 1 32
M  V30 36 1 1 33
M  V30 37 1 5 34
M  V30 38 1 5 35
M  V30 39 1 6 36
M  V30 40 1 6 37
M  V30 41 1 8 38
M  V30 42 1 8 39
M  V30 43 1 9 40
M  V30 44 1 9 41
M  V30 45 1 12 42
M  V30 46 1 16 43
M  V30 47 1 18 44
M  V30 48 1 19 45
M  V30 49 1 23 46
M  V30 50 1 26 47
M  V30 51 1 27 48
M  V30 52 1 30 49
M  V30 53 1 31 50
M  V30 END BOND
M  V30 END CTAB
M  END
>  <Dataset>  (877) 
ChEMBL_Kinases

>  <Ligand_Instance>  (877) 
nan

>  <PDB_ID>  (877) 
nan

>  <Standardized_SMILES>  (877) 
N/C(=N\N1CCOCC1)c1c(O)nsc1Nc1ccc(Oc2cc(Cl)ccc2Cl)cc1

>  <Name>  (877) 
nan

>  <Pocket>  (877) 
nan

>  <ATP_Site>  (877) 
nan

>  <Peripheral>  (877) 
nan

>  <Num_H_Atoms_ProtBoundConf>  (877) 
nan

>  <Num_Resolved_Atoms>  (877) 
nan

>  <Num_Not_Resolved_Atoms>  (877) 
nan

$$$$
CHEMBL214842
     RDKit          3D

  0  0  0  0  0  0  0  0  0  0999 V3000
M  V30 BEGIN CTAB
M  V30 COUNTS 72 76 0 0 0
M  V30 BEGIN ATOM
M  V30 1 C 3.585730 -2.651029 1.476210 0
M  V30 2 O 2.410027 -2.353137 2.169270 0
M  V30 3 C 1.184038 -2.942639 2.005759 0
M  V30 4 C 0.954606 -3.949001 1.094332 0
M  V30 5 C -0.249563 -4.588506 0.874943 0
M  V30 6 C -0.392995 -5.602803 -0.067296 0
M  V30 7 N 0.806888 -5.897702 -0.773383 0
M  V30 8 C 0.961909 -5.202295 -2.029512 0
M  V30 9 C 0.028013 -4.340267 -2.599351 0
M  V30 10 C 0.553709 -3.876724 -3.794217 0
M  V30 11 C -0.153838 -2.941225 -4.696581 0
M  V30 12 C 0.029493 -1.520921 -4.292234 0
M  V30 13 O 0.702289 -1.171786 -3.288477 0
M  V30 14 N -0.630732 -0.613470 -5.153577 0
M  V30 15 C -0.625595 0.799724 -5.003669 0
M  V30 16 C -1.703673 1.205066 -4.218779 0
M  V30 17 C -1.896391 2.561532 -3.938608 0
M  V30 18 C -1.016442 3.512164 -4.439853 0
M  V30 19 C 0.023513 3.062247 -5.203314 0
M  V30 20 F 0.950646 3.919417 -5.746092 0
M  V30 21 C 0.256279 1.740934 -5.507054 0
M  V30 22 F 1.248006 1.208448 -6.245723 0
M  V30 23 N 1.754950 -4.460204 -3.899637 0
M  V30 24 N 2.015754 -5.246346 -2.869925 0
M  V30 25 N -1.627963 -6.140104 -0.170548 0
M  V30 26 C -2.638245 -5.696101 0.608650 0
M  V30 27 N -2.503820 -4.715510 1.521354 0
M  V30 28 C -1.288223 -4.140645 1.667849 0
M  V30 29 C -1.132578 -3.136135 2.602470 0
M  V30 30 C 0.114269 -2.528947 2.776036 0
M  V30 31 O 0.353846 -1.514256 3.692978 0
M  V30 32 C -0.718815 -1.074692 4.486792 0
M  V30 33 C -0.409610 -0.001524 5.448247 0
M  V30 34 C 0.112298 1.292225 5.024913 0
M  V30 35 N -0.626336 2.130708 4.156051 0
M  V30 36 C 0.024643 3.464574 4.128383 0
M  V30 37 C -0.268440 4.218882 2.875532 0
M  V30 38 C -1.590076 3.927286 2.239899 0
M  V30 39 O -2.660532 4.480303 2.931143 0
M  V30 40 C -1.835103 2.440201 2.053203 0
M  V30 41 C -0.703989 1.724794 2.770124 0
M  V30 42 H 4.385031 -1.982494 1.872728 0
M  V30 43 H 3.911489 -3.712700 1.543312 0
M  V30 44 H 3.450808 -2.389150 0.394079 0
M  V30 45 H 1.832746 -4.246653 0.502605 0
M  V30 46 H 1.578569 -6.544389 -0.500399 0
M  V30 47 H -0.940236 -4.064908 -2.201787 0
M  V30 48 H -1.246731 -3.191093 -4.804169 0
M  V30 49 H 0.274948 -3.112516 -5.730023 0
M  V30 50 H -1.195507 -0.873797 -5.994528 0
M  V30 51 H -2.463704 0.577519 -3.765695 0
M  V30 52 H -2.706649 2.967481 -3.337439 0
M  V30 53 H -1.117530 4.583366 -4.254517 0
M  V30 54 H 2.416318 -4.314338 -4.704716 0
M  V30 55 H -3.566873 -6.241124 0.392025 0
M  V30 56 H -1.942076 -2.789611 3.216982 0
M  V30 57 H -1.041147 -1.965813 5.153146 0
M  V30 58 H -1.640591 -0.865570 3.919332 0
M  V30 59 H -1.390276 0.201876 6.000437 0
M  V30 60 H 0.244700 -0.396549 6.281417 0
M  V30 61 H 1.111971 1.117693 4.535413 0
M  V30 62 H 0.418998 1.846083 5.973284 0
M  V30 63 H -0.327802 3.974154 5.058563 0
M  V30 64 H 1.110749 3.246927 4.138843 0
M  V30 65 H -0.289074 5.313611 3.162037 0
M  V30 66 H 0.554349 4.148041 2.128308 0
M  V30 67 H -1.568552 4.431640 1.233271 0
M  V30 68 H -2.334724 4.832401 3.790116 0
M  V30 69 H -2.833546 2.122793 2.375837 0
M  V30 70 H -1.731010 2.199557 0.980073 0
M  V30 71 H 0.230656 2.146853 2.279946 0
M  V30 72 H -0.700979 0.680039 2.565846 0
M  V30 END ATOM
M  V30 BEGIN BOND
M  V30 1 1 1 2
M  V30 2 1 2 3
M  V30 3 2 3 4
M  V30 4 1 4 5
M  V30 5 2 5 6
M  V30 6 1 6 7
M  V30 7 1 7 8
M  V30 8 1 8 9
M  V30 9 2 9 10
M  V30 10 1 10 11
M  V30 11 1 11 12
M  V30 12 2 12 13
M  V30 13 1 12 14
M  V30 14 1 14 15
M  V30 15 2 15 16
M  V30 16 1 16 17
M  V30 17 2 17 18
M  V30 18 1 18 19
M  V30 19 1 19 20
M  V30 20 2 19 21
M  V30 21 1 21 22
M  V30 22 1 10 23
M  V30 23 1 23 24
M  V30 24 1 6 25
M  V30 25 2 25 26
M  V30 26 1 26 27
M  V30 27 2 27 28
M  V30 28 1 28 29
M  V30 29 2 29 30
M  V30 30 1 30 31
M  V30 31 1 31 32
M  V30 32 1 32 33
M  V30 33 1 33 34
M  V30 34 1 34 35
M  V30 35 1 35 36
M  V30 36 1 36 37
M  V30 37 1 37 38
M  V30 38 1 38 39
M  V30 39 1 38 40
M  V30 40 1 40 41
M  V30 41 1 30 3
M  V30 42 1 41 35
M  V30 43 1 28 5
M  V30 44 2 24 8
M  V30 45 1 21 15
M  V30 46 1 1 42
M  V30 47 1 1 43
M  V30 48 1 1 44
M  V30 49 1 4 45
M  V30 50 1 7 46
M  V30 51 1 9 47
M  V30 52 1 11 48
M  V30 53 1 11 49
M  V30 54 1 14 50
M  V30 55 1 16 51
M  V30 56 1 17 52
M  V30 57 1 18 53
M  V30 58 1 23 54
M  V30 59 1 26 55
M  V30 60 1 29 56
M  V30 61 1 32 57
M  V30 62 1 32 58
M  V30 63 1 33 59
M  V30 64 1 33 60
M  V30 65 1 34 61
M  V30 66 1 34 62
M  V30 67 1 36 63
M  V30 68 1 36 64
M  V30 69 1 37 65
M  V30 70 1 37 66
M  V30 71 1 38 67
M  V30 72 1 39 68
M  V30 73 1 40 69
M  V30 74 1 40 70
M  V30 75 1 41 71
M  V30 76 1 41 72
M  V30 END BOND
M  V30 END CTAB
M  END
>  <Dataset>  (878) 
ChEMBL_Kinases

>  <Ligand_Instance>  (878) 
nan

>  <PDB_ID>  (878) 
nan

>  <Standardized_SMILES>  (878) 
COc1cc2c(Nc3cc(CC(=O)Nc4cccc(F)c4F)[nH]n3)ncnc2cc1OCCCN1CCC(O)CC1

>  <Name>  (878) 
nan

>  <Pocket>  (878) 
nan

>  <ATP_Site>  (878) 
nan

>  <Peripheral>  (878) 
nan

>  <Num_H_Atoms_ProtBoundConf>  (878) 
nan

>  <Num_Resolved_Atoms>  (878) 
nan

>  <Num_Not_Resolved_Atoms>  (878) 
nan

$$$$
CHEMBL214831
     RDKit          3D

  0  0  0  0  0  0  0  0  0  0999 V3000
M  V30 BEGIN CTAB
M  V30 COUNTS 48 50 0 0 0
M  V30 BEGIN ATOM
M  V30 1 C 4.180450 -4.612072 0.881731 0
M  V30 2 O 3.423539 -3.542352 0.367218 0
M  V30 3 C 3.863513 -2.726331 -0.642136 0
M  V30 4 C 5.118298 -2.912049 -1.233928 0
M  V30 5 C 5.526409 -2.070203 -2.247499 0
M  V30 6 C 4.705686 -1.052105 -2.676468 0
M  V30 7 C 3.476447 -0.898882 -2.070660 0
M  V30 8 C 3.003947 -1.701887 -1.053220 0
M  V30 9 C 1.707075 -1.544511 -0.414711 0
M  V30 10 O 1.159038 -2.669426 -0.318657 0
M  V30 11 C 1.026740 -0.358121 0.081397 0
M  V30 12 C 1.546709 0.913056 0.039832 0
M  V30 13 N 0.841064 1.947733 0.527029 0
M  V30 14 C -0.394806 1.713664 1.060992 0
M  V30 15 N -1.227726 2.755744 1.608568 0
M  V30 16 C -2.557563 2.493002 2.180654 0
M  V30 17 C -2.484797 1.544704 3.332183 0
M  V30 18 C -3.538390 0.470267 3.309703 0
M  V30 19 N -3.921714 -0.029675 2.071339 0
M  V30 20 C -4.302063 -1.360381 1.933516 0
M  V30 21 C -4.012975 0.820202 0.945256 0
M  V30 22 C -3.580889 2.215265 1.145961 0
M  V30 23 N -0.913507 0.473675 1.106927 0
M  V30 24 C -0.221911 -0.553582 0.627334 0
M  V30 25 N -0.832167 -1.853031 0.706315 0
M  V30 26 H 4.087404 -5.517989 0.267393 0
M  V30 27 H 5.269681 -4.379449 0.943047 0
M  V30 28 H 3.859912 -4.902463 1.903114 0
M  V30 29 H 5.781005 -3.706135 -0.913061 0
M  V30 30 H 6.506229 -2.222355 -2.703047 0
M  V30 31 H 5.036693 -0.393630 -3.476440 0
M  V30 32 H 2.871457 -0.104770 -2.430332 0
M  V30 33 H 2.523898 1.072070 -0.384359 0
M  V30 34 H -0.786098 3.723119 1.556451 0
M  V30 35 H -2.837767 3.486451 2.646451 0
M  V30 36 H -2.568932 2.023520 4.330833 0
M  V30 37 H -1.459932 1.094302 3.336891 0
M  V30 38 H -3.099498 -0.382431 3.908861 0
M  V30 39 H -4.424296 0.772962 3.906260 0
M  V30 40 H -3.431661 -2.028448 1.917567 0
M  V30 41 H -4.968527 -1.742959 2.760599 0
M  V30 42 H -4.938837 -1.464600 1.022217 0
M  V30 43 H -5.101947 0.815545 0.640175 0
M  V30 44 H -3.510900 0.330403 0.079322 0
M  V30 45 H -3.135828 2.565767 0.166795 0
M  V30 46 H -4.482076 2.889540 1.247249 0
M  V30 47 H -0.489799 -2.439065 1.521459 0
M  V30 48 H -1.546564 -2.119306 -0.021394 0
M  V30 END ATOM
M  V30 BEGIN BOND
M  V30 1 1 1 2
M  V30 2 1 2 3
M  V30 3 2 3 4
M  V30 4 1 4 5
M  V30 5 2 5 6
M  V30 6 1 6 7
M  V30 7 2 7 8
M  V30 8 1 8 9
M  V30 9 2 9 10
M  V30 10 1 9 11
M  V30 11 2 11 12
M  V30 12 1 12 13
M  V30 13 2 13 14
M  V30 14 1 14 15
M  V30 15 1 15 16
M  V30 16 1 16 17
M  V30 17 1 17 18
M  V30 18 1 18 19
M  V30 19 1 19 20
M  V30 20 1 19 21
M  V30 21 1 21 22
M  V30 22 1 14 23
M  V30 23 2 23 24
M  V30 24 1 24 25
M  V30 25 1 8 3
M  V30 26 1 24 11
M  V30 27 1 22 16
M  V30 28 1 1 26
M  V30 29 1 1 27
M  V30 30 1 1 28
M  V30 31 1 4 29
M  V30 32 1 5 30
M  V30 33 1 6 31
M  V30 34 1 7 32
M  V30 35 1 12 33
M  V30 36 1 15 34
M  V30 37 1 16 35
M  V30 38 1 17 36
M  V30 39 1 17 37
M  V30 40 1 18 38
M  V30 41 1 18 39
M  V30 42 1 20 40
M  V30 43 1 20 41
M  V30 44 1 20 42
M  V30 45 1 21 43
M  V30 46 1 21 44
M  V30 47 1 22 45
M  V30 48 1 22 46
M  V30 49 1 25 47
M  V30 50 1 25 48
M  V30 END BOND
M  V30 END CTAB
M  END
>  <Dataset>  (879) 
ChEMBL_Kinases

>  <Ligand_Instance>  (879) 
nan

>  <PDB_ID>  (879) 
nan

>  <Standardized_SMILES>  (879) 
COc1ccccc1C(=O)c1cnc(NC2CCN(C)CC2)nc1N

>  <Name>  (879) 
nan

>  <Pocket>  (879) 
nan

>  <ATP_Site>  (879) 
nan

>  <Peripheral>  (879) 
nan

>  <Num_H_Atoms_ProtBoundConf>  (879) 
nan

>  <Num_Resolved_Atoms>  (879) 
nan

>  <Num_Not_Resolved_Atoms>  (879) 
nan

$$$$
CHEMBL214816
     RDKit          3D

  0  0  0  0  0  0  0  0  0  0999 V3000
M  V30 BEGIN CTAB
M  V30 COUNTS 47 49 0 0 0
M  V30 BEGIN ATOM
M  V30 1 C 3.142280 -1.959635 -1.474581 0
M  V30 2 C 3.804372 -2.016211 -0.106953 0
M  V30 3 C 5.265394 -2.317957 -0.297686 0
M  V30 4 O 5.839564 -1.373012 -1.132512 0
M  V30 5 N 3.659766 -0.699105 0.489190 0
M  V30 6 C 2.834665 -0.446975 1.432017 0
M  V30 7 N 1.980091 -1.428435 1.987900 0
M  V30 8 C 2.666326 0.843302 2.050051 0
M  V30 9 C 3.437069 1.845706 1.595789 0
M  V30 10 O 4.410693 1.950456 0.619690 0
M  V30 11 N 3.336135 3.233429 2.181480 0
M  V30 12 S 2.017740 2.903063 3.438308 0
M  V30 13 C 1.794686 1.266559 3.103126 0
M  V30 14 N 0.866698 0.359410 3.746467 0
M  V30 15 C -0.465500 0.320288 3.213358 0
M  V30 16 C -0.760324 1.162319 2.175406 0
M  V30 17 C -2.076391 1.055646 1.729411 0
M  V30 18 C -3.052897 0.212656 2.225526 0
M  V30 19 O -4.311305 0.234062 1.667901 0
M  V30 20 C -4.658538 -0.463741 0.529300 0
M  V30 21 C -5.078170 0.495359 -0.410265 0
M  V30 22 C -5.507451 0.131732 -1.695086 0
M  V30 23 C -5.525794 -1.195552 -2.066202 0
M  V30 24 Cl -6.032225 -1.805584 -3.623670 0
M  V30 25 C -5.115596 -2.119501 -1.144288 0
M  V30 26 C -4.693852 -1.776875 0.114806 0
M  V30 27 Cl -4.147755 -2.854391 1.378253 0
M  V30 28 C -2.610827 -0.584379 3.277737 0
M  V30 29 C -1.333784 -0.559082 3.795155 0
M  V30 30 H 2.037963 -1.808658 -1.371752 0
M  V30 31 H 3.343095 -2.855294 -2.077200 0
M  V30 32 H 3.487785 -1.084427 -2.067721 0
M  V30 33 H 3.342833 -2.827569 0.462081 0
M  V30 34 H 5.358831 -3.341557 -0.716547 0
M  V30 35 H 5.755781 -2.252834 0.695525 0
M  V30 36 H 5.409646 -0.478215 -1.013393 0
M  V30 37 H 2.526666 -1.743305 2.843796 0
M  V30 38 H 1.130689 -1.538099 1.427733 0
M  V30 39 H 4.232812 1.496063 -0.286470 0
M  V30 40 H 1.181612 -0.220874 4.553520 0
M  V30 41 H -0.084742 1.861917 1.705215 0
M  V30 42 H -2.362474 1.714444 0.893818 0
M  V30 43 H -5.142055 1.591129 -0.322201 0
M  V30 44 H -5.841826 0.812726 -2.465929 0
M  V30 45 H -5.067009 -3.210026 -1.270965 0
M  V30 46 H -3.330679 -1.259110 3.717114 0
M  V30 47 H -1.073912 -1.214133 4.615345 0
M  V30 END ATOM
M  V30 BEGIN BOND
M  V30 1 1 1 2
M  V30 2 1 2 3
M  V30 3 1 3 4
M  V30 4 1 2 5
M  V30 5 2 5 6
M  V30 6 1 6 7
M  V30 7 1 6 8
M  V30 8 1 8 9
M  V30 9 1 9 10
M  V30 10 2 9 11
M  V30 11 1 11 12
M  V30 12 1 12 13
M  V30 13 1 13 14
M  V30 14 1 14 15
M  V30 15 2 15 16
M  V30 16 1 16 17
M  V30 17 2 17 18
M  V30 18 1 18 19
M  V30 19 1 19 20
M  V30 20 2 20 21
M  V30 21 1 21 22
M  V30 22 2 22 23
M  V30 23 1 23 24
M  V30 24 1 23 25
M  V30 25 2 25 26
M  V30 26 1 26 27
M  V30 27 1 18 28
M  V30 28 2 28 29
M  V30 29 2 13 8
M  V30 30 1 29 15
M  V30 31 1 26 20
M  V30 32 1 1 30
M  V30 33 1 1 31
M  V30 34 1 1 32
M  V30 35 1 2 33
M  V30 36 1 3 34
M  V30 37 1 3 35
M  V30 38 1 4 36
M  V30 39 1 7 37
M  V30 40 1 7 38
M  V30 41 1 10 39
M  V30 42 1 14 40
M  V30 43 1 16 41
M  V30 44 1 17 42
M  V30 45 1 21 43
M  V30 46 1 22 44
M  V30 47 1 25 45
M  V30 48 1 28 46
M  V30 49 1 29 47
M  V30 END BOND
M  V30 END CTAB
M  END
>  <Dataset>  (880) 
ChEMBL_Kinases

>  <Ligand_Instance>  (880) 
nan

>  <PDB_ID>  (880) 
nan

>  <Standardized_SMILES>  (880) 
CC(CO)/N=C(\N)c1c(O)nsc1Nc1ccc(Oc2ccc(Cl)cc2Cl)cc1

>  <Name>  (880) 
nan

>  <Pocket>  (880) 
nan

>  <ATP_Site>  (880) 
nan

>  <Peripheral>  (880) 
nan

>  <Num_H_Atoms_ProtBoundConf>  (880) 
nan

>  <Num_Resolved_Atoms>  (880) 
nan

>  <Num_Not_Resolved_Atoms>  (880) 
nan

$$$$
CHEMBL2148108
     RDKit          3D

  0  0  0  0  0  0  0  0  0  0999 V3000
M  V30 BEGIN CTAB
M  V30 COUNTS 76 79 0 0 0
M  V30 BEGIN ATOM
M  V30 1 C 2.148982 0.288929 2.886683 0
M  V30 2 C 1.550448 -0.907373 2.227678 0 CFG=1
M  V30 3 C 0.290771 -1.406679 2.907718 0 CFG=2
M  V30 4 C -0.233586 -2.562081 2.083026 0
M  V30 5 C -0.281673 -2.307681 0.613389 0 CFG=2
M  V30 6 O -1.078453 -1.279409 0.194779 0
M  V30 7 C -2.431650 -1.467070 0.287598 0 CFG=2
M  V30 8 C -2.945637 -2.667928 -0.475695 0
M  V30 9 C -1.752224 -3.353431 -1.109595 0
M  V30 10 C -0.664425 -3.609229 -0.064177 0
M  V30 11 C 0.517604 -4.214757 -0.793782 0
M  V30 12 C -1.207758 -4.637249 0.871898 0
M  V30 13 C -3.204782 -0.221377 -0.019271 0
M  V30 14 C -3.740412 0.475773 1.178267 0
M  V30 15 O -4.434003 1.456398 1.544442 0
M  V30 16 O -3.390075 -0.108684 2.376305 0
M  V30 17 C -3.730156 0.301467 3.660581 0 CFG=1
M  V30 18 C -4.332789 -0.874579 4.393306 0
M  V30 19 O -5.446637 -1.271354 3.692435 0
M  V30 20 C -2.391580 0.737070 4.296261 0
M  V30 21 C -1.432436 -0.394138 4.256177 0
M  V30 22 O -1.386674 -1.229238 5.216255 0
M  V30 23 O -0.655567 -0.408479 3.107917 0
M  V30 24 O 1.035463 -1.956889 0.224495 0
M  V30 25 C 1.277149 -0.688137 0.741699 0 CFG=2
M  V30 26 C 2.502261 -0.054247 0.126264 0
M  V30 27 C 2.315381 0.198792 -1.359118 0
M  V30 28 C 1.161296 1.118948 -1.630729 0
M  V30 29 C 0.973750 1.374296 -3.112621 0
M  V30 30 C 2.174148 1.994192 -3.707505 0
M  V30 31 C 2.454099 3.335862 -3.822922 0
M  V30 32 C 3.635173 3.754570 -4.412052 0
M  V30 33 C 4.581681 2.880257 -4.907780 0
M  V30 34 C 4.315769 1.522541 -4.799810 0
M  V30 35 O 5.222870 0.563568 -5.277314 0
M  V30 36 C 3.127836 1.111995 -4.207025 0
M  V30 37 H 1.882742 0.316725 3.977569 0
M  V30 38 H 1.840473 1.257016 2.398054 0
M  V30 39 H 3.257789 0.307602 2.848927 0
M  V30 40 H 2.283147 -1.740001 2.281423 0
M  V30 41 H 0.609912 -1.817582 3.885280 0
M  V30 42 H -1.149653 -2.961303 2.532457 0
M  V30 43 H 0.546441 -3.366699 2.218875 0
M  V30 44 H -2.622190 -1.694028 1.378423 0
M  V30 45 H -3.613356 -2.320148 -1.275053 0
M  V30 46 H -3.471802 -3.397869 0.172492 0
M  V30 47 H -2.027397 -4.336568 -1.543376 0
M  V30 48 H -1.396737 -2.709158 -1.936867 0
M  V30 49 H 0.648639 -3.844952 -1.820153 0
M  V30 50 H 1.475394 -4.036589 -0.256789 0
M  V30 51 H 0.444319 -5.321927 -0.878082 0
M  V30 52 H -1.479168 -5.515354 0.244999 0
M  V30 53 H -2.133530 -4.336762 1.393341 0
M  V30 54 H -0.481717 -5.021522 1.614619 0
M  V30 55 H -2.501325 0.501535 -0.514529 0
M  V30 56 H -4.000774 -0.382886 -0.780962 0
M  V30 57 H -4.369734 1.201913 3.694103 0
M  V30 58 H -3.608566 -1.713270 4.355242 0
M  V30 59 H -4.539308 -0.645019 5.457099 0
M  V30 60 H -5.403645 -2.198240 3.335726 0
M  V30 61 H -2.585619 1.061800 5.326902 0
M  V30 62 H -2.038086 1.589832 3.720553 0
M  V30 63 H 0.448964 0.013070 0.665790 0
M  V30 64 H 3.409695 -0.649776 0.315257 0
M  V30 65 H 2.693476 0.942065 0.573049 0
M  V30 66 H 3.262077 0.626943 -1.740842 0
M  V30 67 H 2.208725 -0.781741 -1.825831 0
M  V30 68 H 1.343826 2.098958 -1.149109 0
M  V30 69 H 0.212905 0.719732 -1.226160 0
M  V30 70 H 0.162508 2.155102 -3.189207 0
M  V30 71 H 0.583637 0.512587 -3.667391 0
M  V30 72 H 1.697995 3.999776 -3.427631 0
M  V30 73 H 3.830904 4.806543 -4.490579 0
M  V30 74 H 5.495386 3.174494 -5.364327 0
M  V30 75 H 5.795233 0.000090 -4.652012 0
M  V30 76 H 2.976863 0.031135 -4.151606 0
M  V30 END ATOM
M  V30 BEGIN BOND
M  V30 1 1 1 2
M  V30 2 1 2 3
M  V30 3 1 3 4
M  V30 4 1 4 5
M  V30 5 1 5 6
M  V30 6 1 6 7
M  V30 7 1 7 8
M  V30 8 1 8 9
M  V30 9 1 9 10
M  V30 10 1 10 11
M  V30 11 1 10 12
M  V30 12 1 7 13
M  V30 13 1 13 14
M  V30 14 2 14 15
M  V30 15 1 14 16
M  V30 16 1 16 17
M  V30 17 1 17 18
M  V30 18 1 18 19
M  V30 19 1 17 20
M  V30 20 1 20 21
M  V30 21 2 21 22
M  V30 22 1 21 23
M  V30 23 1 5 24 CFG=3
M  V30 24 1 24 25
M  V30 25 1 25 26
M  V30 26 1 26 27
M  V30 27 1 27 28
M  V30 28 1 28 29
M  V30 29 1 29 30
M  V30 30 2 30 31
M  V30 31 1 31 32
M  V30 32 2 32 33
M  V30 33 1 33 34
M  V30 34 1 34 35
M  V30 35 2 34 36
M  V30 36 1 25 2
M  V30 37 1 36 30
M  V30 38 1 23 3
M  V30 39 1 10 5
M  V30 40 1 1 37
M  V30 41 1 1 38
M  V30 42 1 1 39
M  V30 43 1 2 40 CFG=3
M  V30 44 1 3 41 CFG=1
M  V30 45 1 4 42
M  V30 46 1 4 43
M  V30 47 1 7 44 CFG=1
M  V30 48 1 8 45
M  V30 49 1 8 46
M  V30 50 1 9 47
M  V30 51 1 9 48
M  V30 52 1 11 49
M  V30 53 1 11 50
M  V30 54 1 11 51
M  V30 55 1 12 52
M  V30 56 1 12 53
M  V30 57 1 12 54
M  V30 58 1 13 55
M  V30 59 1 13 56
M  V30 60 1 17 57 CFG=3
M  V30 61 1 18 58
M  V30 62 1 18 59
M  V30 63 1 19 60
M  V30 64 1 20 61
M  V30 65 1 20 62
M  V30 66 1 25 63 CFG=1
M  V30 67 1 26 64
M  V30 68 1 26 65
M  V30 69 1 27 66
M  V30 70 1 27 67
M  V30 71 1 28 68
M  V30 72 1 28 69
M  V30 73 1 29 70
M  V30 74 1 29 71
M  V30 75 1 31 72
M  V30 76 1 32 73
M  V30 77 1 33 74
M  V30 78 1 35 75
M  V30 79 1 36 76
M  V30 END BOND
M  V30 END CTAB
M  END
>  <Dataset>  (881) 
ChEMBL_Kinases

>  <Ligand_Instance>  (881) 
nan

>  <PDB_ID>  (881) 
nan

>  <Standardized_SMILES>  (881) 
C[C@H]1[C@@H]2C[C@@]3(O[C@H](CCC3(C)C)CC(=O)O[C@@H](CO)CC(=O)O2)O[C@@H]1CCCCc1cccc(O)c1

>  <Name>  (881) 
nan

>  <Pocket>  (881) 
nan

>  <ATP_Site>  (881) 
nan

>  <Peripheral>  (881) 
nan

>  <Num_H_Atoms_ProtBoundConf>  (881) 
nan

>  <Num_Resolved_Atoms>  (881) 
nan

>  <Num_Not_Resolved_Atoms>  (881) 
nan

$$$$
CHEMBL217130
     RDKit          3D

  0  0  0  0  0  0  0  0  0  0999 V3000
M  V30 BEGIN CTAB
M  V30 COUNTS 48 50 0 0 0
M  V30 BEGIN ATOM
M  V30 1 C 1.187458 -1.999064 -0.430327 0
M  V30 2 C 2.604265 -1.857868 0.155242 0
M  V30 3 C 3.543218 -2.157596 -0.950727 0
M  V30 4 O 4.888344 -2.174027 -0.575240 0
M  V30 5 N 2.667289 -0.675921 0.863067 0
M  V30 6 C 3.183272 0.437502 0.736263 0
M  V30 7 N 3.935680 0.574570 -0.478369 0
M  V30 8 C 2.959819 1.479807 1.708213 0
M  V30 9 C 3.602416 2.650461 1.462803 0
M  V30 10 O 4.481713 3.088903 0.449563 0
M  V30 11 N 3.557798 3.834520 2.216373 0
M  V30 12 S 2.399771 3.223339 3.529163 0
M  V30 13 C 2.234708 1.605377 2.823745 0
M  V30 14 N 1.425476 0.630137 3.417163 0
M  V30 15 C 0.182425 0.025329 3.009560 0
M  V30 16 C -0.285700 0.206460 1.699573 0
M  V30 17 C -1.476548 -0.411321 1.322885 0
M  V30 18 C -2.199767 -1.186441 2.196213 0
M  V30 19 C -3.420134 -1.768220 1.659479 0
M  V30 20 O -3.709073 -2.805982 2.366956 0
M  V30 21 C -4.194963 -1.296329 0.531977 0
M  V30 22 C -4.317300 -0.054066 -0.060264 0
M  V30 23 C -5.109927 0.099489 -1.168966 0
M  V30 24 C -5.814432 -0.957938 -1.738737 0
M  V30 25 C -5.711546 -2.207355 -1.167659 0
M  V30 26 C -4.909348 -2.353141 -0.050128 0
M  V30 27 C -1.699333 -1.324969 3.444061 0
M  V30 28 C -0.524687 -0.744131 3.893957 0
M  V30 29 H 0.515663 -2.354948 0.349840 0
M  V30 30 H 1.176310 -2.744465 -1.246681 0
M  V30 31 H 0.938274 -0.989440 -0.807528 0
M  V30 32 H 2.667690 -2.730532 0.874575 0
M  V30 33 H 3.342828 -3.243631 -1.225876 0
M  V30 34 H 3.347091 -1.640321 -1.913422 0
M  V30 35 H 5.417894 -2.781171 -1.176346 0
M  V30 36 H 3.259122 0.662507 -1.290931 0
M  V30 37 H 4.908696 0.536997 -0.113022 0
M  V30 38 H 4.159570 3.443948 -0.441415 0
M  V30 39 H 1.841161 0.317608 4.337790 0
M  V30 40 H 0.346586 0.842565 1.090375 0
M  V30 41 H -1.641466 -0.156685 0.263497 0
M  V30 42 H -3.762172 0.702401 0.448500 0
M  V30 43 H -5.172030 1.085706 -1.599337 0
M  V30 44 H -6.423735 -0.780884 -2.613897 0
M  V30 45 H -6.275576 -2.989451 -1.639639 0
M  V30 46 H -4.931888 -3.400424 0.294978 0
M  V30 47 H -2.274990 -1.940997 4.124737 0
M  V30 48 H -0.175895 -0.887520 4.912693 0
M  V30 END ATOM
M  V30 BEGIN BOND
M  V30 1 1 1 2
M  V30 2 1 2 3
M  V30 3 1 3 4
M  V30 4 1 2 5
M  V30 5 2 5 6
M  V30 6 1 6 7
M  V30 7 1 6 8
M  V30 8 1 8 9
M  V30 9 1 9 10
M  V30 10 2 9 11
M  V30 11 1 11 12
M  V30 12 1 12 13
M  V30 13 1 13 14
M  V30 14 1 14 15
M  V30 15 2 15 16
M  V30 16 1 16 17
M  V30 17 2 17 18
M  V30 18 1 18 19
M  V30 19 2 19 20
M  V30 20 1 19 21
M  V30 21 2 21 22
M  V30 22 1 22 23
M  V30 23 2 23 24
M  V30 24 1 24 25
M  V30 25 2 25 26
M  V30 26 1 18 27
M  V30 27 2 27 28
M  V30 28 2 13 8
M  V30 29 1 28 15
M  V30 30 1 26 21
M  V30 31 1 1 29
M  V30 32 1 1 30
M  V30 33 1 1 31
M  V30 34 1 2 32
M  V30 35 1 3 33
M  V30 36 1 3 34
M  V30 37 1 4 35
M  V30 38 1 7 36
M  V30 39 1 7 37
M  V30 40 1 10 38
M  V30 41 1 14 39
M  V30 42 1 16 40
M  V30 43 1 17 41
M  V30 44 1 22 42
M  V30 45 1 23 43
M  V30 46 1 24 44
M  V30 47 1 25 45
M  V30 48 1 26 46
M  V30 49 1 27 47
M  V30 50 1 28 48
M  V30 END BOND
M  V30 END CTAB
M  END
>  <Dataset>  (882) 
ChEMBL_Kinases

>  <Ligand_Instance>  (882) 
nan

>  <PDB_ID>  (882) 
nan

>  <Standardized_SMILES>  (882) 
CC(CO)/N=C(\N)c1c(O)nsc1Nc1ccc(C(=O)c2ccccc2)cc1

>  <Name>  (882) 
nan

>  <Pocket>  (882) 
nan

>  <ATP_Site>  (882) 
nan

>  <Peripheral>  (882) 
nan

>  <Num_H_Atoms_ProtBoundConf>  (882) 
nan

>  <Num_Resolved_Atoms>  (882) 
nan

>  <Num_Not_Resolved_Atoms>  (882) 
nan

$$$$
CHEMBL214601
     RDKit          3D

  0  0  0  0  0  0  0  0  0  0999 V3000
M  V30 BEGIN CTAB
M  V30 COUNTS 68 71 0 0 0
M  V30 BEGIN ATOM
M  V30 1 C 4.116104 1.182709 1.100570 0
M  V30 2 O 4.003393 -0.161430 0.649545 0
M  V30 3 C 2.824752 -0.600948 0.029143 0
M  V30 4 C 1.773997 0.305263 -0.154413 0
M  V30 5 C 0.591610 -0.057663 -0.751840 0
M  V30 6 C -0.367258 0.916953 -0.872801 0
M  V30 7 N -0.289734 2.251352 -0.415096 0
M  V30 8 C -1.315506 3.187194 -0.719678 0
M  V30 9 C -2.387339 3.106909 -1.575237 0
M  V30 10 C -3.150654 4.248591 -1.510679 0
M  V30 11 C -4.387999 4.615630 -2.256275 0
M  V30 12 C -5.504377 3.876211 -1.619846 0
M  V30 13 O -4.535090 3.387480 -0.918791 0
M  V30 14 N -6.874559 3.547418 -1.481027 0
M  V30 15 C -6.970651 2.587053 -0.457531 0
M  V30 16 C -6.892401 1.312217 -0.977858 0
M  V30 17 C -6.953410 0.162917 -0.225465 0
M  V30 18 C -7.104699 0.400219 1.145197 0
M  V30 19 C -7.180449 1.663570 1.642737 0
M  V30 20 F -7.327361 1.861435 2.996470 0
M  V30 21 C -7.119705 2.806003 0.895194 0
M  V30 22 N -2.519871 5.010522 -0.608044 0
M  V30 23 N -1.444667 4.419733 -0.127281 0
M  V30 24 N -1.521187 0.483355 -1.476118 0
M  V30 25 C -1.650435 -0.767203 -1.884847 0
M  V30 26 N -0.696734 -1.753057 -1.769253 0
M  V30 27 C 0.494164 -1.370539 -1.165536 0
M  V30 28 C 1.474803 -2.311635 -1.021762 0
M  V30 29 C 2.672678 -1.931569 -0.410902 0
M  V30 30 O 3.792606 -2.657887 -0.135659 0
M  V30 31 C 4.049064 -4.011037 -0.336731 0
M  V30 32 C 3.120132 -4.886551 0.494825 0
M  V30 33 C 3.331470 -4.447978 1.956277 0
M  V30 34 N 4.679380 -4.629568 2.364387 0
M  V30 35 C 4.854056 -4.092050 3.707622 0
M  V30 36 C 5.199759 -5.965902 2.259593 0
M  V30 37 C 4.516323 -6.892705 3.241452 0
M  V30 38 O 4.735191 -6.422275 4.514874 0
M  V30 39 H 4.286637 1.901256 0.287930 0
M  V30 40 H 5.006076 1.201613 1.764089 0
M  V30 41 H 3.254729 1.462559 1.747170 0
M  V30 42 H 1.955657 1.312009 0.197592 0
M  V30 43 H 0.487394 2.612429 0.150643 0
M  V30 44 H -2.675341 2.327399 -2.235641 0
M  V30 45 H -4.545846 5.704661 -2.189131 0
M  V30 46 H -4.266693 4.321398 -3.321077 0
M  V30 47 H -7.225057 4.177089 -2.218412 0
M  V30 48 H -6.774777 1.057059 -2.040493 0
M  V30 49 H -6.898542 -0.842387 -0.585613 0
M  V30 50 H -7.168078 -0.403427 1.848938 0
M  V30 51 H -7.168708 3.829414 1.193268 0
M  V30 52 H -2.746199 5.966087 -0.242659 0
M  V30 53 H -2.612095 -0.974558 -2.341065 0
M  V30 54 H 1.396511 -3.324784 -1.350788 0
M  V30 55 H 3.922724 -4.255638 -1.431341 0
M  V30 56 H 5.088106 -4.236805 -0.062905 0
M  V30 57 H 2.085854 -4.891631 0.200110 0
M  V30 58 H 3.507969 -5.921585 0.442043 0
M  V30 59 H 2.552406 -4.821005 2.626616 0
M  V30 60 H 3.172053 -3.327389 1.902268 0
M  V30 61 H 3.927513 -4.277447 4.271330 0
M  V30 62 H 5.786797 -4.379304 4.191099 0
M  V30 63 H 4.912182 -2.976877 3.553295 0
M  V30 64 H 5.258956 -6.376111 1.247886 0
M  V30 65 H 6.266545 -5.895716 2.612956 0
M  V30 66 H 4.973119 -7.906952 3.119810 0
M  V30 67 H 3.439611 -7.044110 2.984283 0
M  V30 68 H 3.947875 -6.570845 5.087349 0
M  V30 END ATOM
M  V30 BEGIN BOND
M  V30 1 1 1 2
M  V30 2 1 2 3
M  V30 3 2 3 4
M  V30 4 1 4 5
M  V30 5 2 5 6
M  V30 6 1 6 7
M  V30 7 1 7 8
M  V30 8 1 8 9
M  V30 9 2 9 10
M  V30 10 1 10 11
M  V30 11 1 11 12
M  V30 12 2 12 13
M  V30 13 1 12 14
M  V30 14 1 14 15
M  V30 15 2 15 16
M  V30 16 1 16 17
M  V30 17 2 17 18
M  V30 18 1 18 19
M  V30 19 1 19 20
M  V30 20 2 19 21
M  V30 21 1 10 22
M  V30 22 1 22 23
M  V30 23 1 6 24
M  V30 24 2 24 25
M  V30 25 1 25 26
M  V30 26 2 26 27
M  V30 27 1 27 28
M  V30 28 2 28 29
M  V30 29 1 29 30
M  V30 30 1 30 31
M  V30 31 1 31 32
M  V30 32 1 32 33
M  V30 33 1 33 34
M  V30 34 1 34 35
M  V30 35 1 34 36
M  V30 36 1 36 37
M  V30 37 1 37 38
M  V30 38 1 29 3
M  V30 39 1 27 5
M  V30 40 2 23 8
M  V30 41 1 21 15
M  V30 42 1 1 39
M  V30 43 1 1 40
M  V30 44 1 1 41
M  V30 45 1 4 42
M  V30 46 1 7 43
M  V30 47 1 9 44
M  V30 48 1 11 45
M  V30 49 1 11 46
M  V30 50 1 14 47
M  V30 51 1 16 48
M  V30 52 1 17 49
M  V30 53 1 18 50
M  V30 54 1 21 51
M  V30 55 1 22 52
M  V30 56 1 25 53
M  V30 57 1 28 54
M  V30 58 1 31 55
M  V30 59 1 31 56
M  V30 60 1 32 57
M  V30 61 1 32 58
M  V30 62 1 33 59
M  V30 63 1 33 60
M  V30 64 1 35 61
M  V30 65 1 35 62
M  V30 66 1 35 63
M  V30 67 1 36 64
M  V30 68 1 36 65
M  V30 69 1 37 66
M  V30 70 1 37 67
M  V30 71 1 38 68
M  V30 END BOND
M  V30 END CTAB
M  END
>  <Dataset>  (883) 
ChEMBL_Kinases

>  <Ligand_Instance>  (883) 
nan

>  <PDB_ID>  (883) 
nan

>  <Standardized_SMILES>  (883) 
COc1cc2c(Nc3cc(CC(=O)Nc4cccc(F)c4)[nH]n3)ncnc2cc1OCCCN(C)CCO

>  <Name>  (883) 
nan

>  <Pocket>  (883) 
nan

>  <ATP_Site>  (883) 
nan

>  <Peripheral>  (883) 
nan

>  <Num_H_Atoms_ProtBoundConf>  (883) 
nan

>  <Num_Resolved_Atoms>  (883) 
nan

>  <Num_Not_Resolved_Atoms>  (883) 
nan

$$$$
CHEMBL214609
     RDKit          3D

  0  0  0  0  0  0  0  0  0  0999 V3000
M  V30 BEGIN CTAB
M  V30 COUNTS 60 65 0 0 0
M  V30 BEGIN ATOM
M  V30 1 C 0.839427 -4.554580 3.371629 0
M  V30 2 N 2.030860 -4.691838 4.194398 0
M  V30 3 C 2.394137 -3.426781 4.754199 0
M  V30 4 C 3.268187 -2.574116 3.890638 0
M  V30 5 N 3.256213 -3.020314 2.521409 0
M  V30 6 C 2.844035 -2.224348 1.421168 0
M  V30 7 C 2.202444 -1.027174 1.591258 0
M  V30 8 C 1.814410 -0.234900 0.532792 0
M  V30 9 C 2.050961 -0.603587 -0.773220 0
M  V30 10 N 1.671292 0.197155 -1.884711 0
M  V30 11 C 0.976687 1.424621 -1.704702 0
M  V30 12 N 1.519099 2.649450 -1.432189 0
M  V30 13 C 0.720095 3.724325 -1.297387 0
M  V30 14 C -0.651060 3.653989 -1.423116 0
M  V30 15 C -1.715884 4.525936 -1.350303 0
M  V30 16 C -2.851992 3.751194 -1.589379 0
M  V30 17 N -2.545168 2.479492 -1.799948 0
M  V30 18 C -3.521591 1.488076 -2.072777 0
M  V30 19 C -4.593793 1.307528 -1.024915 0
M  V30 20 C -4.805234 -0.191421 -0.882260 0
M  V30 21 C -3.776424 -0.747073 0.086148 0
M  V30 22 C -2.519341 -0.121167 -0.539900 0
M  V30 23 C -2.862447 0.111906 -1.983618 0
M  V30 24 C -4.157661 -0.703668 -2.163847 0
M  V30 25 C -1.182575 2.389265 -1.702439 0
M  V30 26 N -0.369888 1.303506 -1.837821 0
M  V30 27 C 2.691274 -1.798387 -0.956554 0
M  V30 28 C 3.081663 -2.595736 0.120092 0
M  V30 29 C 3.723885 -4.388974 2.430042 0
M  V30 30 C 3.077127 -5.303473 3.427516 0
M  V30 31 H 0.759849 -3.521965 2.958056 0
M  V30 32 H 0.866598 -5.252701 2.511533 0
M  V30 33 H -0.023146 -4.752576 4.038096 0
M  V30 34 H 2.952972 -3.638059 5.713429 0
M  V30 35 H 1.460622 -2.888339 5.027295 0
M  V30 36 H 2.941254 -1.520617 4.030916 0
M  V30 37 H 4.346422 -2.686800 4.220964 0
M  V30 38 H 1.949216 -0.612705 2.552691 0
M  V30 39 H 1.299299 0.724386 0.669713 0
M  V30 40 H 1.897774 -0.109508 -2.834890 0
M  V30 41 H 1.171044 4.681550 -1.081420 0
M  V30 42 H -1.575491 5.577929 -1.143209 0
M  V30 43 H -3.810707 4.247033 -1.577463 0
M  V30 44 H -3.991230 1.618702 -3.075841 0
M  V30 45 H -5.580371 1.726065 -1.371892 0
M  V30 46 H -4.338813 1.691867 -0.035173 0
M  V30 47 H -5.811472 -0.507511 -0.707524 0
M  V30 48 H -3.673951 -1.835870 -0.095310 0
M  V30 49 H -3.946205 -0.442055 1.111999 0
M  V30 50 H -2.440022 0.868895 -0.011335 0
M  V30 51 H -1.636972 -0.753977 -0.418765 0
M  V30 52 H -2.108771 -0.093230 -2.715919 0
M  V30 53 H -3.960501 -1.773509 -2.151862 0
M  V30 54 H -4.690579 -0.322188 -3.061176 0
M  V30 55 H 2.877594 -2.089319 -1.999996 0
M  V30 56 H 3.577094 -3.505817 -0.167814 0
M  V30 57 H 4.819590 -4.338316 2.615506 0
M  V30 58 H 3.501875 -4.734598 1.395771 0
M  V30 59 H 3.879910 -5.732653 4.083071 0
M  V30 60 H 2.635055 -6.167985 2.863219 0
M  V30 END ATOM
M  V30 BEGIN BOND
M  V30 1 1 1 2
M  V30 2 1 2 3
M  V30 3 1 3 4
M  V30 4 1 4 5
M  V30 5 1 5 6
M  V30 6 2 6 7
M  V30 7 1 7 8
M  V30 8 2 8 9
M  V30 9 1 9 10
M  V30 10 1 10 11
M  V30 11 2 11 12
M  V30 12 1 12 13
M  V30 13 2 13 14
M  V30 14 1 14 15
M  V30 15 2 15 16
M  V30 16 1 16 17
M  V30 17 1 17 18
M  V30 18 1 18 19
M  V30 19 1 19 20
M  V30 20 1 20 21
M  V30 21 1 21 22
M  V30 22 1 22 23
M  V30 23 1 23 24
M  V30 24 1 17 25
M  V30 25 2 25 26
M  V30 26 1 9 27
M  V30 27 2 27 28
M  V30 28 1 5 29
M  V30 29 1 29 30
M  V30 30 1 30 2
M  V30 31 1 28 6
M  V30 32 1 26 11
M  V30 33 1 25 14
M  V30 34 1 23 18
M  V30 35 1 24 20
M  V30 36 1 1 31
M  V30 37 1 1 32
M  V30 38 1 1 33
M  V30 39 1 3 34
M  V30 40 1 3 35
M  V30 41 1 4 36
M  V30 42 1 4 37
M  V30 43 1 7 38
M  V30 44 1 8 39
M  V30 45 1 10 40
M  V30 46 1 13 41
M  V30 47 1 15 42
M  V30 48 1 16 43
M  V30 49 1 18 44
M  V30 50 1 19 45
M  V30 51 1 19 46
M  V30 52 1 20 47
M  V30 53 1 21 48
M  V30 54 1 21 49
M  V30 55 1 22 50
M  V30 56 1 22 51
M  V30 57 1 23 52
M  V30 58 1 24 53
M  V30 59 1 24 54
M  V30 60 1 27 55
M  V30 61 1 28 56
M  V30 62 1 29 57
M  V30 63 1 29 58
M  V30 64 1 30 59
M  V30 65 1 30 60
M  V30 END BOND
M  V30 END CTAB
M  END
>  <Dataset>  (884) 
ChEMBL_Kinases

>  <Ligand_Instance>  (884) 
nan

>  <PDB_ID>  (884) 
nan

>  <Standardized_SMILES>  (884) 
CN1CCN(c2ccc(Nc3ncc4ccn(C5CC6CCC5C6)c4n3)cc2)CC1

>  <Name>  (884) 
nan

>  <Pocket>  (884) 
nan

>  <ATP_Site>  (884) 
nan

>  <Peripheral>  (884) 
nan

>  <Num_H_Atoms_ProtBoundConf>  (884) 
nan

>  <Num_Resolved_Atoms>  (884) 
nan

>  <Num_Not_Resolved_Atoms>  (884) 
nan

$$$$
CHEMBL214613
     RDKit          3D

  0  0  0  0  0  0  0  0  0  0999 V3000
M  V30 BEGIN CTAB
M  V30 COUNTS 47 49 0 0 0
M  V30 BEGIN ATOM
M  V30 1 C 4.122961 -2.543298 -0.085794 0
M  V30 2 C 4.828821 -1.259645 0.301362 0
M  V30 3 C 6.234695 -1.255537 -0.211508 0
M  V30 4 O 6.275219 -1.424131 -1.594209 0
M  V30 5 N 4.036257 -0.177340 -0.295851 0
M  V30 6 C 3.084613 0.323997 0.406062 0
M  V30 7 N 2.734490 -0.075226 1.701928 0
M  V30 8 C 2.201092 1.391439 -0.012565 0
M  V30 9 C 2.426870 1.875491 -1.251244 0
M  V30 10 O 3.354708 1.577272 -2.274467 0
M  V30 11 N 1.723704 2.926901 -1.943382 0
M  V30 12 S 0.537641 3.258503 -0.547160 0
M  V30 13 C 1.146152 2.089382 0.512752 0
M  V30 14 N 0.699438 1.761301 1.844157 0
M  V30 15 C -0.304742 0.752380 1.882922 0
M  V30 16 C -0.778335 0.167734 0.720686 0
M  V30 17 C -1.762412 -0.825442 0.710677 0
M  V30 18 C -2.293116 -1.248047 1.931369 0
M  V30 19 O -3.262649 -2.236275 1.815890 0
M  V30 20 C -4.578873 -1.815490 1.683275 0
M  V30 21 C -4.915674 -0.477818 1.666183 0
M  V30 22 C -6.225898 -0.053717 1.534242 0
M  V30 23 C -7.259957 -0.971093 1.412966 0
M  V30 24 C -6.936648 -2.329428 1.428357 0
M  V30 25 F -7.948682 -3.233271 1.309582 0
M  V30 26 C -5.621280 -2.715875 1.561353 0
M  V30 27 F -5.304326 -4.039513 1.576547 0
M  V30 28 C -1.834409 -0.677750 3.100766 0
M  V30 29 C -0.862466 0.300708 3.083842 0
M  V30 30 H 4.487157 -3.407379 0.500981 0
M  V30 31 H 3.045445 -2.426646 0.232320 0
M  V30 32 H 4.148502 -2.712595 -1.169217 0
M  V30 33 H 4.845254 -1.200822 1.404406 0
M  V30 34 H 6.763407 -2.086258 0.294383 0
M  V30 35 H 6.749529 -0.329062 0.073070 0
M  V30 36 H 5.444187 -1.105663 -2.031830 0
M  V30 37 H 2.210991 -0.691752 2.335919 0
M  V30 38 H 3.261789 0.565222 2.355150 0
M  V30 39 H 3.270925 0.674488 -2.724280 0
M  V30 40 H 1.004988 2.154655 2.772442 0
M  V30 41 H -0.396682 0.461875 -0.263175 0
M  V30 42 H -2.088291 -1.241884 -0.242519 0
M  V30 43 H -4.128152 0.272929 1.759247 0
M  V30 44 H -6.476738 0.982184 1.522050 0
M  V30 45 H -8.272641 -0.611373 1.311417 0
M  V30 46 H -2.279579 -1.042506 4.013477 0
M  V30 47 H -0.517200 0.734102 4.009020 0
M  V30 END ATOM
M  V30 BEGIN BOND
M  V30 1 1 1 2
M  V30 2 1 2 3
M  V30 3 1 3 4
M  V30 4 1 2 5
M  V30 5 2 5 6
M  V30 6 1 6 7
M  V30 7 1 6 8
M  V30 8 1 8 9
M  V30 9 1 9 10
M  V30 10 2 9 11
M  V30 11 1 11 12
M  V30 12 1 12 13
M  V30 13 1 13 14
M  V30 14 1 14 15
M  V30 15 2 15 16
M  V30 16 1 16 17
M  V30 17 2 17 18
M  V30 18 1 18 19
M  V30 19 1 19 20
M  V30 20 2 20 21
M  V30 21 1 21 22
M  V30 22 2 22 23
M  V30 23 1 23 24
M  V30 24 1 24 25
M  V30 25 2 24 26
M  V30 26 1 26 27
M  V30 27 1 18 28
M  V30 28 2 28 29
M  V30 29 2 13 8
M  V30 30 1 29 15
M  V30 31 1 26 20
M  V30 32 1 1 30
M  V30 33 1 1 31
M  V30 34 1 1 32
M  V30 35 1 2 33
M  V30 36 1 3 34
M  V30 37 1 3 35
M  V30 38 1 4 36
M  V30 39 1 7 37
M  V30 40 1 7 38
M  V30 41 1 10 39
M  V30 42 1 14 40
M  V30 43 1 16 41
M  V30 44 1 17 42
M  V30 45 1 21 43
M  V30 46 1 22 44
M  V30 47 1 23 45
M  V30 48 1 28 46
M  V30 49 1 29 47
M  V30 END BOND
M  V30 END CTAB
M  END
>  <Dataset>  (885) 
ChEMBL_Kinases

>  <Ligand_Instance>  (885) 
nan

>  <PDB_ID>  (885) 
nan

>  <Standardized_SMILES>  (885) 
CC(CO)/N=C(\N)c1c(O)nsc1Nc1ccc(Oc2cccc(F)c2F)cc1

>  <Name>  (885) 
nan

>  <Pocket>  (885) 
nan

>  <ATP_Site>  (885) 
nan

>  <Peripheral>  (885) 
nan

>  <Num_H_Atoms_ProtBoundConf>  (885) 
nan

>  <Num_Resolved_Atoms>  (885) 
nan

>  <Num_Not_Resolved_Atoms>  (885) 
nan

$$$$
CHEMBL214614
     RDKit          3D

  0  0  0  0  0  0  0  0  0  0999 V3000
M  V30 BEGIN CTAB
M  V30 COUNTS 47 49 0 0 0
M  V30 BEGIN ATOM
M  V30 1 C 2.833618 -1.604198 -1.519503 0
M  V30 2 C 3.512334 -1.186556 -0.220634 0
M  V30 3 C 5.007722 -1.453980 -0.407425 0
M  V30 4 O 5.181113 -2.817672 -0.531230 0
M  V30 5 N 3.263184 0.230516 -0.089430 0
M  V30 6 C 2.653795 0.720916 0.928723 0
M  V30 7 N 2.318735 -0.327795 1.802146 0
M  V30 8 C 2.349328 2.121568 1.177285 0
M  V30 9 C 2.759737 2.984404 0.241959 0
M  V30 10 O 3.468533 2.841692 -0.980873 0
M  V30 11 N 2.569063 4.248377 0.276659 0
M  V30 12 S 1.634055 4.532481 1.867206 0
M  V30 13 C 1.706823 2.737386 2.171153 0
M  V30 14 N 1.221439 1.843768 3.257294 0
M  V30 15 C 0.096279 1.063735 2.874552 0
M  V30 16 C -0.546825 1.318226 1.694826 0
M  V30 17 C -1.604941 0.532127 1.311018 0
M  V30 18 C -2.112606 -0.529290 2.011234 0
M  V30 19 O -3.067959 -1.468077 1.943379 0
M  V30 20 C -3.976040 -1.756941 1.022660 0
M  V30 21 C -4.389533 -1.310912 -0.205122 0
M  V30 22 C -5.408575 -1.846027 -0.949021 0
M  V30 23 C -6.099608 -2.920770 -0.461202 0
M  V30 24 C -5.769252 -3.469950 0.789779 0
M  V30 25 Cl -6.744694 -4.832536 1.256606 0
M  V30 26 C -4.710696 -2.854844 1.481071 0
M  V30 27 Cl -4.512835 -3.732110 2.994053 0
M  V30 28 C -1.442017 -0.780570 3.227136 0
M  V30 29 Cl -1.743332 -2.032596 4.444258 0
M  V30 30 C -0.356036 -0.001771 3.657966 0
M  V30 31 H 1.858541 -1.041723 -1.556310 0
M  V30 32 H 2.680863 -2.684213 -1.573888 0
M  V30 33 H 3.480324 -1.285834 -2.348824 0
M  V30 34 H 3.153798 -1.802787 0.604127 0
M  V30 35 H 5.569243 -1.003520 0.438657 0
M  V30 36 H 5.272004 -0.983244 -1.372546 0
M  V30 37 H 4.319872 -3.301287 -0.557816 0
M  V30 38 H 1.638676 -1.136329 1.806786 0
M  V30 39 H 2.549309 -0.760770 2.740840 0
M  V30 40 H 2.877434 2.472390 -1.727032 0
M  V30 41 H 1.637562 1.769572 4.210471 0
M  V30 42 H -0.290415 2.117655 1.005015 0
M  V30 43 H -2.140846 0.690148 0.401142 0
M  V30 44 H -3.838532 -0.473528 -0.569755 0
M  V30 45 H -5.609433 -1.374482 -1.904108 0
M  V30 46 H -6.884336 -3.283113 -1.110796 0
M  V30 47 H 0.225214 -0.111808 4.569113 0
M  V30 END ATOM
M  V30 BEGIN BOND
M  V30 1 1 1 2
M  V30 2 1 2 3
M  V30 3 1 3 4
M  V30 4 1 2 5
M  V30 5 2 5 6
M  V30 6 1 6 7
M  V30 7 1 6 8
M  V30 8 1 8 9
M  V30 9 1 9 10
M  V30 10 2 9 11
M  V30 11 1 11 12
M  V30 12 1 12 13
M  V30 13 1 13 14
M  V30 14 1 14 15
M  V30 15 2 15 16
M  V30 16 1 16 17
M  V30 17 2 17 18
M  V30 18 1 18 19
M  V30 19 1 19 20
M  V30 20 2 20 21
M  V30 21 1 21 22
M  V30 22 2 22 23
M  V30 23 1 23 24
M  V30 24 1 24 25
M  V30 25 2 24 26
M  V30 26 1 26 27
M  V30 27 1 18 28
M  V30 28 1 28 29
M  V30 29 2 28 30
M  V30 30 2 13 8
M  V30 31 1 30 15
M  V30 32 1 26 20
M  V30 33 1 1 31
M  V30 34 1 1 32
M  V30 35 1 1 33
M  V30 36 1 2 34
M  V30 37 1 3 35
M  V30 38 1 3 36
M  V30 39 1 4 37
M  V30 40 1 7 38
M  V30 41 1 7 39
M  V30 42 1 10 40
M  V30 43 1 14 41
M  V30 44 1 16 42
M  V30 45 1 17 43
M  V30 46 1 21 44
M  V30 47 1 22 45
M  V30 48 1 23 46
M  V30 49 1 30 47
M  V30 END BOND
M  V30 END CTAB
M  END
>  <Dataset>  (886) 
ChEMBL_Kinases

>  <Ligand_Instance>  (886) 
nan

>  <PDB_ID>  (886) 
nan

>  <Standardized_SMILES>  (886) 
CC(CO)/N=C(\N)c1c(O)nsc1Nc1ccc(Oc2cccc(Cl)c2Cl)c(Cl)c1

>  <Name>  (886) 
nan

>  <Pocket>  (886) 
nan

>  <ATP_Site>  (886) 
nan

>  <Peripheral>  (886) 
nan

>  <Num_H_Atoms_ProtBoundConf>  (886) 
nan

>  <Num_Resolved_Atoms>  (886) 
nan

>  <Num_Not_Resolved_Atoms>  (886) 
nan

$$$$
CHEMBL214636
     RDKit          3D

  0  0  0  0  0  0  0  0  0  0999 V3000
M  V30 BEGIN CTAB
M  V30 COUNTS 59 62 0 0 0
M  V30 BEGIN ATOM
M  V30 1 N 0.840256 -0.433569 1.261456 0
M  V30 2 C 0.592839 0.796814 1.920393 0
M  V30 3 N 1.452238 1.169534 2.796224 0
M  V30 4 C 2.627679 0.448090 3.158360 0
M  V30 5 C 3.882309 1.126417 2.702531 0
M  V30 6 C 3.871255 1.258432 1.218302 0
M  V30 7 N 2.776149 2.048057 0.689201 0
M  V30 8 C 2.924257 3.433600 1.041451 0
M  V30 9 C 2.009347 4.307880 0.252544 0
M  V30 10 O 2.298888 4.161260 -1.117412 0
M  V30 11 C 1.980099 2.858680 -1.497571 0
M  V30 12 C 2.839969 1.877703 -0.748415 0
M  V30 13 C -0.610142 1.536670 1.573980 0
M  V30 14 C -0.850330 2.719413 2.235058 0
M  V30 15 O -0.128386 3.377664 3.215618 0
M  V30 16 N -1.975572 3.441592 1.939265 0
M  V30 17 S -2.819827 2.487816 0.663531 0
M  V30 18 C -1.544910 1.152313 0.634169 0
M  V30 19 N -1.473979 -0.008968 -0.143876 0
M  V30 20 C -1.915811 -1.333239 0.118738 0
M  V30 21 C -2.485534 -1.673694 1.308640 0
M  V30 22 C -2.884822 -3.004866 1.466710 0
M  V30 23 C -2.708366 -3.944827 0.450841 0
M  V30 24 O -3.108541 -5.263204 0.622707 0
M  V30 25 C -3.049829 -6.193746 -0.406013 0
M  V30 26 C -2.290072 -7.341806 -0.404495 0
M  V30 27 C -2.285211 -8.226080 -1.473309 0
M  V30 28 Cl -1.294814 -9.678900 -1.419716 0
M  V30 29 C -3.073896 -7.924688 -2.560607 0
M  V30 30 C -3.852994 -6.763299 -2.581744 0
M  V30 31 C -3.847712 -5.881412 -1.496512 0
M  V30 32 Cl -4.899840 -4.480872 -1.692583 0
M  V30 33 C -2.125873 -3.572300 -0.750955 0
M  V30 34 C -1.745055 -2.254971 -0.872321 0
M  V30 35 H 0.581670 -1.368257 1.643664 0
M  V30 36 H 0.512835 -1.283227 1.791790 0
M  V30 37 H 2.623281 -0.573896 2.719696 0
M  V30 38 H 2.701263 0.273633 4.264856 0
M  V30 39 H 4.794340 0.538085 2.960986 0
M  V30 40 H 4.034459 2.117190 3.199555 0
M  V30 41 H 3.714997 0.219330 0.802126 0
M  V30 42 H 4.851178 1.587775 0.804515 0
M  V30 43 H 3.967253 3.727818 0.801399 0
M  V30 44 H 2.689567 3.580462 2.117655 0
M  V30 45 H 0.934505 4.128956 0.451286 0
M  V30 46 H 2.257574 5.372136 0.479007 0
M  V30 47 H 2.224420 2.755847 -2.574889 0
M  V30 48 H 0.911837 2.628664 -1.362942 0
M  V30 49 H 3.907248 2.017977 -1.027227 0
M  V30 50 H 2.523058 0.845331 -1.020895 0
M  V30 51 H -0.315995 3.183748 4.193939 0
M  V30 52 H -1.004541 0.266004 -1.028191 0
M  V30 53 H -2.618074 -0.951818 2.082754 0
M  V30 54 H -3.342609 -3.338636 2.387874 0
M  V30 55 H -1.688402 -7.531388 0.473516 0
M  V30 56 H -3.036340 -8.642841 -3.368912 0
M  V30 57 H -4.448310 -6.589742 -3.467696 0
M  V30 58 H -1.947512 -4.243320 -1.591108 0
M  V30 59 H -1.282608 -1.956262 -1.827399 0
M  V30 END ATOM
M  V30 BEGIN BOND
M  V30 1 1 1 2
M  V30 2 2 2 3
M  V30 3 1 3 4
M  V30 4 1 4 5
M  V30 5 1 5 6
M  V30 6 1 6 7
M  V30 7 1 7 8
M  V30 8 1 8 9
M  V30 9 1 9 10
M  V30 10 1 10 11
M  V30 11 1 11 12
M  V30 12 1 2 13
M  V30 13 1 13 14
M  V30 14 1 14 15
M  V30 15 2 14 16
M  V30 16 1 16 17
M  V30 17 1 17 18
M  V30 18 1 18 19
M  V30 19 1 19 20
M  V30 20 2 20 21
M  V30 21 1 21 22
M  V30 22 2 22 23
M  V30 23 1 23 24
M  V30 24 1 24 25
M  V30 25 2 25 26
M  V30 26 1 26 27
M  V30 27 1 27 28
M  V30 28 2 27 29
M  V30 29 1 29 30
M  V30 30 2 30 31
M  V30 31 1 31 32
M  V30 32 1 23 33
M  V30 33 2 33 34
M  V30 34 1 12 7
M  V30 35 2 18 13
M  V30 36 1 34 20
M  V30 37 1 31 25
M  V30 38 1 1 35
M  V30 39 1 1 36
M  V30 40 1 4 37
M  V30 41 1 4 38
M  V30 42 1 5 39
M  V30 43 1 5 40
M  V30 44 1 6 41
M  V30 45 1 6 42
M  V30 46 1 8 43
M  V30 47 1 8 44
M  V30 48 1 9 45
M  V30 49 1 9 46
M  V30 50 1 11 47
M  V30 51 1 11 48
M  V30 52 1 12 49
M  V30 53 1 12 50
M  V30 54 1 15 51
M  V30 55 1 19 52
M  V30 56 1 21 53
M  V30 57 1 22 54
M  V30 58 1 26 55
M  V30 59 1 29 56
M  V30 60 1 30 57
M  V30 61 1 33 58
M  V30 62 1 34 59
M  V30 END BOND
M  V30 END CTAB
M  END
>  <Dataset>  (887) 
ChEMBL_Kinases

>  <Ligand_Instance>  (887) 
nan

>  <PDB_ID>  (887) 
nan

>  <Standardized_SMILES>  (887) 
N/C(=N\CCCN1CCOCC1)c1c(O)nsc1Nc1ccc(Oc2cc(Cl)ccc2Cl)cc1

>  <Name>  (887) 
nan

>  <Pocket>  (887) 
nan

>  <ATP_Site>  (887) 
nan

>  <Peripheral>  (887) 
nan

>  <Num_H_Atoms_ProtBoundConf>  (887) 
nan

>  <Num_Resolved_Atoms>  (887) 
nan

>  <Num_Not_Resolved_Atoms>  (887) 
nan

$$$$
CHEMBL214637
     RDKit          3D

  0  0  0  0  0  0  0  0  0  0999 V3000
M  V30 BEGIN CTAB
M  V30 COUNTS 70 73 0 0 0
M  V30 BEGIN ATOM
M  V30 1 C 3.577787 -6.757166 -1.245807 0
M  V30 2 C 3.386057 -5.300535 -0.868522 0
M  V30 3 C 3.804249 -4.393044 -2.028277 0
M  V30 4 N 3.610028 -3.046209 -1.646937 0
M  V30 5 C 4.422397 -2.494864 -0.639505 0
M  V30 6 C 5.864826 -2.290870 -0.951806 0
M  V30 7 O 6.506933 -3.463821 -1.268921 0
M  V30 8 C 3.071403 -2.185126 -2.635064 0
M  V30 9 C 2.907707 -0.751953 -2.137045 0
M  V30 10 C 2.324880 0.141037 -3.178829 0
M  V30 11 O 2.189021 1.443446 -2.715302 0
M  V30 12 C 1.452804 1.961135 -1.702941 0
M  V30 13 C 0.575797 1.484746 -0.764814 0
M  V30 14 C -0.061794 2.238613 0.189856 0
M  V30 15 C 0.211287 3.609966 0.199835 0
M  V30 16 C -0.424204 4.381654 1.151154 0
M  V30 17 N -1.288885 3.749221 2.043047 0
M  V30 18 C -2.602899 3.333124 2.237835 0
M  V30 19 C -3.260669 2.689466 3.263892 0
M  V30 20 C -4.541898 2.581944 2.768116 0
M  V30 21 C -5.609766 1.908838 3.586242 0
M  V30 22 C -5.617950 0.462789 3.334950 0
M  V30 23 O -4.673193 0.644821 2.534484 0
M  V30 24 N -6.151531 -0.789487 3.582023 0
M  V30 25 C -5.859621 -2.070009 3.094838 0
M  V30 26 C -6.654796 -3.029020 3.669885 0
M  V30 27 C -6.434959 -4.339708 3.243340 0
M  V30 28 C -5.491130 -4.705844 2.305371 0
M  V30 29 C -4.716283 -3.720929 1.753720 0
M  V30 30 F -3.780857 -4.028279 0.834626 0
M  V30 31 C -4.923127 -2.426809 2.165563 0
M  V30 32 F -4.132798 -1.504894 1.588241 0
M  V30 33 N -4.660162 3.116196 1.541550 0
M  V30 34 N -3.456058 3.582147 1.212921 0
M  V30 35 N -0.192946 5.715098 1.196193 0
M  V30 36 C 0.669434 6.277637 0.295625 0
M  V30 37 N 1.270056 5.497560 -0.615465 0
M  V30 38 C 1.078924 4.175342 -0.706204 0
M  V30 39 C 1.695182 3.344189 -1.653772 0
M  V30 40 H 4.185354 -6.876805 -2.157426 0
M  V30 41 H 2.583815 -7.230397 -1.383323 0
M  V30 42 H 4.094266 -7.341230 -0.453130 0
M  V30 43 H 2.334498 -5.105652 -0.583636 0
M  V30 44 H 4.004153 -5.144633 0.036954 0
M  V30 45 H 3.102790 -4.647841 -2.869685 0
M  V30 46 H 4.816632 -4.604919 -2.365512 0
M  V30 47 H 3.936668 -1.535001 -0.290432 0
M  V30 48 H 4.350322 -3.163443 0.259520 0
M  V30 49 H 6.057707 -1.510351 -1.703579 0
M  V30 50 H 6.332441 -1.888972 -0.006446 0
M  V30 51 H 7.222975 -3.254993 -1.933342 0
M  V30 52 H 2.077109 -2.606073 -2.952884 0
M  V30 53 H 3.650779 -2.106512 -3.560088 0
M  V30 54 H 2.295665 -0.812914 -1.246974 0
M  V30 55 H 3.946135 -0.395682 -1.954670 0
M  V30 56 H 1.264761 -0.212371 -3.389692 0
M  V30 57 H 2.873788 0.089427 -4.148455 0
M  V30 58 H 0.407358 0.425322 -0.846348 0
M  V30 59 H -0.723692 1.726445 0.860002 0
M  V30 60 H -0.663375 3.518587 2.860781 0
M  V30 61 H -2.757876 2.405351 4.171092 0
M  V30 62 H -6.580923 2.297600 3.179541 0
M  V30 63 H -5.519323 2.148327 4.654028 0
M  V30 64 H -6.882785 -0.535789 4.273565 0
M  V30 65 H -7.429911 -2.876518 4.415982 0
M  V30 66 H -7.042560 -5.117792 3.673849 0
M  V30 67 H -5.400834 -5.738799 2.048172 0
M  V30 68 H -5.564894 3.133807 0.987843 0
M  V30 69 H 0.877536 7.340137 0.301864 0
M  V30 70 H 2.349944 3.946958 -2.293163 0
M  V30 END ATOM
M  V30 BEGIN BOND
M  V30 1 1 1 2
M  V30 2 1 2 3
M  V30 3 1 3 4
M  V30 4 1 4 5
M  V30 5 1 5 6
M  V30 6 1 6 7
M  V30 7 1 4 8
M  V30 8 1 8 9
M  V30 9 1 9 10
M  V30 10 1 10 11
M  V30 11 1 11 12
M  V30 12 2 12 13
M  V30 13 1 13 14
M  V30 14 2 14 15
M  V30 15 1 15 16
M  V30 16 1 16 17
M  V30 17 1 17 18
M  V30 18 1 18 19
M  V30 19 2 19 20
M  V30 20 1 20 21
M  V30 21 1 21 22
M  V30 22 2 22 23
M  V30 23 1 22 24
M  V30 24 1 24 25
M  V30 25 2 25 26
M  V30 26 1 26 27
M  V30 27 2 27 28
M  V30 28 1 28 29
M  V30 29 1 29 30
M  V30 30 2 29 31
M  V30 31 1 31 32
M  V30 32 1 20 33
M  V30 33 1 33 34
M  V30 34 2 16 35
M  V30 35 1 35 36
M  V30 36 2 36 37
M  V30 37 1 37 38
M  V30 38 2 38 39
M  V30 39 1 39 12
M  V30 40 1 38 15
M  V30 41 2 34 18
M  V30 42 1 31 25
M  V30 43 1 1 40
M  V30 44 1 1 41
M  V30 45 1 1 42
M  V30 46 1 2 43
M  V30 47 1 2 44
M  V30 48 1 3 45
M  V30 49 1 3 46
M  V30 50 1 5 47
M  V30 51 1 5 48
M  V30 52 1 6 49
M  V30 53 1 6 50
M  V30 54 1 7 51
M  V30 55 1 8 52
M  V30 56 1 8 53
M  V30 57 1 9 54
M  V30 58 1 9 55
M  V30 59 1 10 56
M  V30 60 1 10 57
M  V30 61 1 13 58
M  V30 62 1 14 59
M  V30 63 1 17 60
M  V30 64 1 19 61
M  V30 65 1 21 62
M  V30 66 1 21 63
M  V30 67 1 24 64
M  V30 68 1 26 65
M  V30 69 1 27 66
M  V30 70 1 28 67
M  V30 71 1 33 68
M  V30 72 1 36 69
M  V30 73 1 39 70
M  V30 END BOND
M  V30 END CTAB
M  END
>  <Dataset>  (888) 
ChEMBL_Kinases

>  <Ligand_Instance>  (888) 
nan

>  <PDB_ID>  (888) 
nan

>  <Standardized_SMILES>  (888) 
CCCN(CCO)CCCOc1ccc2c(Nc3cc(CC(=O)Nc4cccc(F)c4F)[nH]n3)ncnc2c1

>  <Name>  (888) 
nan

>  <Pocket>  (888) 
nan

>  <ATP_Site>  (888) 
nan

>  <Peripheral>  (888) 
nan

>  <Num_H_Atoms_ProtBoundConf>  (888) 
nan

>  <Num_Resolved_Atoms>  (888) 
nan

>  <Num_Not_Resolved_Atoms>  (888) 
nan

$$$$
CHEMBL214648
     RDKit          3D

  0  0  0  0  0  0  0  0  0  0999 V3000
M  V30 BEGIN CTAB
M  V30 COUNTS 76 80 0 0 0
M  V30 BEGIN ATOM
M  V30 1 C 3.466313 -2.153931 0.962556 0
M  V30 2 O 2.440364 -1.841390 1.894914 0
M  V30 3 C 1.198271 -2.421842 1.823245 0
M  V30 4 C 0.850043 -3.328351 0.834243 0
M  V30 5 C -0.432441 -3.822459 0.900069 0
M  V30 6 C -0.726461 -4.703278 -0.107955 0
M  V30 7 N 0.042667 -5.201113 -1.178613 0
M  V30 8 C 0.112485 -4.325207 -2.296401 0
M  V30 9 C -0.332637 -3.026093 -2.441286 0
M  V30 10 C -0.095670 -2.528860 -3.702258 0
M  V30 11 C -0.353470 -1.216987 -4.317655 0
M  V30 12 C -1.789892 -0.989004 -4.654331 0
M  V30 13 O -2.295715 -2.057648 -4.247284 0
M  V30 14 N -2.102636 0.255581 -5.269798 0
M  V30 15 C -3.484581 0.483445 -5.579996 0
M  V30 16 C -4.026413 1.086259 -4.438932 0
M  V30 17 C -5.379056 1.447853 -4.406008 0
M  V30 18 C -6.188344 1.206304 -5.512568 0
M  V30 19 C -5.596366 0.608140 -6.609061 0
M  V30 20 O -6.342792 0.334417 -7.754246 0
M  V30 21 C -4.280029 0.250637 -6.656609 0
M  V30 22 N 0.511339 -3.579795 -4.318231 0
M  V30 23 N 0.636267 -4.614883 -3.521915 0
M  V30 24 N -1.985361 -5.237161 -0.124947 0
M  V30 25 C -2.898272 -4.915866 0.802842 0
M  V30 26 N -2.601428 -4.037049 1.805148 0
M  V30 27 C -1.383639 -3.493084 1.857071 0
M  V30 28 C -0.939708 -2.573274 2.810438 0
M  V30 29 C 0.329413 -2.030754 2.814236 0
M  V30 30 O 0.666305 -1.108701 3.828486 0
M  V30 31 C -0.350393 -0.839755 4.761112 0
M  V30 32 C 0.006382 0.135032 5.836715 0
M  V30 33 C 0.375016 1.487521 5.357370 0
M  V30 34 N 1.512831 1.580167 4.491212 0
M  V30 35 C 2.757183 1.290902 5.118046 0
M  V30 36 C 3.795180 1.017041 4.035678 0
M  V30 37 C 3.899624 2.157462 3.070620 0
M  V30 38 C 3.644071 1.749585 1.633000 0
M  V30 39 O 2.374091 1.213650 1.454231 0
M  V30 40 C 2.948961 3.240910 3.516883 0
M  V30 41 C 1.547602 2.764759 3.700885 0
M  V30 42 H 3.241879 -1.792351 -0.043578 0
M  V30 43 H 3.552988 -3.259348 0.917656 0
M  V30 44 H 4.429899 -1.750378 1.350797 0
M  V30 45 H 1.557545 -3.615851 0.066351 0
M  V30 46 H 0.545103 -6.110149 -1.232755 0
M  V30 47 H -0.822178 -2.444329 -1.652507 0
M  V30 48 H 0.209811 -1.139325 -5.276877 0
M  V30 49 H 0.001277 -0.415280 -3.638626 0
M  V30 50 H -1.336755 0.926219 -5.461076 0
M  V30 51 H -3.573664 1.362845 -3.480778 0
M  V30 52 H -5.898418 1.916446 -3.585406 0
M  V30 53 H -7.239705 1.465415 -5.531836 0
M  V30 54 H -7.325107 0.064537 -7.594840 0
M  V30 55 H -3.714338 -0.215181 -7.448554 0
M  V30 56 H 0.860267 -3.617167 -5.311196 0
M  V30 57 H -3.910329 -5.288018 0.872560 0
M  V30 58 H -1.713492 -2.350799 3.536240 0
M  V30 59 H -0.633183 -1.846140 5.182771 0
M  V30 60 H -1.297319 -0.507581 4.242336 0
M  V30 61 H 0.722881 -0.289754 6.580267 0
M  V30 62 H -0.936808 0.270716 6.445314 0
M  V30 63 H -0.502595 1.870659 4.763564 0
M  V30 64 H 0.506849 2.202891 6.194431 0
M  V30 65 H 2.705827 0.347515 5.705432 0
M  V30 66 H 3.075038 2.149201 5.730230 0
M  V30 67 H 4.799587 0.850550 4.486522 0
M  V30 68 H 3.547259 0.103386 3.463719 0
M  V30 69 H 4.930277 2.558827 3.096736 0
M  V30 70 H 3.764165 2.693517 1.023661 0
M  V30 71 H 4.373702 0.994704 1.288520 0
M  V30 72 H 2.397429 0.643952 0.639678 0
M  V30 73 H 3.368125 3.686428 4.445576 0
M  V30 74 H 3.014356 4.045689 2.726357 0
M  V30 75 H 1.010488 3.572888 4.287609 0
M  V30 76 H 0.992637 2.672254 2.728250 0
M  V30 END ATOM
M  V30 BEGIN BOND
M  V30 1 1 1 2
M  V30 2 1 2 3
M  V30 3 2 3 4
M  V30 4 1 4 5
M  V30 5 2 5 6
M  V30 6 1 6 7
M  V30 7 1 7 8
M  V30 8 1 8 9
M  V30 9 2 9 10
M  V30 10 1 10 11
M  V30 11 1 11 12
M  V30 12 2 12 13
M  V30 13 1 12 14
M  V30 14 1 14 15
M  V30 15 2 15 16
M  V30 16 1 16 17
M  V30 17 2 17 18
M  V30 18 1 18 19
M  V30 19 1 19 20
M  V30 20 2 19 21
M  V30 21 1 10 22
M  V30 22 1 22 23
M  V30 23 1 6 24
M  V30 24 2 24 25
M  V30 25 1 25 26
M  V30 26 2 26 27
M  V30 27 1 27 28
M  V30 28 2 28 29
M  V30 29 1 29 30
M  V30 30 1 30 31
M  V30 31 1 31 32
M  V30 32 1 32 33
M  V30 33 1 33 34
M  V30 34 1 34 35
M  V30 35 1 35 36
M  V30 36 1 36 37
M  V30 37 1 37 38
M  V30 38 1 38 39
M  V30 39 1 37 40
M  V30 40 1 40 41
M  V30 41 1 29 3
M  V30 42 1 41 34
M  V30 43 1 27 5
M  V30 44 2 23 8
M  V30 45 1 21 15
M  V30 46 1 1 42
M  V30 47 1 1 43
M  V30 48 1 1 44
M  V30 49 1 4 45
M  V30 50 1 7 46
M  V30 51 1 9 47
M  V30 52 1 11 48
M  V30 53 1 11 49
M  V30 54 1 14 50
M  V30 55 1 16 51
M  V30 56 1 17 52
M  V30 57 1 18 53
M  V30 58 1 20 54
M  V30 59 1 21 55
M  V30 60 1 22 56
M  V30 61 1 25 57
M  V30 62 1 28 58
M  V30 63 1 31 59
M  V30 64 1 31 60
M  V30 65 1 32 61
M  V30 66 1 32 62
M  V30 67 1 33 63
M  V30 68 1 33 64
M  V30 69 1 35 65
M  V30 70 1 35 66
M  V30 71 1 36 67
M  V30 72 1 36 68
M  V30 73 1 37 69
M  V30 74 1 38 70
M  V30 75 1 38 71
M  V30 76 1 39 72
M  V30 77 1 40 73
M  V30 78 1 40 74
M  V30 79 1 41 75
M  V30 80 1 41 76
M  V30 END BOND
M  V30 END CTAB
M  END
>  <Dataset>  (889) 
ChEMBL_Kinases

>  <Ligand_Instance>  (889) 
nan

>  <PDB_ID>  (889) 
nan

>  <Standardized_SMILES>  (889) 
COc1cc2c(Nc3cc(CC(=O)Nc4cccc(O)c4)[nH]n3)ncnc2cc1OCCCN1CCC(CO)CC1

>  <Name>  (889) 
nan

>  <Pocket>  (889) 
nan

>  <ATP_Site>  (889) 
nan

>  <Peripheral>  (889) 
nan

>  <Num_H_Atoms_ProtBoundConf>  (889) 
nan

>  <Num_Resolved_Atoms>  (889) 
nan

>  <Num_Not_Resolved_Atoms>  (889) 
nan

$$$$
CHEMBL2148106
     RDKit          3D

  0  0  0  0  0  0  0  0  0  0999 V3000
M  V30 BEGIN CTAB
M  V30 COUNTS 90 93 0 0 0
M  V30 BEGIN ATOM
M  V30 1 C 1.807379 -6.685036 2.098389 0
M  V30 2 O 1.615611 -5.309329 2.207571 0
M  V30 3 C 2.504764 -4.567714 1.436226 0 CFG=1
M  V30 4 C 1.726415 -3.680042 0.466543 0
M  V30 5 C 2.639273 -2.860509 -0.387960 0
M  V30 6 C 2.033592 -1.934382 -1.365109 0 CFG=2
M  V30 7 C 3.336324 -1.387593 -2.123001 0
M  V30 8 C 1.365560 -0.679487 -0.909772 0 CFG=1
M  V30 9 O 0.798701 0.045290 -1.950088 0
M  V30 10 C -0.564503 -0.101685 -2.121747 0 CFG=1
M  V30 11 C -1.127701 -1.207639 -1.305050 0
M  V30 12 C -0.832048 -0.963745 0.159061 0 CFG=2
M  V30 13 O -1.655624 -0.035061 0.770926 0
M  V30 14 C -2.410653 -0.314150 1.912543 0
M  V30 15 O -2.313718 -1.496264 2.391420 0
M  V30 16 C -3.337503 0.525106 2.706022 0
M  V30 17 C -3.415163 1.941166 2.180929 0 CFG=2
M  V30 18 C -4.394845 2.740739 3.004969 0 CFG=1
M  V30 19 C -4.417876 4.190271 2.646170 0
M  V30 20 O -5.697862 2.254865 2.800411 0
M  V30 21 O -3.635557 1.974104 0.809229 0
M  V30 22 C -2.701155 2.570569 -0.061445 0
M  V30 23 O -1.637672 3.106326 0.296475 0
M  V30 24 C -2.987481 2.567001 -1.503310 0
M  V30 25 C -2.336742 1.424897 -2.235073 0 CFG=2
M  V30 26 O -3.308048 0.487003 -2.426611 0
M  V30 27 O -1.175167 1.037745 -1.635822 0
M  V30 28 C -1.957558 1.981833 -3.583488 0 CFG=2
M  V30 29 C -3.165354 2.504857 -4.351807 0
M  V30 30 C -1.184326 0.986284 -4.336140 0
M  V30 31 C -0.778990 -0.278377 -3.616784 0
M  V30 32 C 0.526820 -0.639344 -4.313005 0
M  V30 33 C -1.731719 -1.366929 -3.990354 0
M  V30 34 C 0.615444 -0.599387 0.353255 0 CFG=2
M  V30 35 C 0.634271 0.868729 0.877570 0
M  V30 36 C 3.274860 -3.696193 2.337768 0
M  V30 37 C 2.505792 -3.054317 3.289279 0
M  V30 38 C 3.060570 -2.192999 4.225219 0
M  V30 39 C 4.435093 -1.977194 4.194233 0
M  V30 40 C 5.221136 -2.617912 3.240479 0
M  V30 41 O 6.597035 -2.448919 3.151793 0
M  V30 42 C 4.637647 -3.473607 2.317652 0
M  V30 43 H 1.094844 -7.269025 2.716428 0
M  V30 44 H 1.615088 -6.987716 1.045174 0
M  V30 45 H 2.836531 -6.962670 2.409943 0
M  V30 46 H 3.164571 -5.291423 0.910780 0
M  V30 47 H 1.199478 -4.473128 -0.193038 0
M  V30 48 H 0.926514 -3.243215 1.006632 0
M  V30 49 H 3.486563 -2.416693 0.193220 0
M  V30 50 H 3.202606 -3.650951 -0.988218 0
M  V30 51 H 1.509956 -2.524190 -2.112386 0
M  V30 52 H 3.083924 -1.152080 -3.146815 0
M  V30 53 H 3.698172 -0.560583 -1.489210 0
M  V30 54 H 4.102851 -2.179887 -2.113037 0
M  V30 55 H 2.268666 0.016274 -0.684277 0
M  V30 56 H -2.241429 -1.243221 -1.302079 0
M  V30 57 H -0.809550 -2.223288 -1.589311 0
M  V30 58 H -1.060737 -1.964844 0.649146 0
M  V30 59 H -3.075898 0.594880 3.778772 0
M  V30 60 H -4.342350 0.059163 2.649623 0
M  V30 61 H -2.421068 2.455345 2.341997 0
M  V30 62 H -4.204282 2.614241 4.086465 0
M  V30 63 H -5.355245 4.511647 2.125865 0
M  V30 64 H -3.533171 4.508835 2.051726 0
M  V30 65 H -4.390519 4.823975 3.576635 0
M  V30 66 H -6.192923 2.116881 3.645384 0
M  V30 67 H -4.090196 2.558939 -1.628826 0
M  V30 68 H -2.670613 3.560860 -1.909180 0
M  V30 69 H -4.226737 0.777929 -2.299073 0
M  V30 70 H -1.350472 2.904428 -3.338742 0
M  V30 71 H -4.059235 2.597855 -3.708412 0
M  V30 72 H -2.982175 3.522951 -4.759517 0
M  V30 73 H -3.403626 1.775845 -5.149910 0
M  V30 74 H -1.786457 0.698971 -5.233403 0
M  V30 75 H -0.313955 1.536951 -4.791835 0
M  V30 76 H 0.439383 -0.452621 -5.424909 0
M  V30 77 H 1.250126 0.119928 -3.976620 0
M  V30 78 H 0.813283 -1.678436 -4.234424 0
M  V30 79 H -1.294352 -2.144626 -4.689812 0
M  V30 80 H -2.146452 -1.962257 -3.182012 0
M  V30 81 H -2.573989 -0.965314 -4.633748 0
M  V30 82 H 0.972254 -1.140855 1.221329 0
M  V30 83 H -0.261127 1.041797 1.459552 0
M  V30 84 H 1.551404 0.923019 1.541064 0
M  V30 85 H 0.857543 1.539067 0.051067 0
M  V30 86 H 1.438460 -3.165007 3.383080 0
M  V30 87 H 2.472484 -1.676936 4.983819 0
M  V30 88 H 4.953522 -1.313110 4.896385 0
M  V30 89 H 6.896034 -1.650674 2.593612 0
M  V30 90 H 5.189534 -4.001084 1.553043 0
M  V30 END ATOM
M  V30 BEGIN BOND
M  V30 1 1 1 2
M  V30 2 1 2 3
M  V30 3 1 3 4
M  V30 4 1 4 5
M  V30 5 1 5 6
M  V30 6 1 6 7
M  V30 7 1 6 8
M  V30 8 1 8 9
M  V30 9 1 10 9 CFG=3
M  V30 10 1 10 11
M  V30 11 1 11 12
M  V30 12 1 12 13
M  V30 13 1 13 14
M  V30 14 2 14 15
M  V30 15 1 14 16
M  V30 16 1 16 17
M  V30 17 1 17 18
M  V30 18 1 18 19
M  V30 19 1 18 20
M  V30 20 1 17 21
M  V30 21 1 21 22
M  V30 22 2 22 23
M  V30 23 1 22 24
M  V30 24 1 24 25
M  V30 25 1 25 26 CFG=3
M  V30 26 1 25 27
M  V30 27 1 25 28
M  V30 28 1 28 29
M  V30 29 1 28 30
M  V30 30 1 30 31
M  V30 31 1 31 32
M  V30 32 1 31 33
M  V30 33 1 12 34
M  V30 34 1 34 35
M  V30 35 1 3 36
M  V30 36 2 36 37
M  V30 37 1 37 38
M  V30 38 2 38 39
M  V30 39 1 39 40
M  V30 40 1 40 41
M  V30 41 2 40 42
M  V30 42 1 34 8
M  V30 43 1 42 36
M  V30 44 1 27 10
M  V30 45 1 31 10
M  V30 46 1 1 43
M  V30 47 1 1 44
M  V30 48 1 1 45
M  V30 49 1 3 46 CFG=3
M  V30 50 1 4 47
M  V30 51 1 4 48
M  V30 52 1 5 49
M  V30 53 1 5 50
M  V30 54 1 6 51 CFG=3
M  V30 55 1 7 52
M  V30 56 1 7 53
M  V30 57 1 7 54
M  V30 58 1 8 55 CFG=1
M  V30 59 1 11 56
M  V30 60 1 11 57
M  V30 61 1 12 58 CFG=1
M  V30 62 1 16 59
M  V30 63 1 16 60
M  V30 64 1 17 61 CFG=3
M  V30 65 1 18 62 CFG=1
M  V30 66 1 19 63
M  V30 67 1 19 64
M  V30 68 1 19 65
M  V30 69 1 20 66
M  V30 70 1 24 67
M  V30 71 1 24 68
M  V30 72 1 26 69
M  V30 73 1 28 70 CFG=1
M  V30 74 1 29 71
M  V30 75 1 29 72
M  V30 76 1 29 73
M  V30 77 1 30 74
M  V30 78 1 30 75
M  V30 79 1 32 76
M  V30 80 1 32 77
M  V30 81 1 32 78
M  V30 82 1 33 79
M  V30 83 1 33 80
M  V30 84 1 33 81
M  V30 85 1 34 82 CFG=1
M  V30 86 1 35 83
M  V30 87 1 35 84
M  V30 88 1 35 85
M  V30 89 1 37 86
M  V30 90 1 38 87
M  V30 91 1 39 88
M  V30 92 1 41 89
M  V30 93 1 42 90
M  V30 END BOND
M  V30 END CTAB
M  END
>  <Dataset>  (890) 
ChEMBL_Kinases

>  <Ligand_Instance>  (890) 
nan

>  <PDB_ID>  (890) 
nan

>  <Standardized_SMILES>  (890) 
CO[C@@H](CC[C@H](C)[C@H]1O[C@@]23C[C@H](OC(=O)C[C@H]([C@@H](C)O)OC(=O)C[C@](O)(O2)[C@H](C)CC3(C)C)[C@@H]1C)c1cccc(O)c1

>  <Name>  (890) 
DEBROMOAPLYSIATOXIN

>  <Pocket>  (890) 
nan

>  <ATP_Site>  (890) 
nan

>  <Peripheral>  (890) 
nan

>  <Num_H_Atoms_ProtBoundConf>  (890) 
nan

>  <Num_Resolved_Atoms>  (890) 
nan

>  <Num_Not_Resolved_Atoms>  (890) 
nan

$$$$
CHEMBL2146888
     RDKit          3D

  0  0  0  0  0  0  0  0  0  0999 V3000
M  V30 BEGIN CTAB
M  V30 COUNTS 41 43 0 0 0
M  V30 BEGIN ATOM
M  V30 1 N -0.696399 -2.359444 -0.045033 0
M  V30 2 C -0.504257 -3.392119 -1.044096 0
M  V30 3 C 0.844534 -3.340896 -1.694226 0
M  V30 4 O 1.117304 -4.282850 -2.655710 0
M  V30 5 C 1.255097 -1.951446 -2.183240 0
M  V30 6 N 1.511852 -1.631248 -0.791870 0
M  V30 7 C 1.511766 -0.655540 0.247063 0
M  V30 8 O 1.865186 -0.936925 1.426636 0
M  V30 9 C 1.123170 0.737945 0.103606 0
M  V30 10 C 0.722751 1.355338 -1.057072 0
M  V30 11 C 0.361116 2.676963 -1.184509 0
M  V30 12 C 0.391151 3.483905 -0.069849 0
M  V30 13 F 0.050805 4.774258 -0.133681 0
M  V30 14 C 0.780875 2.927037 1.112152 0
M  V30 15 F 0.810569 3.720276 2.208376 0
M  V30 16 C 1.140618 1.575688 1.195126 0
M  V30 17 N 1.524291 1.131935 2.486156 0
M  V30 18 C 0.467817 0.637144 3.285918 0
M  V30 19 C -0.845535 0.597891 2.819296 0
M  V30 20 C -1.908442 0.117950 3.578756 0
M  V30 21 C -1.635585 -0.338295 4.853970 0
M  V30 22 I -3.238669 -1.067491 6.012990 0
M  V30 23 C -0.354115 -0.328411 5.381354 0
M  V30 24 C 0.635933 0.160494 4.567739 0
M  V30 25 F 1.898128 0.170700 5.085999 0
M  V30 26 C 1.924966 -3.046571 -0.686436 0
M  V30 27 H -0.431796 -2.705233 0.903445 0
M  V30 28 H -1.657399 -1.990268 -0.002549 0
M  V30 29 H -1.340732 -3.291743 -1.763076 0
M  V30 30 H -0.608396 -4.364989 -0.526286 0
M  V30 31 H 0.290326 -4.809021 -2.811822 0
M  V30 32 H 2.236840 -2.038681 -2.696423 0
M  V30 33 H 0.482682 -1.410588 -2.712289 0
M  V30 34 H 0.677863 0.793984 -1.963838 0
M  V30 35 H 0.056372 3.106008 -2.116411 0
M  V30 36 H 2.478017 1.126752 2.910379 0
M  V30 37 H -1.083330 0.947055 1.830886 0
M  V30 38 H -2.902410 0.113120 3.162505 0
M  V30 39 H -0.135920 -0.679760 6.366840 0
M  V30 40 H 2.933205 -3.142058 -1.145799 0
M  V30 41 H 1.802585 -3.486917 0.300105 0
M  V30 END ATOM
M  V30 BEGIN BOND
M  V30 1 1 1 2
M  V30 2 1 2 3
M  V30 3 1 3 4
M  V30 4 1 3 5
M  V30 5 1 5 6
M  V30 6 1 6 7
M  V30 7 2 7 8
M  V30 8 1 7 9
M  V30 9 2 9 10
M  V30 10 1 10 11
M  V30 11 2 11 12
M  V30 12 1 12 13
M  V30 13 1 12 14
M  V30 14 1 14 15
M  V30 15 2 14 16
M  V30 16 1 16 17
M  V30 17 1 17 18
M  V30 18 2 18 19
M  V30 19 1 19 20
M  V30 20 2 20 21
M  V30 21 1 21 22
M  V30 22 1 21 23
M  V30 23 2 23 24
M  V30 24 1 24 25
M  V30 25 1 6 26
M  V30 26 1 26 3
M  V30 27 1 16 9
M  V30 28 1 24 18
M  V30 29 1 1 27
M  V30 30 1 1 28
M  V30 31 1 2 29
M  V30 32 1 2 30
M  V30 33 1 4 31
M  V30 34 1 5 32
M  V30 35 1 5 33
M  V30 36 1 10 34
M  V30 37 1 11 35
M  V30 38 1 17 36
M  V30 39 1 19 37
M  V30 40 1 20 38
M  V30 41 1 23 39
M  V30 42 1 26 40
M  V30 43 1 26 41
M  V30 END BOND
M  V30 END CTAB
M  END
>  <Dataset>  (891) 
ChEMBL_Kinases

>  <Ligand_Instance>  (891) 
nan

>  <PDB_ID>  (891) 
nan

>  <Standardized_SMILES>  (891) 
NCC1(O)CN(C(=O)c2ccc(F)c(F)c2Nc2ccc(I)cc2F)C1

>  <Name>  (891) 
nan

>  <Pocket>  (891) 
nan

>  <ATP_Site>  (891) 
nan

>  <Peripheral>  (891) 
nan

>  <Num_H_Atoms_ProtBoundConf>  (891) 
nan

>  <Num_Resolved_Atoms>  (891) 
nan

>  <Num_Not_Resolved_Atoms>  (891) 
nan

$$$$
CHEMBL214734
     RDKit          3D

  0  0  0  0  0  0  0  0  0  0999 V3000
M  V30 BEGIN CTAB
M  V30 COUNTS 47 49 0 0 0
M  V30 BEGIN ATOM
M  V30 1 C 0.452490 -1.122483 -2.736112 0
M  V30 2 C 1.091498 -1.400936 -1.415824 0
M  V30 3 C 2.239568 -2.383664 -1.688469 0
M  V30 4 O 3.212230 -1.792948 -2.473839 0
M  V30 5 N 1.632223 -0.265478 -0.735781 0
M  V30 6 C 1.891009 0.834724 -1.339131 0
M  V30 7 N 1.681569 1.068050 -2.722255 0
M  V30 8 C 2.424511 1.765756 -0.365978 0
M  V30 9 C 2.753967 2.997147 -0.851917 0
M  V30 10 O 2.682610 3.576731 -2.142616 0
M  V30 11 N 3.296131 4.135468 -0.187718 0
M  V30 12 S 3.367973 3.323558 1.485596 0
M  V30 13 C 2.708470 1.778794 0.941791 0
M  V30 14 N 2.468589 0.617155 1.741017 0
M  V30 15 C 1.345134 0.239192 2.490284 0
M  V30 16 C 1.327080 -0.973835 3.185150 0
M  V30 17 C 0.182275 -1.259579 3.896569 0
M  V30 18 C -0.910670 -0.411830 3.941931 0
M  V30 19 O -1.945062 -0.921579 4.727209 0
M  V30 20 C -2.894835 -1.708822 4.071052 0
M  V30 21 C -3.937052 -0.912657 3.596371 0
M  V30 22 C -4.996747 -1.485516 2.909350 0
M  V30 23 Cl -6.335018 -0.508390 2.291506 0
M  V30 24 C -4.954828 -2.846950 2.731753 0
M  V30 25 C -3.940070 -3.656265 3.188642 0
M  V30 26 Cl -3.880511 -5.388718 2.965536 0
M  V30 27 C -2.889207 -3.073295 3.872367 0
M  V30 28 C -0.891492 0.784138 3.256059 0
M  V30 29 C 0.250463 1.076031 2.542630 0
M  V30 30 H -0.164229 -2.040987 -2.973758 0
M  V30 31 H -0.271830 -0.297467 -2.749036 0
M  V30 32 H 1.191499 -1.090303 -3.575813 0
M  V30 33 H 0.334460 -1.946976 -0.782226 0
M  V30 34 H 1.835160 -3.255949 -2.276051 0
M  V30 35 H 2.605066 -2.785172 -0.739339 0
M  V30 36 H 4.126821 -1.912291 -2.103378 0
M  V30 37 H 0.925176 1.764425 -2.595650 0
M  V30 38 H 1.017875 1.697658 -3.243147 0
M  V30 39 H 3.188536 3.023558 -2.849788 0
M  V30 40 H 3.315949 -0.015638 1.718413 0
M  V30 41 H 2.190637 -1.623568 3.138449 0
M  V30 42 H 0.244521 -2.227715 4.413270 0
M  V30 43 H -4.024231 0.167898 3.706780 0
M  V30 44 H -5.755890 -3.337646 2.203429 0
M  V30 45 H -2.028283 -3.565027 4.289007 0
M  V30 46 H -1.784986 1.378617 3.349256 0
M  V30 47 H 0.211538 2.038516 2.016004 0
M  V30 END ATOM
M  V30 BEGIN BOND
M  V30 1 1 1 2
M  V30 2 1 2 3
M  V30 3 1 3 4
M  V30 4 1 2 5
M  V30 5 2 5 6
M  V30 6 1 6 7
M  V30 7 1 6 8
M  V30 8 1 8 9
M  V30 9 1 9 10
M  V30 10 2 9 11
M  V30 11 1 11 12
M  V30 12 1 12 13
M  V30 13 1 13 14
M  V30 14 1 14 15
M  V30 15 2 15 16
M  V30 16 1 16 17
M  V30 17 2 17 18
M  V30 18 1 18 19
M  V30 19 1 19 20
M  V30 20 2 20 21
M  V30 21 1 21 22
M  V30 22 1 22 23
M  V30 23 2 22 24
M  V30 24 1 24 25
M  V30 25 1 25 26
M  V30 26 2 25 27
M  V30 27 1 18 28
M  V30 28 2 28 29
M  V30 29 2 13 8
M  V30 30 1 29 15
M  V30 31 1 27 20
M  V30 32 1 1 30
M  V30 33 1 1 31
M  V30 34 1 1 32
M  V30 35 1 2 33
M  V30 36 1 3 34
M  V30 37 1 3 35
M  V30 38 1 4 36
M  V30 39 1 7 37
M  V30 40 1 7 38
M  V30 41 1 10 39
M  V30 42 1 14 40
M  V30 43 1 16 41
M  V30 44 1 17 42
M  V30 45 1 21 43
M  V30 46 1 24 44
M  V30 47 1 27 45
M  V30 48 1 28 46
M  V30 49 1 29 47
M  V30 END BOND
M  V30 END CTAB
M  END
>  <Dataset>  (892) 
ChEMBL_Kinases

>  <Ligand_Instance>  (892) 
nan

>  <PDB_ID>  (892) 
nan

>  <Standardized_SMILES>  (892) 
CC(CO)/N=C(\N)c1c(O)nsc1Nc1ccc(Oc2cc(Cl)cc(Cl)c2)cc1

>  <Name>  (892) 
nan

>  <Pocket>  (892) 
nan

>  <ATP_Site>  (892) 
nan

>  <Peripheral>  (892) 
nan

>  <Num_H_Atoms_ProtBoundConf>  (892) 
nan

>  <Num_Resolved_Atoms>  (892) 
nan

>  <Num_Not_Resolved_Atoms>  (892) 
nan

$$$$
CHEMBL214752
     RDKit          3D

  0  0  0  0  0  0  0  0  0  0999 V3000
M  V30 BEGIN CTAB
M  V30 COUNTS 47 49 0 0 0
M  V30 BEGIN ATOM
M  V30 1 C 1.819885 -0.941757 -1.803518 0
M  V30 2 C 3.211099 -0.515002 -1.389885 0
M  V30 3 C 4.088901 -0.327070 -2.588015 0
M  V30 4 O 4.209617 -1.553490 -3.222829 0
M  V30 5 N 3.035082 0.752582 -0.659487 0
M  V30 6 C 2.582450 0.698260 0.541314 0
M  V30 7 N 2.271825 -0.549282 1.117927 0
M  V30 8 C 2.355995 1.857416 1.385377 0
M  V30 9 C 2.650914 3.058584 0.842153 0
M  V30 10 O 3.140802 3.483274 -0.382138 0
M  V30 11 N 2.449094 4.245983 1.625828 0
M  V30 12 S 1.813132 3.585507 3.192832 0
M  V30 13 C 1.874330 1.906135 2.684755 0
M  V30 14 N 1.506861 0.729176 3.427170 0
M  V30 15 C 0.145004 0.261552 3.334703 0
M  V30 16 C -0.301791 -0.856809 4.010394 0
M  V30 17 C -1.604066 -1.304329 3.922223 0
M  V30 18 C -2.495624 -0.614284 3.132798 0
M  V30 19 O -3.847642 -0.972083 2.963074 0
M  V30 20 C -4.135668 -1.852818 1.901784 0
M  V30 21 C -3.088276 -2.296180 1.114942 0
M  V30 22 C -3.378773 -3.167817 0.065773 0
M  V30 23 C -4.658952 -3.575002 -0.181900 0
M  V30 24 F -4.921042 -4.424530 -1.209037 0
M  V30 25 C -5.655095 -3.106061 0.626681 0
M  V30 26 C -5.446141 -2.238343 1.688125 0
M  V30 27 F -6.447929 -1.783621 2.479665 0
M  V30 28 C -2.082737 0.511509 2.440858 0
M  V30 29 C -0.775871 0.942524 2.542564 0
M  V30 30 H 1.270184 -1.389088 -0.950305 0
M  V30 31 H 1.831305 -1.675500 -2.621863 0
M  V30 32 H 1.200030 -0.081643 -2.135100 0
M  V30 33 H 3.675634 -1.275189 -0.753452 0
M  V30 34 H 3.613137 0.393797 -3.312844 0
M  V30 35 H 5.072415 0.031231 -2.258724 0
M  V30 36 H 3.457407 -1.729814 -3.854393 0
M  V30 37 H 3.158155 -1.066706 1.330891 0
M  V30 38 H 2.691650 -1.425853 1.506535 0
M  V30 39 H 4.125857 3.721667 -0.537274 0
M  V30 40 H 2.140378 0.169233 4.038058 0
M  V30 41 H 0.423847 -1.393744 4.634836 0
M  V30 42 H -1.964133 -2.174559 4.444013 0
M  V30 43 H -2.055568 -2.001121 1.272252 0
M  V30 44 H -2.548019 -3.512139 -0.548927 0
M  V30 45 H -6.688505 -3.419027 0.446836 0
M  V30 46 H -2.726684 1.111724 1.796161 0
M  V30 47 H -0.402387 1.818439 2.020765 0
M  V30 END ATOM
M  V30 BEGIN BOND
M  V30 1 1 1 2
M  V30 2 1 2 3
M  V30 3 1 3 4
M  V30 4 1 2 5
M  V30 5 2 5 6
M  V30 6 1 6 7
M  V30 7 1 6 8
M  V30 8 1 8 9
M  V30 9 1 9 10
M  V30 10 2 9 11
M  V30 11 1 11 12
M  V30 12 1 12 13
M  V30 13 1 13 14
M  V30 14 1 14 15
M  V30 15 2 15 16
M  V30 16 1 16 17
M  V30 17 2 17 18
M  V30 18 1 18 19
M  V30 19 1 19 20
M  V30 20 2 20 21
M  V30 21 1 21 22
M  V30 22 2 22 23
M  V30 23 1 23 24
M  V30 24 1 23 25
M  V30 25 2 25 26
M  V30 26 1 26 27
M  V30 27 1 18 28
M  V30 28 2 28 29
M  V30 29 2 13 8
M  V30 30 1 29 15
M  V30 31 1 26 20
M  V30 32 1 1 30
M  V30 33 1 1 31
M  V30 34 1 1 32
M  V30 35 1 2 33
M  V30 36 1 3 34
M  V30 37 1 3 35
M  V30 38 1 4 36
M  V30 39 1 7 37
M  V30 40 1 7 38
M  V30 41 1 10 39
M  V30 42 1 14 40
M  V30 43 1 16 41
M  V30 44 1 17 42
M  V30 45 1 21 43
M  V30 46 1 22 44
M  V30 47 1 25 45
M  V30 48 1 28 46
M  V30 49 1 29 47
M  V30 END BOND
M  V30 END CTAB
M  END
>  <Dataset>  (893) 
ChEMBL_Kinases

>  <Ligand_Instance>  (893) 
nan

>  <PDB_ID>  (893) 
nan

>  <Standardized_SMILES>  (893) 
CC(CO)/N=C(\N)c1c(O)nsc1Nc1ccc(Oc2ccc(F)cc2F)cc1

>  <Name>  (893) 
nan

>  <Pocket>  (893) 
nan

>  <ATP_Site>  (893) 
nan

>  <Peripheral>  (893) 
nan

>  <Num_H_Atoms_ProtBoundConf>  (893) 
nan

>  <Num_Resolved_Atoms>  (893) 
nan

>  <Num_Not_Resolved_Atoms>  (893) 
nan

$$$$
CHEMBL2147549
     RDKit          3D

  0  0  0  0  0  0  0  0  0  0999 V3000
M  V30 BEGIN CTAB
M  V30 COUNTS 52 54 0 0 0
M  V30 BEGIN ATOM
M  V30 1 C 2.799102 -4.409712 5.986578 0
M  V30 2 C 1.922911 -3.833572 4.889733 0
M  V30 3 C 0.558030 -4.465844 5.016421 0
M  V30 4 N 2.544837 -4.131219 3.612911 0
M  V30 5 C 1.656295 -3.555431 2.656360 0
M  V30 6 C 1.781143 -2.264517 2.214393 0
M  V30 7 C 0.881143 -1.782505 1.288060 0
M  V30 8 C 0.915132 -0.426290 0.745585 0
M  V30 9 C 1.869949 0.491277 1.127971 0
M  V30 10 C 1.876937 1.765985 0.598058 0
M  V30 11 C 2.811266 2.726524 0.945902 0
M  V30 12 N 2.776602 3.965034 0.397688 0
M  V30 13 C 1.825559 4.290079 -0.503712 0
M  V30 14 C 0.892740 3.335198 -0.852720 0
M  V30 15 C 0.891094 2.063803 -0.319889 0
M  V30 16 C -0.069185 1.157432 -0.711372 0
M  V30 17 N -1.091195 1.450862 -1.656495 0
M  V30 18 C -2.060334 0.426602 -2.005627 0
M  V30 19 C -3.081984 0.855922 -3.007264 0
M  V30 20 C -3.907128 2.021664 -2.549834 0
M  V30 21 C -4.011703 -0.357291 -3.167973 0
M  V30 22 N -2.520263 1.049768 -4.330459 0
M  V30 23 N -0.009755 -0.051090 -0.155850 0
M  V30 24 C -0.094412 -2.666637 0.874939 0
M  V30 25 C -0.214285 -3.966222 1.324545 0
M  V30 26 N 0.695944 -4.399501 2.238636 0
M  V30 27 H 2.570452 -5.499610 6.094104 0
M  V30 28 H 3.865270 -4.300008 5.712504 0
M  V30 29 H 2.606754 -3.948865 6.959784 0
M  V30 30 H 1.845854 -2.732826 5.062825 0
M  V30 31 H 0.477079 -5.421007 4.478754 0
M  V30 32 H 0.268653 -4.600516 6.068447 0
M  V30 33 H -0.214970 -3.790196 4.550142 0
M  V30 34 H 3.441170 -4.648296 3.400145 0
M  V30 35 H 2.558295 -1.634520 2.574719 0
M  V30 36 H 2.628651 0.254613 1.837560 0
M  V30 37 H 3.541461 2.378968 1.679150 0
M  V30 38 H 1.828942 5.290010 -0.921092 0
M  V30 39 H 0.154933 3.647542 -1.577292 0
M  V30 40 H -1.246471 2.339946 -2.154802 0
M  V30 41 H -2.501373 0.034437 -1.073526 0
M  V30 42 H -1.464440 -0.397392 -2.472468 0
M  V30 43 H -3.799738 2.105644 -1.458833 0
M  V30 44 H -4.955442 1.875400 -2.835466 0
M  V30 45 H -3.519620 2.965140 -2.980618 0
M  V30 46 H -3.325703 -1.191950 -3.479681 0
M  V30 47 H -4.773584 -0.195301 -3.935182 0
M  V30 48 H -4.364432 -0.629191 -2.172321 0
M  V30 49 H -2.364985 0.136161 -4.777480 0
M  V30 50 H -1.677814 1.663418 -4.317108 0
M  V30 51 H -0.821882 -2.299967 0.135812 0
M  V30 52 H -1.031162 -4.588494 0.929023 0
M  V30 END ATOM
M  V30 BEGIN BOND
M  V30 1 1 1 2
M  V30 2 1 2 3
M  V30 3 1 2 4
M  V30 4 1 4 5
M  V30 5 2 5 6
M  V30 6 1 6 7
M  V30 7 1 7 8
M  V30 8 2 8 9
M  V30 9 1 9 10
M  V30 10 2 10 11
M  V30 11 1 11 12
M  V30 12 2 12 13
M  V30 13 1 13 14
M  V30 14 2 14 15
M  V30 15 1 15 16
M  V30 16 1 16 17
M  V30 17 1 17 18
M  V30 18 1 18 19
M  V30 19 1 19 20
M  V30 20 1 19 21
M  V30 21 1 19 22
M  V30 22 2 16 23
M  V30 23 2 7 24
M  V30 24 1 24 25
M  V30 25 2 25 26
M  V30 26 1 26 5
M  V30 27 1 23 8
M  V30 28 1 15 10
M  V30 29 1 1 27
M  V30 30 1 1 28
M  V30 31 1 1 29
M  V30 32 1 2 30
M  V30 33 1 3 31
M  V30 34 1 3 32
M  V30 35 1 3 33
M  V30 36 1 4 34
M  V30 37 1 6 35
M  V30 38 1 9 36
M  V30 39 1 11 37
M  V30 40 1 13 38
M  V30 41 1 14 39
M  V30 42 1 17 40
M  V30 43 1 18 41
M  V30 44 1 18 42
M  V30 45 1 20 43
M  V30 46 1 20 44
M  V30 47 1 20 45
M  V30 48 1 21 46
M  V30 49 1 21 47
M  V30 50 1 21 48
M  V30 51 1 22 49
M  V30 52 1 22 50
M  V30 53 1 24 51
M  V30 54 1 25 52
M  V30 END BOND
M  V30 END CTAB
M  END
>  <Dataset>  (894) 
ChEMBL_Kinases

>  <Ligand_Instance>  (894) 
nan

>  <PDB_ID>  (894) 
nan

>  <Standardized_SMILES>  (894) 
CC(C)Nc1cc(-c2cc3cnccc3c(NCC(C)(C)N)n2)ccn1

>  <Name>  (894) 
nan

>  <Pocket>  (894) 
nan

>  <ATP_Site>  (894) 
nan

>  <Peripheral>  (894) 
nan

>  <Num_H_Atoms_ProtBoundConf>  (894) 
nan

>  <Num_Resolved_Atoms>  (894) 
nan

>  <Num_Not_Resolved_Atoms>  (894) 
nan

$$$$
CHEMBL214755
     RDKit          3D

  0  0  0  0  0  0  0  0  0  0999 V3000
M  V30 BEGIN CTAB
M  V30 COUNTS 88 92 0 0 0
M  V30 BEGIN ATOM
M  V30 1 C -1.182208 -3.283797 9.049477 0
M  V30 2 C -0.541173 -2.023485 8.530651 0
M  V30 3 C 0.964088 -2.019152 8.748893 0
M  V30 4 N 1.561781 -0.863492 8.270536 0
M  V30 5 C 2.155108 0.092920 9.087674 0
M  V30 6 C 1.335990 1.292957 9.448967 0
M  V30 7 C 0.822189 2.137644 8.348003 0
M  V30 8 S 2.197875 -0.939215 6.705908 0
M  V30 9 O 3.315615 -1.978395 6.622944 0
M  V30 10 O 2.908091 0.372762 6.413676 0
M  V30 11 C 0.986326 -1.267063 5.494916 0
M  V30 12 N 0.567753 -2.506046 5.111129 0
M  V30 13 C -0.374937 -2.645119 4.155451 0
M  V30 14 C -0.968808 -1.575537 3.512210 0
M  V30 15 C -1.998980 -1.677660 2.479218 0
M  V30 16 O -2.194258 -0.585197 1.829145 0
M  V30 17 N -2.699927 -2.928261 2.260439 0
M  V30 18 C -3.600845 -2.678912 1.165523 0
M  V30 19 N -4.876119 -2.224382 0.982969 0
M  V30 20 C -5.336135 -2.093731 -0.301889 0
M  V30 21 C -4.589066 -2.395246 -1.452232 0
M  V30 22 N -5.134567 -2.185947 -2.747923 0
M  V30 23 C -4.259803 -2.599203 -3.793841 0
M  V30 24 N -4.493055 -3.762037 -4.463871 0
M  V30 25 C -3.623040 -4.133630 -5.419378 0
M  V30 26 N -2.505418 -3.439634 -5.786375 0
M  V30 27 C -2.324968 -2.300798 -5.091863 0
M  V30 28 C -1.192119 -1.514382 -5.366654 0
M  V30 29 C -0.878179 -0.331085 -4.711917 0
M  V30 30 O 0.190956 0.473941 -4.914155 0
M  V30 31 C 1.252310 0.377848 -5.802461 0
M  V30 32 C 0.928164 0.452852 -7.250978 0
M  V30 33 C 2.199877 0.283576 -8.102720 0
M  V30 34 N 3.211502 1.211579 -7.859356 0
M  V30 35 C 3.090596 2.557391 -8.185310 0
M  V30 36 C 4.249214 3.424517 -7.742512 0
M  V30 37 O 4.764298 2.944300 -6.529750 0
M  V30 38 C 5.361530 1.703227 -6.732740 0
M  V30 39 C 4.342553 0.714561 -7.179048 0
M  V30 40 C -1.749993 0.112501 -3.709964 0
M  V30 41 O -1.519683 1.280532 -3.004343 0
M  V30 42 C -2.441854 1.652071 -2.001374 0
M  V30 43 C -2.874264 -0.644966 -3.419773 0
M  V30 44 C -3.134733 -1.806380 -4.095523 0
M  V30 45 C -3.316986 -2.851794 -1.200063 0
M  V30 46 N -2.891107 -2.969040 0.069827 0
M  V30 47 C -0.499248 -0.317105 3.947145 0
M  V30 48 N 0.434877 -0.218989 4.896550 0
M  V30 49 H -2.096727 -2.986653 9.631037 0
M  V30 50 H -1.526875 -3.876601 8.178577 0
M  V30 51 H -0.492473 -3.869339 9.687987 0
M  V30 52 H -0.991995 -1.122665 9.009348 0
M  V30 53 H -0.785517 -1.929841 7.457207 0
M  V30 54 H 1.173874 -2.197903 9.844533 0
M  V30 55 H 1.329357 -2.928849 8.202684 0
M  V30 56 H 2.456461 -0.391305 10.053875 0
M  V30 57 H 3.108711 0.479730 8.628943 0
M  V30 58 H 1.992665 1.933780 10.096236 0
M  V30 59 H 0.481809 0.968756 10.109258 0
M  V30 60 H 0.750234 1.685480 7.353116 0
M  V30 61 H 1.446497 3.073210 8.235207 0
M  V30 62 H -0.198060 2.569508 8.630775 0
M  V30 63 H -0.712797 -3.613406 3.841855 0
M  V30 64 H -2.508204 -3.782209 2.819218 0
M  V30 65 H -6.347995 -1.728692 -0.350385 0
M  V30 66 H -6.062048 -1.774328 -2.866770 0
M  V30 67 H -3.809149 -5.063534 -5.955597 0
M  V30 68 H -0.535671 -1.871062 -6.130530 0
M  V30 69 H 1.818527 -0.583826 -5.660616 0
M  V30 70 H 2.017927 1.170095 -5.525087 0
M  V30 71 H 0.205219 -0.255032 -7.642154 0
M  V30 72 H 0.578787 1.507691 -7.485204 0
M  V30 73 H 2.577122 -0.735212 -7.802769 0
M  V30 74 H 1.894071 0.164103 -9.167798 0
M  V30 75 H 2.165469 2.998460 -7.703413 0
M  V30 76 H 3.003332 2.685729 -9.295931 0
M  V30 77 H 3.850423 4.437114 -7.522295 0
M  V30 78 H 5.028945 3.443435 -8.525554 0
M  V30 79 H 5.743814 1.396568 -5.718676 0
M  V30 80 H 6.220030 1.783109 -7.441250 0
M  V30 81 H 4.066795 0.086740 -6.285429 0
M  V30 82 H 4.845433 -0.021090 -7.861888 0
M  V30 83 H -3.448689 1.858473 -2.353077 0
M  V30 84 H -2.500052 0.874622 -1.183329 0
M  V30 85 H -2.082699 2.590978 -1.496921 0
M  V30 86 H -3.551976 -0.293442 -2.636305 0
M  V30 87 H -2.683821 -3.121034 -2.059330 0
M  V30 88 H -0.935434 0.571084 3.469864 0
M  V30 END ATOM
M  V30 BEGIN BOND
M  V30 1 1 1 2
M  V30 2 1 2 3
M  V30 3 1 3 4
M  V30 4 1 4 5
M  V30 5 1 5 6
M  V30 6 1 6 7
M  V30 7 1 4 8
M  V30 8 2 8 9
M  V30 9 2 8 10
M  V30 10 1 8 11
M  V30 11 2 11 12
M  V30 12 1 12 13
M  V30 13 2 13 14
M  V30 14 1 14 15
M  V30 15 2 15 16
M  V30 16 1 15 17
M  V30 17 1 17 18
M  V30 18 2 18 19
M  V30 19 1 19 20
M  V30 20 2 20 21
M  V30 21 1 21 22
M  V30 22 1 22 23
M  V30 23 2 23 24
M  V30 24 1 24 25
M  V30 25 2 25 26
M  V30 26 1 26 27
M  V30 27 2 27 28
M  V30 28 1 28 29
M  V30 29 1 29 30
M  V30 30 1 30 31
M  V30 31 1 31 32
M  V30 32 1 32 33
M  V30 33 1 33 34
M  V30 34 1 34 35
M  V30 35 1 35 36
M  V30 36 1 36 37
M  V30 37 1 37 38
M  V30 38 1 38 39
M  V30 39 2 29 40
M  V30 40 1 40 41
M  V30 41 1 41 42
M  V30 42 1 40 43
M  V30 43 2 43 44
M  V30 44 1 21 45
M  V30 45 2 45 46
M  V30 46 1 14 47
M  V30 47 2 47 48
M  V30 48 1 48 11
M  V30 49 1 46 18
M  V30 50 1 44 23
M  V30 51 1 44 27
M  V30 52 1 39 34
M  V30 53 1 1 49
M  V30 54 1 1 50
M  V30 55 1 1 51
M  V30 56 1 2 52
M  V30 57 1 2 53
M  V30 58 1 3 54
M  V30 59 1 3 55
M  V30 60 1 5 56
M  V30 61 1 5 57
M  V30 62 1 6 58
M  V30 63 1 6 59
M  V30 64 1 7 60
M  V30 65 1 7 61
M  V30 66 1 7 62
M  V30 67 1 13 63
M  V30 68 1 17 64
M  V30 69 1 20 65
M  V30 70 1 22 66
M  V30 71 1 25 67
M  V30 72 1 28 68
M  V30 73 1 31 69
M  V30 74 1 31 70
M  V30 75 1 32 71
M  V30 76 1 32 72
M  V30 77 1 33 73
M  V30 78 1 33 74
M  V30 79 1 35 75
M  V30 80 1 35 76
M  V30 81 1 36 77
M  V30 82 1 36 78
M  V30 83 1 38 79
M  V30 84 1 38 80
M  V30 85 1 39 81
M  V30 86 1 39 82
M  V30 87 1 42 83
M  V30 88 1 42 84
M  V30 89 1 42 85
M  V30 90 1 43 86
M  V30 91 1 45 87
M  V30 92 1 47 88
M  V30 END BOND
M  V30 END CTAB
M  END
>  <Dataset>  (895) 
ChEMBL_Kinases

>  <Ligand_Instance>  (895) 
nan

>  <PDB_ID>  (895) 
nan

>  <Standardized_SMILES>  (895) 
CCCN(CCC)S(=O)(=O)c1ncc(C(=O)Nc2ncc(Nc3ncnc4cc(OCCCN5CCOCC5)c(OC)cc34)cn2)cn1

>  <Name>  (895) 
nan

>  <Pocket>  (895) 
nan

>  <ATP_Site>  (895) 
nan

>  <Peripheral>  (895) 
nan

>  <Num_H_Atoms_ProtBoundConf>  (895) 
nan

>  <Num_Resolved_Atoms>  (895) 
nan

>  <Num_Not_Resolved_Atoms>  (895) 
nan

$$$$
CHEMBL214775
     RDKit          3D

  0  0  0  0  0  0  0  0  0  0999 V3000
M  V30 BEGIN CTAB
M  V30 COUNTS 79 82 0 0 0
M  V30 BEGIN ATOM
M  V30 1 C 6.949596 0.744231 5.402934 0
M  V30 2 O 6.342537 -0.079430 4.418250 0
M  V30 3 C 5.067641 0.187649 3.940892 0
M  V30 4 C 4.381584 1.275085 4.435756 0
M  V30 5 C 3.112741 1.612913 4.017569 0
M  V30 6 C 2.599104 0.749237 3.051273 0
M  V30 7 N 1.290609 1.012715 2.555029 0
M  V30 8 C 0.768982 1.790474 1.489461 0
M  V30 9 O -0.451388 1.957206 1.155808 0
M  V30 10 O 1.319251 2.577551 0.509738 0
M  V30 11 C 0.574921 3.251143 -0.443248 0
M  V30 12 C 0.139487 4.540268 -0.171623 0
M  V30 13 C 0.474725 5.166715 1.120926 0
M  V30 14 C -0.602118 5.197677 -1.134473 0
M  V30 15 C -0.922931 4.627983 -2.342692 0
M  V30 16 C -0.492425 3.338966 -2.624644 0
M  V30 17 C 0.259048 2.667238 -1.653835 0
M  V30 18 C 0.701903 1.290199 -1.988900 0
M  V30 19 C 0.239465 0.327286 3.274312 0
M  V30 20 C -0.512314 0.771273 4.345057 0
M  V30 21 C -1.449493 -0.114118 4.831629 0
M  V30 22 N -1.651822 -1.340956 4.327031 0
M  V30 23 C -0.922485 -1.756818 3.297682 0
M  V30 24 N -1.032074 -3.026439 2.673519 0
M  V30 25 C -1.776921 -3.486170 1.557033 0
M  V30 26 C -2.617950 -2.656109 0.851389 0
M  V30 27 C -3.319665 -3.128257 -0.233803 0
M  V30 28 C -3.229637 -4.430410 -0.676344 0
M  V30 29 O -3.760735 -5.190913 -1.674709 0
M  V30 30 C -4.647739 -4.758660 -2.640860 0
M  V30 31 C -4.187436 -3.692387 -3.572784 0
M  V30 32 C -2.966532 -4.092858 -4.373070 0
M  V30 33 N -2.590788 -3.021902 -5.236779 0
M  V30 34 C -3.486543 -2.727915 -6.307012 0
M  V30 35 C -1.259618 -3.192655 -5.805387 0
M  V30 36 C -2.359177 -5.245864 0.073514 0
M  V30 37 C -1.627272 -4.802236 1.185169 0
M  V30 38 N 0.020290 -0.920001 2.775749 0
M  V30 39 C 3.240178 -0.352158 2.521084 0
M  V30 40 O 2.627384 -1.138589 1.562872 0
M  V30 41 C 3.270132 -2.260493 1.016957 0
M  V30 42 C 4.510620 -0.633758 2.984752 0
M  V30 43 H 6.867369 1.830498 5.111445 0
M  V30 44 H 8.025526 0.547792 5.489784 0
M  V30 45 H 6.426471 0.667999 6.380413 0
M  V30 46 H 4.827803 1.922783 5.192994 0
M  V30 47 H 2.504991 2.433894 4.343398 0
M  V30 48 H 1.459952 4.848262 1.503410 0
M  V30 49 H 0.566609 6.272839 0.912343 0
M  V30 50 H -0.334665 5.080335 1.877713 0
M  V30 51 H -0.926444 6.198289 -0.895935 0
M  V30 52 H -1.511835 5.240914 -3.022982 0
M  V30 53 H -0.766368 2.938039 -3.576465 0
M  V30 54 H 0.889239 1.241419 -3.090646 0
M  V30 55 H 1.664452 1.055459 -1.520058 0
M  V30 56 H -0.087047 0.529991 -1.735652 0
M  V30 57 H -0.259596 1.758376 4.654323 0
M  V30 58 H -2.024566 0.276923 5.680956 0
M  V30 59 H -0.411953 -3.639492 3.223801 0
M  V30 60 H -2.760235 -1.635501 1.106833 0
M  V30 61 H -4.001777 -2.566408 -0.834647 0
M  V30 62 H -5.614480 -4.364853 -2.190339 0
M  V30 63 H -5.022674 -5.659961 -3.220792 0
M  V30 64 H -3.979878 -2.708911 -3.136362 0
M  V30 65 H -5.051061 -3.509456 -4.277652 0
M  V30 66 H -2.126408 -4.193924 -3.625951 0
M  V30 67 H -3.115321 -5.068998 -4.848704 0
M  V30 68 H -3.266076 -3.377370 -7.184235 0
M  V30 69 H -4.549547 -2.723580 -6.080897 0
M  V30 70 H -3.234135 -1.689602 -6.655164 0
M  V30 71 H -0.735106 -2.225861 -5.910781 0
M  V30 72 H -0.670912 -3.975605 -5.287908 0
M  V30 73 H -1.386329 -3.591757 -6.854305 0
M  V30 74 H -2.145662 -6.307708 -0.108411 0
M  V30 75 H -0.962752 -5.428727 1.756611 0
M  V30 76 H 4.310034 -1.962186 0.769950 0
M  V30 77 H 3.315221 -3.120327 1.722228 0
M  V30 78 H 2.710237 -2.629111 0.121732 0
M  V30 79 H 5.074241 -1.477469 2.618534 0
M  V30 END ATOM
M  V30 BEGIN BOND
M  V30 1 1 1 2
M  V30 2 1 2 3
M  V30 3 2 3 4
M  V30 4 1 4 5
M  V30 5 2 5 6
M  V30 6 1 6 7
M  V30 7 1 7 8
M  V30 8 2 8 9
M  V30 9 1 8 10
M  V30 10 1 10 11
M  V30 11 2 11 12
M  V30 12 1 12 13
M  V30 13 1 12 14
M  V30 14 2 14 15
M  V30 15 1 15 16
M  V30 16 2 16 17
M  V30 17 1 17 18
M  V30 18 1 7 19
M  V30 19 2 19 20
M  V30 20 1 20 21
M  V30 21 2 21 22
M  V30 22 1 22 23
M  V30 23 1 23 24
M  V30 24 1 24 25
M  V30 25 2 25 26
M  V30 26 1 26 27
M  V30 27 2 27 28
M  V30 28 1 28 29
M  V30 29 1 29 30
M  V30 30 1 30 31
M  V30 31 1 31 32
M  V30 32 1 32 33
M  V30 33 1 33 34
M  V30 34 1 33 35
M  V30 35 1 28 36
M  V30 36 2 36 37
M  V30 37 2 23 38
M  V30 38 1 6 39
M  V30 39 1 39 40
M  V30 40 1 40 41
M  V30 41 2 39 42
M  V30 42 1 42 3
M  V30 43 1 17 11
M  V30 44 1 38 19
M  V30 45 1 37 25
M  V30 46 1 1 43
M  V30 47 1 1 44
M  V30 48 1 1 45
M  V30 49 1 4 46
M  V30 50 1 5 47
M  V30 51 1 13 48
M  V30 52 1 13 49
M  V30 53 1 13 50
M  V30 54 1 14 51
M  V30 55 1 15 52
M  V30 56 1 16 53
M  V30 57 1 18 54
M  V30 58 1 18 55
M  V30 59 1 18 56
M  V30 60 1 20 57
M  V30 61 1 21 58
M  V30 62 1 24 59
M  V30 63 1 26 60
M  V30 64 1 27 61
M  V30 65 1 30 62
M  V30 66 1 30 63
M  V30 67 1 31 64
M  V30 68 1 31 65
M  V30 69 1 32 66
M  V30 70 1 32 67
M  V30 71 1 34 68
M  V30 72 1 34 69
M  V30 73 1 34 70
M  V30 74 1 35 71
M  V30 75 1 35 72
M  V30 76 1 35 73
M  V30 77 1 36 74
M  V30 78 1 37 75
M  V30 79 1 41 76
M  V30 80 1 41 77
M  V30 81 1 41 78
M  V30 82 1 42 79
M  V30 END BOND
M  V30 END CTAB
M  END
>  <Dataset>  (896) 
ChEMBL_Kinases

>  <Ligand_Instance>  (896) 
nan

>  <PDB_ID>  (896) 
nan

>  <Standardized_SMILES>  (896) 
COc1ccc(N(C(=O)Oc2c(C)cccc2C)c2ccnc(Nc3ccc(OCCCN(C)C)cc3)n2)c(OC)c1

>  <Name>  (896) 
nan

>  <Pocket>  (896) 
nan

>  <ATP_Site>  (896) 
nan

>  <Peripheral>  (896) 
nan

>  <Num_H_Atoms_ProtBoundConf>  (896) 
nan

>  <Num_Resolved_Atoms>  (896) 
nan

>  <Num_Not_Resolved_Atoms>  (896) 
nan

$$$$
CHEMBL2147763
     RDKit          3D

  0  0  0  0  0  0  0  0  0  0999 V3000
M  V30 BEGIN CTAB
M  V30 COUNTS 52 56 0 0 0
M  V30 BEGIN ATOM
M  V30 1 C 0.734196 2.692288 5.266842 0
M  V30 2 O 0.230973 2.165117 4.051399 0
M  V30 3 C 0.324584 0.797528 3.838703 0
M  V30 4 C 0.883676 -0.096083 4.746248 0
M  V30 5 C 0.939199 -1.444274 4.460115 0
M  V30 6 C 0.439631 -1.928141 3.265876 0
M  V30 7 C -0.120673 -1.042844 2.353413 0
M  V30 8 C -0.186866 0.328315 2.623952 0
M  V30 9 C -0.786132 1.272943 1.649818 0
M  V30 10 N 0.256735 1.997506 0.986573 0
M  V30 11 C 1.160019 1.150919 0.272948 0
M  V30 12 C 2.317901 1.974341 -0.225396 0
M  V30 13 N 2.210166 3.364859 0.091179 0
M  V30 14 C 0.935152 3.937328 -0.248985 0
M  V30 15 C -0.220538 3.033534 0.114124 0
M  V30 16 O -0.565148 -1.720239 1.218176 0
M  V30 17 C -0.307223 -3.081361 1.354199 0
M  V30 18 C -0.564340 -4.086522 0.515876 0
M  V30 19 C -1.213146 -3.814377 -0.762708 0
M  V30 20 C -2.184194 -2.835858 -0.845545 0
M  V30 21 N -2.644800 -2.754949 -2.106611 0
M  V30 22 C -1.967961 -3.678330 -2.817147 0
M  V30 23 C -2.039768 -4.027484 -4.163345 0
M  V30 24 C -1.200589 -5.044699 -4.636595 0
M  V30 25 C -0.313348 -5.692327 -3.777057 0
M  V30 26 C -0.232508 -5.353990 -2.434692 0
M  V30 27 C -1.068193 -4.362157 -2.029845 0
M  V30 28 C 0.333213 -3.247494 2.648473 0
M  V30 29 O 0.738518 -4.303680 3.183431 0
M  V30 30 H 1.737465 2.280786 5.535575 0
M  V30 31 H 0.822136 3.798281 5.212972 0
M  V30 32 H 0.059489 2.404449 6.117407 0
M  V30 33 H 1.269415 0.293598 5.673945 0
M  V30 34 H 1.382082 -2.144789 5.184422 0
M  V30 35 H -1.383753 0.655832 0.929399 0
M  V30 36 H -1.512474 1.935636 2.159583 0
M  V30 37 H 1.491896 0.270132 0.869361 0
M  V30 38 H 0.668674 0.706268 -0.634185 0
M  V30 39 H 3.256397 1.576771 0.213451 0
M  V30 40 H 2.463850 1.880129 -1.338236 0
M  V30 41 H 2.539504 3.613219 1.047880 0
M  V30 42 H 0.817453 4.872291 0.370231 0
M  V30 43 H 0.902882 4.274560 -1.305204 0
M  V30 44 H -0.547137 2.558688 -0.854427 0
M  V30 45 H -1.083005 3.589967 0.504898 0
M  V30 46 H -0.300719 -5.118254 0.761076 0
M  V30 47 H -2.599497 -2.171647 -0.096918 0
M  V30 48 H -3.382868 -2.123163 -2.528592 0
M  V30 49 H -2.710476 -3.555148 -4.869446 0
M  V30 50 H -1.196466 -5.372340 -5.660284 0
M  V30 51 H 0.341010 -6.490253 -4.160324 0
M  V30 52 H 0.439947 -5.831425 -1.742318 0
M  V30 END ATOM
M  V30 BEGIN BOND
M  V30 1 1 1 2
M  V30 2 1 2 3
M  V30 3 2 3 4
M  V30 4 1 4 5
M  V30 5 2 5 6
M  V30 6 1 6 7
M  V30 7 2 7 8
M  V30 8 1 8 9
M  V30 9 1 9 10
M  V30 10 1 10 11
M  V30 11 1 11 12
M  V30 12 1 12 13
M  V30 13 1 13 14
M  V30 14 1 14 15
M  V30 15 1 7 16
M  V30 16 1 16 17
M  V30 17 2 17 18
M  V30 18 1 18 19
M  V30 19 2 19 20
M  V30 20 1 20 21
M  V30 21 1 21 22
M  V30 22 2 22 23
M  V30 23 1 23 24
M  V30 24 2 24 25
M  V30 25 1 25 26
M  V30 26 2 26 27
M  V30 27 1 17 28
M  V30 28 2 28 29
M  V30 29 1 8 3
M  V30 30 1 15 10
M  V30 31 1 27 19
M  V30 32 1 28 6
M  V30 33 1 27 22
M  V30 34 1 1 30
M  V30 35 1 1 31
M  V30 36 1 1 32
M  V30 37 1 4 33
M  V30 38 1 5 34
M  V30 39 1 9 35
M  V30 40 1 9 36
M  V30 41 1 11 37
M  V30 42 1 11 38
M  V30 43 1 12 39
M  V30 44 1 12 40
M  V30 45 1 13 41
M  V30 46 1 14 42
M  V30 47 1 14 43
M  V30 48 1 15 44
M  V30 49 1 15 45
M  V30 50 1 18 46
M  V30 51 1 20 47
M  V30 52 1 21 48
M  V30 53 1 23 49
M  V30 54 1 24 50
M  V30 55 1 25 51
M  V30 56 1 26 52
M  V30 END BOND
M  V30 END CTAB
M  END
>  <Dataset>  (897) 
ChEMBL_Kinases

>  <Ligand_Instance>  (897) 
nan

>  <PDB_ID>  (897) 
nan

>  <Standardized_SMILES>  (897) 
COc1ccc2c(c1CN1CCNCC1)O/C(=C\c1c[nH]c3ccccc13)C2=O

>  <Name>  (897) 
nan

>  <Pocket>  (897) 
nan

>  <ATP_Site>  (897) 
nan

>  <Peripheral>  (897) 
nan

>  <Num_H_Atoms_ProtBoundConf>  (897) 
nan

>  <Num_Resolved_Atoms>  (897) 
nan

>  <Num_Not_Resolved_Atoms>  (897) 
nan

$$$$
CHEMBL2147770
     RDKit          3D

  0  0  0  0  0  0  0  0  0  0999 V3000
M  V30 BEGIN CTAB
M  V30 COUNTS 51 55 0 0 0
M  V30 BEGIN ATOM
M  V30 1 C 1.100040 2.287385 5.421044 0
M  V30 2 O 0.467455 1.845771 4.223995 0
M  V30 3 C 0.622553 0.513018 3.859169 0
M  V30 4 C 1.360290 -0.371914 4.618012 0
M  V30 5 C 1.492558 -1.703557 4.218218 0
M  V30 6 C 0.865854 -2.112572 3.043814 0
M  V30 7 C 0.124421 -1.234020 2.276444 0
M  V30 8 C 0.005771 0.096472 2.696225 0
M  V30 9 C -0.796574 1.060582 1.875945 0
M  V30 10 N 0.134422 1.890765 1.182038 0
M  V30 11 C -0.507909 2.868994 0.333721 0
M  V30 12 C 0.431165 4.072737 0.202871 0
M  V30 13 N 1.767363 3.602930 0.429154 0
M  V30 14 C 2.031683 2.299940 -0.182107 0
M  V30 15 C 1.145465 1.213484 0.437319 0
M  V30 16 O -0.396729 -1.889717 1.158020 0
M  V30 17 C 0.004895 -3.230967 1.179986 0
M  V30 18 C -0.262547 -4.202929 0.316736 0
M  V30 19 C -1.093058 -3.858141 -0.833851 0
M  V30 20 C -2.156875 -2.950479 -0.781018 0
M  V30 21 N -2.725424 -2.850546 -2.000098 0
M  V30 22 C -2.051018 -3.673220 -2.832134 0
M  V30 23 C -2.152662 -4.001555 -4.170201 0
M  V30 24 C -1.307732 -4.902769 -4.794809 0
M  V30 25 C -0.303068 -5.508074 -4.029423 0
M  V30 26 N -0.210270 -5.183189 -2.726092 0
M  V30 27 C -1.035214 -4.314900 -2.152068 0
M  V30 28 C 0.816869 -3.425887 2.368633 0
M  V30 29 O 1.373697 -4.462046 2.773617 0
M  V30 30 H 2.175085 2.001957 5.445730 0
M  V30 31 H 0.630048 1.842119 6.334208 0
M  V30 32 H 1.056430 3.406175 5.462415 0
M  V30 33 H 1.848442 -0.045720 5.533985 0
M  V30 34 H 2.050882 -2.425551 4.769056 0
M  V30 35 H -1.548960 0.557313 1.266064 0
M  V30 36 H -1.312231 1.714760 2.635916 0
M  V30 37 H -0.639856 2.381572 -0.672687 0
M  V30 38 H -1.466717 3.137853 0.796195 0
M  V30 39 H 0.149079 4.755186 1.050407 0
M  V30 40 H 0.282330 4.613804 -0.748967 0
M  V30 41 H 2.519223 4.237287 0.093929 0
M  V30 42 H 1.915081 2.357342 -1.275158 0
M  V30 43 H 3.104925 2.100102 0.012345 0
M  V30 44 H 1.819613 0.601111 1.095623 0
M  V30 45 H 0.785067 0.543316 -0.358161 0
M  V30 46 H 0.095441 -5.217607 0.420909 0
M  V30 47 H -2.525455 -2.378434 0.071445 0
M  V30 48 H -3.544447 -2.256770 -2.303409 0
M  V30 49 H -2.925735 -3.535445 -4.766984 0
M  V30 50 H -1.374371 -5.169647 -5.840913 0
M  V30 51 H 0.408404 -6.223024 -4.410444 0
M  V30 END ATOM
M  V30 BEGIN BOND
M  V30 1 1 1 2
M  V30 2 1 2 3
M  V30 3 2 3 4
M  V30 4 1 4 5
M  V30 5 2 5 6
M  V30 6 1 6 7
M  V30 7 2 7 8
M  V30 8 1 8 9
M  V30 9 1 9 10
M  V30 10 1 10 11
M  V30 11 1 11 12
M  V30 12 1 12 13
M  V30 13 1 13 14
M  V30 14 1 14 15
M  V30 15 1 7 16
M  V30 16 1 16 17
M  V30 17 2 17 18
M  V30 18 1 18 19
M  V30 19 2 19 20
M  V30 20 1 20 21
M  V30 21 1 21 22
M  V30 22 2 22 23
M  V30 23 1 23 24
M  V30 24 2 24 25
M  V30 25 1 25 26
M  V30 26 2 26 27
M  V30 27 1 17 28
M  V30 28 2 28 29
M  V30 29 1 8 3
M  V30 30 1 15 10
M  V30 31 1 27 19
M  V30 32 1 28 6
M  V30 33 1 27 22
M  V30 34 1 1 30
M  V30 35 1 1 31
M  V30 36 1 1 32
M  V30 37 1 4 33
M  V30 38 1 5 34
M  V30 39 1 9 35
M  V30 40 1 9 36
M  V30 41 1 11 37
M  V30 42 1 11 38
M  V30 43 1 12 39
M  V30 44 1 12 40
M  V30 45 1 13 41
M  V30 46 1 14 42
M  V30 47 1 14 43
M  V30 48 1 15 44
M  V30 49 1 15 45
M  V30 50 1 18 46
M  V30 51 1 20 47
M  V30 52 1 21 48
M  V30 53 1 23 49
M  V30 54 1 24 50
M  V30 55 1 25 51
M  V30 END BOND
M  V30 END CTAB
M  END
>  <Dataset>  (898) 
ChEMBL_Kinases

>  <Ligand_Instance>  (898) 
nan

>  <PDB_ID>  (898) 
nan

>  <Standardized_SMILES>  (898) 
COc1ccc2c(c1CN1CCNCC1)O/C(=C\c1c[nH]c3cccnc13)C2=O

>  <Name>  (898) 
nan

>  <Pocket>  (898) 
nan

>  <ATP_Site>  (898) 
nan

>  <Peripheral>  (898) 
nan

>  <Num_H_Atoms_ProtBoundConf>  (898) 
nan

>  <Num_Resolved_Atoms>  (898) 
nan

>  <Num_Not_Resolved_Atoms>  (898) 
nan

$$$$
CHEMBL214683
     RDKit          3D

  0  0  0  0  0  0  0  0  0  0999 V3000
M  V30 BEGIN CTAB
M  V30 COUNTS 57 60 0 0 0
M  V30 BEGIN ATOM
M  V30 1 N 0.585544 1.294188 3.305680 0
M  V30 2 C -0.155971 1.357395 2.114518 0
M  V30 3 N 0.165391 0.405375 1.320068 0
M  V30 4 C 1.154690 -0.575520 1.650688 0
M  V30 5 C 2.523610 -0.297228 1.190476 0
M  V30 6 N 2.679423 -0.215130 -0.228023 0
M  V30 7 C 4.110064 -0.121548 -0.552155 0
M  V30 8 C 4.455381 1.016261 -1.448545 0
M  V30 9 N 3.645986 1.041946 -2.642171 0
M  V30 10 C 2.275307 0.690392 -2.383897 0
M  V30 11 C 2.052623 0.894288 -0.872554 0
M  V30 12 C -1.187321 2.259095 1.706031 0
M  V30 13 C -1.458247 3.235946 2.595810 0
M  V30 14 O -0.977541 3.624162 3.823302 0
M  V30 15 N -2.489123 4.254377 2.409186 0
M  V30 16 S -3.107877 3.707786 0.764897 0
M  V30 17 C -1.976239 2.239033 0.503364 0
M  V30 18 N -1.781447 1.260550 -0.509351 0
M  V30 19 C -2.390163 -0.009401 -0.327888 0
M  V30 20 C -3.370979 -0.139689 0.631386 0
M  V30 21 C -3.953053 -1.372806 0.833774 0
M  V30 22 C -3.523342 -2.428258 0.060745 0
M  V30 23 O -3.995091 -3.758079 0.120204 0
M  V30 24 C -3.066434 -4.812330 0.022116 0
M  V30 25 C -2.927238 -5.837997 -0.879284 0
M  V30 26 C -1.902047 -6.742045 -0.719279 0
M  V30 27 Cl -1.829117 -8.006370 -1.937392 0
M  V30 28 C -1.002562 -6.647222 0.328734 0
M  V30 29 C -1.134671 -5.625030 1.233586 0
M  V30 30 C -2.169672 -4.694627 1.090267 0
M  V30 31 Cl -2.166287 -3.469260 2.346140 0
M  V30 32 C -2.524644 -2.271401 -0.908054 0
M  V30 33 C -1.928980 -1.036269 -1.124052 0
M  V30 34 H 0.172380 1.193003 4.259719 0
M  V30 35 H 0.483137 1.202767 4.330003 0
M  V30 36 H 0.853445 -1.568867 1.187348 0
M  V30 37 H 1.131992 -0.823024 2.753418 0
M  V30 38 H 3.175881 -1.169790 1.513879 0
M  V30 39 H 2.952182 0.648604 1.629555 0
M  V30 40 H 4.694680 -0.046764 0.386148 0
M  V30 41 H 4.390313 -1.071865 -1.068760 0
M  V30 42 H 4.517441 2.001300 -0.925263 0
M  V30 43 H 5.503785 0.821581 -1.812824 0
M  V30 44 H 3.694734 1.918857 -3.166800 0
M  V30 45 H 1.569263 1.337116 -2.962378 0
M  V30 46 H 2.069646 -0.387367 -2.574052 0
M  V30 47 H 2.536985 1.852875 -0.532012 0
M  V30 48 H 0.974993 1.005674 -0.702113 0
M  V30 49 H 0.028801 3.568888 4.002210 0
M  V30 50 H -1.217329 1.502370 -1.343478 0
M  V30 51 H -3.746226 0.651623 1.263107 0
M  V30 52 H -4.722853 -1.673002 1.523027 0
M  V30 53 H -3.694689 -5.783885 -1.633435 0
M  V30 54 H -0.219424 -7.380806 0.405655 0
M  V30 55 H -0.399914 -5.615578 2.019543 0
M  V30 56 H -2.157047 -3.078747 -1.534655 0
M  V30 57 H -1.160131 -0.839301 -1.845080 0
M  V30 END ATOM
M  V30 BEGIN BOND
M  V30 1 1 1 2
M  V30 2 2 2 3
M  V30 3 1 3 4
M  V30 4 1 4 5
M  V30 5 1 5 6
M  V30 6 1 6 7
M  V30 7 1 7 8
M  V30 8 1 8 9
M  V30 9 1 9 10
M  V30 10 1 10 11
M  V30 11 1 2 12
M  V30 12 1 12 13
M  V30 13 1 13 14
M  V30 14 2 13 15
M  V30 15 1 15 16
M  V30 16 1 16 17
M  V30 17 1 17 18
M  V30 18 1 18 19
M  V30 19 2 19 20
M  V30 20 1 20 21
M  V30 21 2 21 22
M  V30 22 1 22 23
M  V30 23 1 23 24
M  V30 24 2 24 25
M  V30 25 1 25 26
M  V30 26 1 26 27
M  V30 27 2 26 28
M  V30 28 1 28 29
M  V30 29 2 29 30
M  V30 30 1 30 31
M  V30 31 1 22 32
M  V30 32 2 32 33
M  V30 33 1 11 6
M  V30 34 2 17 12
M  V30 35 1 33 19
M  V30 36 1 30 24
M  V30 37 1 1 34
M  V30 38 1 1 35
M  V30 39 1 4 36
M  V30 40 1 4 37
M  V30 41 1 5 38
M  V30 42 1 5 39
M  V30 43 1 7 40
M  V30 44 1 7 41
M  V30 45 1 8 42
M  V30 46 1 8 43
M  V30 47 1 9 44
M  V30 48 1 10 45
M  V30 49 1 10 46
M  V30 50 1 11 47
M  V30 51 1 11 48
M  V30 52 1 14 49
M  V30 53 1 18 50
M  V30 54 1 20 51
M  V30 55 1 21 52
M  V30 56 1 25 53
M  V30 57 1 28 54
M  V30 58 1 29 55
M  V30 59 1 32 56
M  V30 60 1 33 57
M  V30 END BOND
M  V30 END CTAB
M  END
>  <Dataset>  (899) 
ChEMBL_Kinases

>  <Ligand_Instance>  (899) 
nan

>  <PDB_ID>  (899) 
nan

>  <Standardized_SMILES>  (899) 
N/C(=N\CCN1CCNCC1)c1c(O)nsc1Nc1ccc(Oc2cc(Cl)ccc2Cl)cc1

>  <Name>  (899) 
nan

>  <Pocket>  (899) 
nan

>  <ATP_Site>  (899) 
nan

>  <Peripheral>  (899) 
nan

>  <Num_H_Atoms_ProtBoundConf>  (899) 
nan

>  <Num_Resolved_Atoms>  (899) 
nan

>  <Num_Not_Resolved_Atoms>  (899) 
nan

$$$$
CHEMBL2152386
     RDKit          3D

  0  0  0  0  0  0  0  0  0  0999 V3000
M  V30 BEGIN CTAB
M  V30 COUNTS 63 66 0 0 0
M  V30 BEGIN ATOM
M  V30 1 C -0.687841 1.972399 4.184180 0
M  V30 2 O -0.130492 0.710435 3.947271 0
M  V30 3 C 0.867001 0.372024 3.058134 0
M  V30 4 O 0.703311 1.595982 2.920900 0
M  V30 5 C 1.390835 -0.970664 2.874334 0
M  V30 6 C 2.381892 -1.140290 1.941686 0
M  V30 7 C 2.936770 -0.165847 1.011307 0
M  V30 8 C 2.063993 -0.052498 -0.177839 0
M  V30 9 C 2.380533 -0.933695 -1.225262 0
M  V30 10 C 1.705607 -1.004098 -2.432829 0
M  V30 11 C 0.642483 -0.168067 -2.664072 0
M  V30 12 C -0.063237 -0.236572 -3.922278 0
M  V30 13 O 0.338015 -1.050978 -4.818737 0
M  V30 14 N -1.198129 0.523683 -4.300391 0
M  V30 15 C -1.812202 0.357225 -5.600500 0
M  V30 16 C -3.006009 1.271627 -5.773370 0
M  V30 17 C -4.078151 0.987949 -4.745289 0
M  V30 18 C -3.535125 1.060040 -7.191525 0
M  V30 19 O -2.654725 2.613276 -5.654895 0
M  V30 20 C 0.304763 0.701781 -1.671224 0
M  V30 21 C 0.992430 0.746257 -0.489480 0
M  V30 22 C 2.845890 -2.460262 1.912664 0
M  V30 23 O 3.748998 -2.876495 1.153371 0
M  V30 24 C 2.298479 -3.421283 2.770738 0
M  V30 25 C 2.767461 -4.714356 2.726717 0
M  V30 26 C 2.280829 -5.737002 3.543772 0
M  V30 27 C 1.271099 -5.310516 4.407307 0
M  V30 28 N 0.779929 -4.062780 4.488087 0
M  V30 29 C 1.296286 -3.127940 3.670340 0
M  V30 30 N 0.857563 -1.879417 3.699973 0
M  V30 31 C -0.174598 -1.581354 4.629759 0
M  V30 32 C 0.151886 -1.220615 5.919270 0
M  V30 33 C -0.851447 -0.927086 6.849505 0
M  V30 34 C -2.180336 -0.995962 6.483683 0
M  V30 35 C -2.506912 -1.361272 5.178088 0
M  V30 36 C -1.512567 -1.642236 4.291421 0
M  V30 37 H -1.412743 1.870640 5.051722 0
M  V30 38 H 0.041293 2.733334 4.572570 0
M  V30 39 H -1.199633 2.435919 3.324046 0
M  V30 40 H 3.010966 0.861877 1.421377 0
M  V30 41 H 3.966923 -0.427012 0.674150 0
M  V30 42 H 3.200526 -1.647013 -1.182306 0
M  V30 43 H 1.976347 -1.695453 -3.218078 0
M  V30 44 H -1.555554 1.206872 -3.577257 0
M  V30 45 H -1.054049 0.669013 -6.357297 0
M  V30 46 H -2.133750 -0.684495 -5.739652 0
M  V30 47 H -3.959855 -0.037998 -4.346227 0
M  V30 48 H -4.088369 1.766579 -3.942392 0
M  V30 49 H -5.097426 1.034690 -5.203640 0
M  V30 50 H -3.936112 0.046666 -7.298450 0
M  V30 51 H -4.224912 1.856794 -7.487416 0
M  V30 52 H -2.633297 1.132893 -7.854108 0
M  V30 53 H -2.693718 2.899101 -4.690759 0
M  V30 54 H -0.519523 1.393217 -1.774030 0
M  V30 55 H 0.725346 1.438084 0.280872 0
M  V30 56 H 3.553788 -5.026429 2.046878 0
M  V30 57 H 2.601639 -6.757393 3.557012 0
M  V30 58 H 0.823161 -6.022021 5.085291 0
M  V30 59 H 1.203021 -1.157230 6.239827 0
M  V30 60 H -0.577474 -0.641259 7.876610 0
M  V30 61 H -2.893095 -0.753445 7.261228 0
M  V30 62 H -3.574530 -1.379325 5.013353 0
M  V30 63 H -1.818714 -1.920567 3.292152 0
M  V30 END ATOM
M  V30 BEGIN BOND
M  V30 1 1 1 2
M  V30 2 1 2 3
M  V30 3 2 3 4
M  V30 4 1 3 5
M  V30 5 2 5 6
M  V30 6 1 6 7
M  V30 7 1 7 8
M  V30 8 2 8 9
M  V30 9 1 9 10
M  V30 10 2 10 11
M  V30 11 1 11 12
M  V30 12 2 12 13
M  V30 13 1 12 14
M  V30 14 1 14 15
M  V30 15 1 15 16
M  V30 16 1 16 17
M  V30 17 1 16 18
M  V30 18 1 16 19
M  V30 19 1 11 20
M  V30 20 2 20 21
M  V30 21 1 6 22
M  V30 22 2 22 23
M  V30 23 1 22 24
M  V30 24 2 24 25
M  V30 25 1 25 26
M  V30 26 2 26 27
M  V30 27 1 27 28
M  V30 28 2 28 29
M  V30 29 1 29 30
M  V30 30 1 30 31
M  V30 31 2 31 32
M  V30 32 1 32 33
M  V30 33 2 33 34
M  V30 34 1 34 35
M  V30 35 2 35 36
M  V30 36 1 30 5
M  V30 37 1 36 31
M  V30 38 1 21 8
M  V30 39 1 29 24
M  V30 40 1 1 37
M  V30 41 1 1 38
M  V30 42 1 1 39
M  V30 43 1 7 40
M  V30 44 1 7 41
M  V30 45 1 9 42
M  V30 46 1 10 43
M  V30 47 1 14 44
M  V30 48 1 15 45
M  V30 49 1 15 46
M  V30 50 1 17 47
M  V30 51 1 17 48
M  V30 52 1 17 49
M  V30 53 1 18 50
M  V30 54 1 18 51
M  V30 55 1 18 52
M  V30 56 1 19 53
M  V30 57 1 20 54
M  V30 58 1 21 55
M  V30 59 1 25 56
M  V30 60 1 26 57
M  V30 61 1 27 58
M  V30 62 1 32 59
M  V30 63 1 33 60
M  V30 64 1 34 61
M  V30 65 1 35 62
M  V30 66 1 36 63
M  V30 END BOND
M  V30 END CTAB
M  END
>  <Dataset>  (900) 
ChEMBL_Kinases

>  <Ligand_Instance>  (900) 
nan

>  <PDB_ID>  (900) 
nan

>  <Standardized_SMILES>  (900) 
COC(=O)c1c(Cc2ccc(C(=O)NCC(C)(C)O)cc2)c(=O)c2cccnc2n1-c1ccccc1

>  <Name>  (900) 
nan

>  <Pocket>  (900) 
nan

>  <ATP_Site>  (900) 
nan

>  <Peripheral>  (900) 
nan

>  <Num_H_Atoms_ProtBoundConf>  (900) 
nan

>  <Num_Resolved_Atoms>  (900) 
nan

>  <Num_Not_Resolved_Atoms>  (900) 
nan

$$$$
CHEMBL2152385
     RDKit          3D

  0  0  0  0  0  0  0  0  0  0999 V3000
M  V30 BEGIN CTAB
M  V30 COUNTS 75 81 0 0 0
M  V30 BEGIN ATOM
M  V30 1 C 1.490581 -5.070215 2.780957 0
M  V30 2 O 1.197428 -3.760058 3.273268 0
M  V30 3 C 2.127431 -2.783938 3.421875 0
M  V30 4 O 3.268386 -3.165578 3.078623 0
M  V30 5 C 1.993024 -1.409684 3.905763 0
M  V30 6 C 0.729788 -1.015923 4.250579 0
M  V30 7 C -0.553628 -1.741759 4.212570 0
M  V30 8 C -1.132513 -1.867693 2.840122 0
M  V30 9 C -1.112675 -0.685753 2.087913 0
M  V30 10 C -1.641670 -0.646968 0.815163 0
M  V30 11 C -2.214404 -1.768540 0.227625 0
M  V30 12 C -2.801563 -1.857186 -1.116678 0
M  V30 13 O -3.471087 -2.850991 -1.469303 0
M  V30 14 N -2.613082 -0.785722 -2.064216 0
M  V30 15 C -3.237230 -0.970306 -3.330607 0 CFG=1
M  V30 16 C -4.112258 0.231602 -3.607792 0 CFG=2
M  V30 17 C -5.019886 0.000949 -4.800071 0
M  V30 18 C -4.132782 -0.199169 -6.003803 0 CFG=2
M  V30 19 C -3.214756 -1.361178 -5.723313 0
M  V30 20 C -2.315490 -1.122334 -4.506726 0 CFG=1
M  V30 21 C -1.489911 0.097362 -4.780342 0
M  V30 22 C -2.407680 1.251274 -5.059253 0 CFG=1
M  V30 23 O -1.667162 2.428046 -5.272928 0
M  V30 24 C -3.316511 1.029079 -6.242095 0
M  V30 25 C -3.267821 1.466496 -3.828606 0
M  V30 26 C -2.228519 -2.924461 0.976391 0
M  V30 27 C -1.702766 -2.974540 2.246625 0
M  V30 28 C 0.665511 0.308407 4.710076 0
M  V30 29 O -0.436071 0.808453 5.067056 0
M  V30 30 C 1.754227 1.161554 4.816730 0
M  V30 31 C 1.572939 2.461743 5.289644 0
M  V30 32 C 2.681246 3.282765 5.381987 0
M  V30 33 C 3.880740 2.736706 4.994157 0
M  V30 34 N 4.050082 1.468823 4.535158 0
M  V30 35 C 2.961319 0.653563 4.441881 0
M  V30 36 N 3.066117 -0.617299 3.993993 0
M  V30 37 C 4.384969 -1.013625 3.643360 0
M  V30 38 C 4.721320 -0.409767 2.421909 0
M  V30 39 C 5.966355 -0.618564 1.838788 0
M  V30 40 C 6.874497 -1.437402 2.487884 0
M  V30 41 C 6.526351 -2.016446 3.680031 0
M  V30 42 C 5.294537 -1.815645 4.265794 0
M  V30 43 H 2.586712 -5.210468 2.652016 0
M  V30 44 H 1.183803 -5.766248 3.590476 0
M  V30 45 H 0.911142 -5.281704 1.877635 0
M  V30 46 H -0.391349 -2.758782 4.660961 0
M  V30 47 H -1.287521 -1.213724 4.856634 0
M  V30 48 H -0.700654 0.280882 2.408994 0
M  V30 49 H -1.655887 0.229382 0.188031 0
M  V30 50 H -2.053245 0.048467 -1.804981 0
M  V30 51 H -3.906557 -1.866634 -3.358769 0
M  V30 52 H -4.739379 0.421223 -2.696113 0
M  V30 53 H -5.654077 -0.860483 -4.562797 0
M  V30 54 H -5.598867 0.928233 -4.945227 0
M  V30 55 H -4.727610 -0.504350 -6.887999 0
M  V30 56 H -2.523701 -1.437626 -6.597485 0
M  V30 57 H -3.732528 -2.321197 -5.662388 0
M  V30 58 H -1.696211 -2.063278 -4.461215 0
M  V30 59 H -0.803218 -0.121711 -5.614300 0
M  V30 60 H -0.893498 0.399513 -3.869120 0
M  V30 61 H -0.926453 2.282620 -5.919702 0
M  V30 62 H -4.014026 1.904410 -6.254067 0
M  V30 63 H -2.763811 1.054912 -7.194253 0
M  V30 64 H -2.610958 1.595802 -2.955968 0
M  V30 65 H -3.947709 2.339753 -3.986202 0
M  V30 66 H -2.652163 -3.836069 0.598619 0
M  V30 67 H -1.692182 -3.851994 2.868512 0
M  V30 68 H 0.626326 2.841913 5.583973 0
M  V30 69 H 2.545074 4.291367 5.746083 0
M  V30 70 H 4.741688 3.410558 5.074523 0
M  V30 71 H 4.117112 0.256631 1.800426 0
M  V30 72 H 6.296945 -0.195387 0.905160 0
M  V30 73 H 7.877959 -1.687839 2.148916 0
M  V30 74 H 7.205714 -2.671992 4.243631 0
M  V30 75 H 4.917860 -2.213369 5.186657 0
M  V30 END ATOM
M  V30 BEGIN BOND
M  V30 1 1 1 2
M  V30 2 1 2 3
M  V30 3 2 3 4
M  V30 4 1 3 5
M  V30 5 2 5 6
M  V30 6 1 6 7
M  V30 7 1 7 8
M  V30 8 2 8 9
M  V30 9 1 9 10
M  V30 10 2 10 11
M  V30 11 1 11 12
M  V30 12 2 12 13
M  V30 13 1 12 14
M  V30 14 1 14 15
M  V30 15 1 15 16
M  V30 16 1 16 17
M  V30 17 1 17 18
M  V30 18 1 18 19
M  V30 19 1 19 20
M  V30 20 1 20 21
M  V30 21 1 21 22
M  V30 22 1 22 23 CFG=3
M  V30 23 1 22 24
M  V30 24 1 22 25
M  V30 25 1 11 26
M  V30 26 2 26 27
M  V30 27 1 6 28
M  V30 28 2 28 29
M  V30 29 1 28 30
M  V30 30 2 30 31
M  V30 31 1 31 32
M  V30 32 2 32 33
M  V30 33 1 33 34
M  V30 34 2 34 35
M  V30 35 1 35 36
M  V30 36 1 36 37
M  V30 37 2 37 38
M  V30 38 1 38 39
M  V30 39 2 39 40
M  V30 40 1 40 41
M  V30 41 2 41 42
M  V30 42 1 36 5
M  V30 43 1 42 37
M  V30 44 1 27 8
M  V30 45 1 35 30
M  V30 46 1 20 15
M  V30 47 1 25 16
M  V30 48 1 24 18
M  V30 49 1 1 43
M  V30 50 1 1 44
M  V30 51 1 1 45
M  V30 52 1 7 46
M  V30 53 1 7 47
M  V30 54 1 9 48
M  V30 55 1 10 49
M  V30 56 1 14 50
M  V30 57 1 15 51 CFG=1
M  V30 58 1 16 52 CFG=1
M  V30 59 1 17 53
M  V30 60 1 17 54
M  V30 61 1 18 55 CFG=3
M  V30 62 1 19 56
M  V30 63 1 19 57
M  V30 64 1 20 58 CFG=1
M  V30 65 1 21 59
M  V30 66 1 21 60
M  V30 67 1 23 61
M  V30 68 1 24 62
M  V30 69 1 24 63
M  V30 70 1 25 64
M  V30 71 1 25 65
M  V30 72 1 26 66
M  V30 73 1 27 67
M  V30 74 1 31 68
M  V30 75 1 32 69
M  V30 76 1 33 70
M  V30 77 1 38 71
M  V30 78 1 39 72
M  V30 79 1 40 73
M  V30 80 1 41 74
M  V30 81 1 42 75
M  V30 END BOND
M  V30 END CTAB
M  END
>  <Dataset>  (901) 
ChEMBL_Kinases

>  <Ligand_Instance>  (901) 
nan

>  <PDB_ID>  (901) 
nan

>  <Standardized_SMILES>  (901) 
COC(=O)c1c(Cc2ccc(C(=O)N[C@H]3[C@@H]4C[C@@H]5C[C@H]3C[C@@](O)(C5)C4)cc2)c(=O)c2cccnc2n1-c1ccccc1

>  <Name>  (901) 
nan

>  <Pocket>  (901) 
nan

>  <ATP_Site>  (901) 
nan

>  <Peripheral>  (901) 
nan

>  <Num_H_Atoms_ProtBoundConf>  (901) 
nan

>  <Num_Resolved_Atoms>  (901) 
nan

>  <Num_Not_Resolved_Atoms>  (901) 
nan

$$$$
CHEMBL2152384
     RDKit          3D

  0  0  0  0  0  0  0  0  0  0999 V3000
M  V30 BEGIN CTAB
M  V30 COUNTS 69 72 0 0 0
M  V30 BEGIN ATOM
M  V30 1 C 5.135943 -1.241247 -0.592409 0
M  V30 2 O 3.969710 -1.939957 -0.251738 0
M  V30 3 C 3.483535 -2.100636 1.005799 0
M  V30 4 O 4.493405 -1.429515 1.275653 0
M  V30 5 C 2.540106 -2.586928 1.964234 0
M  V30 6 C 1.467136 -3.305259 1.510639 0
M  V30 7 C 1.077049 -3.639237 0.132109 0
M  V30 8 C 0.421751 -2.541127 -0.614625 0
M  V30 9 C 0.891346 -1.724331 -1.616199 0
M  V30 10 C 0.179698 -0.715528 -2.223342 0
M  V30 11 C -1.118815 -0.473907 -1.819228 0
M  V30 12 C -1.830475 0.604584 -2.493184 0
M  V30 13 O -1.261888 1.235931 -3.392855 0
M  V30 14 N -3.141562 1.003680 -2.205123 0
M  V30 15 C -3.933267 2.027565 -2.786454 0 CFG=2
M  V30 16 C -4.065871 3.061666 -1.685429 0
M  V30 17 O -4.793098 4.159320 -2.042646 0
M  V30 18 C -5.266102 1.697743 -3.316194 0
M  V30 19 C -5.882807 2.958743 -3.877602 0
M  V30 20 C -6.248088 1.206162 -2.276162 0
M  V30 21 C -5.224515 0.779784 -4.526899 0
M  V30 22 C -1.633263 -1.269836 -0.816583 0
M  V30 23 C -0.898389 -2.281575 -0.217670 0
M  V30 24 C 0.623615 -3.761218 2.533052 0
M  V30 25 O -0.420284 -4.438790 2.386613 0
M  V30 26 C 0.904606 -3.477312 3.849874 0
M  V30 27 C 0.113592 -3.896479 4.903025 0
M  V30 28 C 0.376502 -3.622220 6.234481 0
M  V30 29 C 1.493605 -2.889580 6.500349 0
M  V30 30 N 2.278821 -2.468839 5.514420 0
M  V30 31 C 2.013051 -2.743195 4.205102 0
M  V30 32 N 2.827076 -2.301973 3.242233 0
M  V30 33 C 3.969110 -1.546239 3.616792 0
M  V30 34 C 5.228806 -2.007805 3.864439 0
M  V30 35 C 6.238110 -1.122159 4.225468 0
M  V30 36 C 5.941453 0.239131 4.329431 0
M  V30 37 C 4.671288 0.713919 4.080991 0
M  V30 38 C 3.694740 -0.205206 3.723541 0
M  V30 39 H 6.045246 -1.688091 -0.157272 0
M  V30 40 H 5.106921 -0.169359 -0.322964 0
M  V30 41 H 5.296454 -1.305127 -1.708566 0
M  V30 42 H 0.357239 -4.486534 0.131232 0
M  V30 43 H 1.974380 -3.970577 -0.441479 0
M  V30 44 H 1.896785 -1.935962 -1.925515 0
M  V30 45 H 0.695106 -0.158454 -3.000596 0
M  V30 46 H -3.681043 0.512169 -1.454232 0
M  V30 47 H -3.343978 2.508858 -3.592486 0
M  V30 48 H -3.041603 3.470490 -1.419754 0
M  V30 49 H -4.387881 2.600521 -0.720316 0
M  V30 50 H -4.935321 4.697258 -1.225992 0
M  V30 51 H -5.133808 3.662824 -4.289263 0
M  V30 52 H -6.621895 3.414436 -3.189760 0
M  V30 53 H -6.499610 2.669367 -4.761117 0
M  V30 54 H -5.887685 1.326850 -1.234455 0
M  V30 55 H -6.559151 0.138271 -2.477797 0
M  V30 56 H -7.225237 1.735780 -2.288415 0
M  V30 57 H -4.427236 0.037246 -4.529729 0
M  V30 58 H -6.248891 0.345552 -4.640349 0
M  V30 59 H -5.076749 1.344167 -5.487151 0
M  V30 60 H -2.661314 -1.003656 -0.568222 0
M  V30 61 H -1.496607 -2.765255 0.529390 0
M  V30 62 H -0.776287 -4.480676 4.681681 0
M  V30 63 H -0.286413 -3.982594 7.005277 0
M  V30 64 H 1.707770 -2.668986 7.546954 0
M  V30 65 H 5.349262 -3.067903 3.756665 0
M  V30 66 H 7.214949 -1.520890 4.412028 0
M  V30 67 H 6.727144 0.926390 4.610259 0
M  V30 68 H 4.487967 1.778068 4.173518 0
M  V30 69 H 2.724691 0.271910 3.548848 0
M  V30 END ATOM
M  V30 BEGIN BOND
M  V30 1 1 1 2
M  V30 2 1 2 3
M  V30 3 2 3 4
M  V30 4 1 3 5
M  V30 5 2 5 6
M  V30 6 1 6 7
M  V30 7 1 7 8
M  V30 8 2 8 9
M  V30 9 1 9 10
M  V30 10 2 10 11
M  V30 11 1 11 12
M  V30 12 2 12 13
M  V30 13 1 12 14
M  V30 14 1 14 15
M  V30 15 1 15 16
M  V30 16 1 16 17
M  V30 17 1 15 18
M  V30 18 1 18 19
M  V30 19 1 18 20
M  V30 20 1 18 21
M  V30 21 1 11 22
M  V30 22 2 22 23
M  V30 23 1 6 24
M  V30 24 2 24 25
M  V30 25 1 24 26
M  V30 26 2 26 27
M  V30 27 1 27 28
M  V30 28 2 28 29
M  V30 29 1 29 30
M  V30 30 2 30 31
M  V30 31 1 31 32
M  V30 32 1 32 33
M  V30 33 2 33 34
M  V30 34 1 34 35
M  V30 35 2 35 36
M  V30 36 1 36 37
M  V30 37 2 37 38
M  V30 38 1 32 5
M  V30 39 1 38 33
M  V30 40 1 23 8
M  V30 41 1 31 26
M  V30 42 1 1 39
M  V30 43 1 1 40
M  V30 44 1 1 41
M  V30 45 1 7 42
M  V30 46 1 7 43
M  V30 47 1 9 44
M  V30 48 1 10 45
M  V30 49 1 14 46
M  V30 50 1 15 47 CFG=3
M  V30 51 1 16 48
M  V30 52 1 16 49
M  V30 53 1 17 50
M  V30 54 1 19 51
M  V30 55 1 19 52
M  V30 56 1 19 53
M  V30 57 1 20 54
M  V30 58 1 20 55
M  V30 59 1 20 56
M  V30 60 1 21 57
M  V30 61 1 21 58
M  V30 62 1 21 59
M  V30 63 1 22 60
M  V30 64 1 23 61
M  V30 65 1 27 62
M  V30 66 1 28 63
M  V30 67 1 29 64
M  V30 68 1 34 65
M  V30 69 1 35 66
M  V30 70 1 36 67
M  V30 71 1 37 68
M  V30 72 1 38 69
M  V30 END BOND
M  V30 END CTAB
M  END
>  <Dataset>  (902) 
ChEMBL_Kinases

>  <Ligand_Instance>  (902) 
nan

>  <PDB_ID>  (902) 
nan

>  <Standardized_SMILES>  (902) 
COC(=O)c1c(Cc2ccc(C(=O)N[C@H](CO)C(C)(C)C)cc2)c(=O)c2cccnc2n1-c1ccccc1

>  <Name>  (902) 
nan

>  <Pocket>  (902) 
nan

>  <ATP_Site>  (902) 
nan

>  <Peripheral>  (902) 
nan

>  <Num_H_Atoms_ProtBoundConf>  (902) 
nan

>  <Num_Resolved_Atoms>  (902) 
nan

>  <Num_Not_Resolved_Atoms>  (902) 
nan

$$$$
CHEMBL2152383
     RDKit          3D

  0  0  0  0  0  0  0  0  0  0999 V3000
M  V30 BEGIN CTAB
M  V30 COUNTS 75 81 0 0 0
M  V30 BEGIN ATOM
M  V30 1 C 5.260755 -2.013553 1.454653 0
M  V30 2 O 4.393401 -1.562548 2.462941 0
M  V30 3 C 3.156718 -2.106890 2.731630 0
M  V30 4 O 3.426662 -2.869797 1.801915 0
M  V30 5 C 2.281539 -1.635980 3.768799 0
M  V30 6 C 1.070893 -2.264138 3.922445 0
M  V30 7 C 0.461567 -3.313290 3.075109 0
M  V30 8 C -0.243565 -2.793295 1.881657 0
M  V30 9 C -1.611767 -2.538879 2.077799 0
M  V30 10 C -2.484292 -2.057507 1.126489 0
M  V30 11 C -2.009583 -1.790447 -0.139456 0
M  V30 12 C -2.918168 -1.291548 -1.161053 0
M  V30 13 O -4.141959 -1.198069 -0.888405 0
M  V30 14 N -2.439542 -0.912567 -2.445266 0
M  V30 15 C -3.348355 -0.428425 -3.420259 0 CFG=2
M  V30 16 C -3.369201 -1.360308 -4.600064 0 CFG=2
M  V30 17 C -2.186308 -1.174090 -5.507817 0
M  V30 18 C -2.236118 0.246471 -6.057831 0 CFG=2
M  V30 19 C -2.051224 1.166023 -4.872008 0
M  V30 20 C -3.180245 0.965834 -3.915536 0 CFG=1
M  V30 21 C -4.463615 1.268177 -4.697004 0
M  V30 22 C -4.649426 0.317342 -5.841312 0 CFG=1
M  V30 23 O -5.899782 0.575733 -6.389941 0
M  V30 24 C -3.517120 0.512679 -6.792573 0
M  V30 25 C -4.659366 -1.101362 -5.350048 0
M  V30 26 C -0.674409 -2.025239 -0.376437 0
M  V30 27 C 0.162695 -2.506849 0.601510 0
M  V30 28 C 0.322330 -1.802113 4.986511 0
M  V30 29 O -0.808527 -2.196311 5.354216 0
M  V30 30 C 0.787957 -0.781036 5.811976 0
M  V30 31 C 0.099679 -0.268612 6.891474 0
M  V30 32 C 0.558238 0.734436 7.703024 0
M  V30 33 C 1.806120 1.253551 7.394516 0
M  V30 34 N 2.501815 0.776751 6.350247 0
M  V30 35 C 2.027941 -0.214597 5.563173 0
M  V30 36 N 2.763323 -0.656266 4.533618 0
M  V30 37 C 4.033318 -0.064323 4.288506 0
M  V30 38 C 4.120590 1.012552 3.398325 0
M  V30 39 C 5.385206 1.568763 3.180569 0
M  V30 40 C 6.523741 1.073857 3.823616 0
M  V30 41 C 6.411963 0.011628 4.696588 0
M  V30 42 C 5.168701 -0.536784 4.911977 0
M  V30 43 H 6.203184 -1.400903 1.436268 0
M  V30 44 H 5.527100 -3.075969 1.688307 0
M  V30 45 H 4.771401 -1.920036 0.466032 0
M  V30 46 H -0.265587 -3.901228 3.684017 0
M  V30 47 H 1.257441 -4.056473 2.776105 0
M  V30 48 H -2.123298 -2.710793 3.036570 0
M  V30 49 H -3.525218 -1.873000 1.307119 0
M  V30 50 H -1.435968 -0.968902 -2.723797 0
M  V30 51 H -4.376979 -0.462898 -2.953080 0
M  V30 52 H -3.336821 -2.414090 -4.255506 0
M  V30 53 H -2.279297 -1.889511 -6.325087 0
M  V30 54 H -1.250099 -1.243538 -4.925046 0
M  V30 55 H -1.387050 0.413884 -6.764543 0
M  V30 56 H -2.115540 2.221959 -5.232768 0
M  V30 57 H -1.053850 0.961695 -4.471394 0
M  V30 58 H -3.195317 1.743678 -3.122656 0
M  V30 59 H -5.313862 1.055954 -3.988068 0
M  V30 60 H -4.517153 2.319736 -5.017330 0
M  V30 61 H -5.997004 0.342390 -7.331164 0
M  V30 62 H -3.580911 -0.194510 -7.642149 0
M  V30 63 H -3.508138 1.565332 -7.102937 0
M  V30 64 H -4.670575 -1.790133 -6.242470 0
M  V30 65 H -5.489061 -1.336502 -4.661316 0
M  V30 66 H -0.234576 -1.839921 -1.340751 0
M  V30 67 H 1.196168 -2.691769 0.405770 0
M  V30 68 H -0.872132 -0.689264 7.113211 0
M  V30 69 H -0.032473 1.098873 8.544871 0
M  V30 70 H 2.236369 2.035560 7.974608 0
M  V30 71 H 3.259916 1.416681 2.886622 0
M  V30 72 H 5.534484 2.416193 2.495493 0
M  V30 73 H 7.498872 1.536050 3.627884 0
M  V30 74 H 7.282884 -0.391034 5.209298 0
M  V30 75 H 5.116629 -1.377601 5.610458 0
M  V30 END ATOM
M  V30 BEGIN BOND
M  V30 1 1 1 2
M  V30 2 1 2 3
M  V30 3 2 3 4
M  V30 4 1 3 5
M  V30 5 2 5 6
M  V30 6 1 6 7
M  V30 7 1 7 8
M  V30 8 2 8 9
M  V30 9 1 9 10
M  V30 10 2 10 11
M  V30 11 1 11 12
M  V30 12 2 12 13
M  V30 13 1 12 14
M  V30 14 1 14 15
M  V30 15 1 15 16
M  V30 16 1 16 17
M  V30 17 1 17 18
M  V30 18 1 18 19
M  V30 19 1 19 20
M  V30 20 1 20 21
M  V30 21 1 21 22
M  V30 22 1 22 23 CFG=3
M  V30 23 1 22 24
M  V30 24 1 22 25
M  V30 25 1 11 26
M  V30 26 2 26 27
M  V30 27 1 6 28
M  V30 28 2 28 29
M  V30 29 1 28 30
M  V30 30 2 30 31
M  V30 31 1 31 32
M  V30 32 2 32 33
M  V30 33 1 33 34
M  V30 34 2 34 35
M  V30 35 1 35 36
M  V30 36 1 36 37
M  V30 37 2 37 38
M  V30 38 1 38 39
M  V30 39 2 39 40
M  V30 40 1 40 41
M  V30 41 2 41 42
M  V30 42 1 36 5
M  V30 43 1 42 37
M  V30 44 1 27 8
M  V30 45 1 35 30
M  V30 46 1 20 15
M  V30 47 1 25 16
M  V30 48 1 24 18
M  V30 49 1 1 43
M  V30 50 1 1 44
M  V30 51 1 1 45
M  V30 52 1 7 46
M  V30 53 1 7 47
M  V30 54 1 9 48
M  V30 55 1 10 49
M  V30 56 1 14 50
M  V30 57 1 15 51 CFG=1
M  V30 58 1 16 52 CFG=1
M  V30 59 1 17 53
M  V30 60 1 17 54
M  V30 61 1 18 55 CFG=3
M  V30 62 1 19 56
M  V30 63 1 19 57
M  V30 64 1 20 58 CFG=1
M  V30 65 1 21 59
M  V30 66 1 21 60
M  V30 67 1 23 61
M  V30 68 1 24 62
M  V30 69 1 24 63
M  V30 70 1 25 64
M  V30 71 1 25 65
M  V30 72 1 26 66
M  V30 73 1 27 67
M  V30 74 1 31 68
M  V30 75 1 32 69
M  V30 76 1 33 70
M  V30 77 1 38 71
M  V30 78 1 39 72
M  V30 79 1 40 73
M  V30 80 1 41 74
M  V30 81 1 42 75
M  V30 END BOND
M  V30 END CTAB
M  END
>  <Dataset>  (903) 
ChEMBL_Kinases

>  <Ligand_Instance>  (903) 
nan

>  <PDB_ID>  (903) 
nan

>  <Standardized_SMILES>  (903) 
COC(=O)c1c(Cc2ccc(C(=O)N[C@@H]3[C@@H]4C[C@@H]5C[C@H]3C[C@@](O)(C5)C4)cc2)c(=O)c2cccnc2n1-c1ccccc1

>  <Name>  (903) 
nan

>  <Pocket>  (903) 
nan

>  <ATP_Site>  (903) 
nan

>  <Peripheral>  (903) 
nan

>  <Num_H_Atoms_ProtBoundConf>  (903) 
nan

>  <Num_Resolved_Atoms>  (903) 
nan

>  <Num_Not_Resolved_Atoms>  (903) 
nan

$$$$
CHEMBL2152265
     RDKit          3D

  0  0  0  0  0  0  0  0  0  0999 V3000
M  V30 BEGIN CTAB
M  V30 COUNTS 36 39 0 0 0
M  V30 BEGIN ATOM
M  V30 1 N -0.149417 -4.622833 3.018082 0
M  V30 2 C 0.720983 -4.304089 1.937590 0
M  V30 3 C 1.425526 -5.316968 1.319736 0
M  V30 4 C 2.251732 -4.942254 0.280652 0
M  V30 5 C 2.331035 -3.611875 -0.079995 0
M  V30 6 C 1.612399 -2.617982 0.557844 0
M  V30 7 C 1.727581 -1.223486 0.142527 0
M  V30 8 C 2.913327 -0.732957 -0.367633 0
M  V30 9 N 3.086922 0.541751 -0.769502 0
M  V30 10 C 2.074019 1.447631 -0.694115 0
M  V30 11 N 2.013700 2.760494 -1.032948 0
M  V30 12 C 0.765277 3.187176 -0.752864 0
M  V30 13 C 0.054321 2.125924 -0.237634 0
M  V30 14 C -1.339088 2.189433 0.189337 0
M  V30 15 C -2.339133 2.806570 -0.569611 0
M  V30 16 C -3.630177 2.834385 -0.114089 0
M  V30 17 C -3.951706 2.257378 1.089634 0
M  V30 18 N -2.994244 1.660525 1.827592 0
M  V30 19 C -1.718383 1.621491 1.398814 0
M  V30 20 C 0.866797 1.010905 -0.191720 0
M  V30 21 C 0.707718 -0.297347 0.214645 0
M  V30 22 C 0.779204 -2.972960 1.601410 0
M  V30 23 H -1.116342 -4.634314 3.405973 0
M  V30 24 H 0.452147 -5.042702 3.787557 0
M  V30 25 H 1.283062 -6.320662 1.688302 0
M  V30 26 H 2.803898 -5.736301 -0.203102 0
M  V30 27 H 3.003067 -3.393631 -0.908185 0
M  V30 28 H 3.791115 -1.377119 -0.471454 0
M  V30 29 H 2.842131 3.258133 -1.431503 0
M  V30 30 H 0.458764 4.223846 -0.938660 0
M  V30 31 H -2.072537 3.258336 -1.517694 0
M  V30 32 H -4.441837 3.298987 -0.663079 0
M  V30 33 H -4.948300 2.244473 1.504878 0
M  V30 34 H -1.016523 1.117735 2.064903 0
M  V30 35 H -0.248334 -0.619037 0.605035 0
M  V30 36 H 0.214958 -2.205527 2.104263 0
M  V30 END ATOM
M  V30 BEGIN BOND
M  V30 1 1 1 2
M  V30 2 2 2 3
M  V30 3 1 3 4
M  V30 4 2 4 5
M  V30 5 1 5 6
M  V30 6 1 6 7
M  V30 7 2 7 8
M  V30 8 1 8 9
M  V30 9 2 9 10
M  V30 10 1 10 11
M  V30 11 1 11 12
M  V30 12 2 12 13
M  V30 13 1 13 14
M  V30 14 2 14 15
M  V30 15 1 15 16
M  V30 16 2 16 17
M  V30 17 1 17 18
M  V30 18 2 18 19
M  V30 19 1 13 20
M  V30 20 2 20 21
M  V30 21 2 6 22
M  V30 22 1 22 2
M  V30 23 1 21 7
M  V30 24 1 20 10
M  V30 25 1 19 14
M  V30 26 1 1 23
M  V30 27 1 1 24
M  V30 28 1 3 25
M  V30 29 1 4 26
M  V30 30 1 5 27
M  V30 31 1 8 28
M  V30 32 1 11 29
M  V30 33 1 12 30
M  V30 34 1 15 31
M  V30 35 1 16 32
M  V30 36 1 17 33
M  V30 37 1 19 34
M  V30 38 1 21 35
M  V30 39 1 22 36
M  V30 END BOND
M  V30 END CTAB
M  END
>  <Dataset>  (904) 
ChEMBL_Kinases

>  <Ligand_Instance>  (904) 
nan

>  <PDB_ID>  (904) 
nan

>  <Standardized_SMILES>  (904) 
Nc1cccc(-c2cnc3[nH]cc(-c4cccnc4)c3c2)c1

>  <Name>  (904) 
nan

>  <Pocket>  (904) 
nan

>  <ATP_Site>  (904) 
nan

>  <Peripheral>  (904) 
nan

>  <Num_H_Atoms_ProtBoundConf>  (904) 
nan

>  <Num_Resolved_Atoms>  (904) 
nan

>  <Num_Not_Resolved_Atoms>  (904) 
nan

$$$$
CHEMBL215203
     RDKit          3D

  0  0  0  0  0  0  0  0  0  0999 V3000
M  V30 BEGIN CTAB
M  V30 COUNTS 68 72 0 0 0
M  V30 BEGIN ATOM
M  V30 1 O 0.935226 -1.164587 3.442875 0
M  V30 2 C 1.039468 -1.165090 4.702414 0
M  V30 3 C 2.342224 -1.853005 4.872384 0
M  V30 4 C 2.851103 -2.178035 3.515722 0
M  V30 5 C 3.657127 -1.313708 2.766492 0
M  V30 6 C 3.980774 -1.885206 1.529492 0
M  V30 7 N 4.760024 -1.284646 0.529955 0
M  V30 8 C 4.617696 -0.476210 -0.601268 0
M  V30 9 N 5.796076 -0.166275 -1.221231 0
M  V30 10 C 5.826600 0.598693 -2.316991 0
M  V30 11 N 4.713288 1.097604 -2.860661 0
M  V30 12 C 3.532261 0.840091 -2.315562 0
M  V30 13 C 2.304735 1.300702 -2.789767 0
M  V30 14 C 1.052215 1.019261 -2.201207 0
M  V30 15 O 0.116031 1.611209 -2.900627 0
M  V30 16 C -1.172211 1.868340 -3.097587 0
M  V30 17 C -2.034417 0.700939 -3.461241 0
M  V30 18 C -2.024448 -0.362437 -2.441793 0
M  V30 19 N -2.898709 -1.477052 -2.747407 0
M  V30 20 C -4.289457 -1.202463 -2.707971 0
M  V30 21 C -4.803900 -1.640096 -1.348433 0
M  V30 22 C -3.723150 -2.541972 -0.815696 0
M  V30 23 C -2.728631 -2.630060 -1.933207 0 CFG=2
M  V30 24 C -1.332806 -2.903716 -1.461561 0
M  V30 25 O -1.375331 -4.077358 -0.684252 0
M  V30 26 C 1.153713 0.223679 -1.080644 0
M  V30 27 C 2.331572 -0.258032 -0.569726 0
M  V30 28 C 3.505677 0.053427 -1.189348 0
M  V30 29 N 3.356133 -3.088359 1.568798 0
M  V30 30 N 2.714585 -3.236790 2.714498 0
M  V30 31 N 0.144060 -0.644604 5.668266 0
M  V30 32 C -1.043533 -0.031549 5.188714 0
M  V30 33 C -0.897397 1.315829 4.951229 0
M  V30 34 C -1.971001 2.067674 4.476747 0
M  V30 35 C -3.176461 1.441659 4.249786 0
M  V30 36 C -3.315240 0.101853 4.487710 0
M  V30 37 F -4.461788 -0.557426 4.285480 0
M  V30 38 C -2.261632 -0.635240 4.953553 0
M  V30 39 H 3.058890 -1.175437 5.356732 0
M  V30 40 H 2.196062 -2.796454 5.445930 0
M  V30 41 H 3.986791 -0.340139 3.092969 0
M  V30 42 H 5.695279 -1.624301 0.845866 0
M  V30 43 H 6.772837 0.843283 -2.808136 0
M  V30 44 H 2.481718 1.915501 -3.693396 0
M  V30 45 H -1.674620 2.341796 -2.188828 0
M  V30 46 H -1.337316 2.709257 -3.873773 0
M  V30 47 H -3.062111 1.093575 -3.678430 0
M  V30 48 H -1.628262 0.348457 -4.462098 0
M  V30 49 H -2.128960 0.048880 -1.440256 0
M  V30 50 H -0.992763 -0.841731 -2.499338 0
M  V30 51 H -4.562353 -0.154458 -2.931243 0
M  V30 52 H -4.797866 -1.825614 -3.471475 0
M  V30 53 H -4.995106 -0.770625 -0.680141 0
M  V30 54 H -5.736003 -2.198464 -1.430530 0
M  V30 55 H -3.234350 -2.110049 0.080444 0
M  V30 56 H -4.127409 -3.552338 -0.584053 0
M  V30 57 H -3.046912 -3.512632 -2.562186 0
M  V30 58 H -0.655229 -3.098806 -2.316420 0
M  V30 59 H -0.898082 -2.069723 -0.882714 0
M  V30 60 H -2.289621 -4.465840 -0.654804 0
M  V30 61 H 0.187242 0.038694 -0.651156 0
M  V30 62 H 2.242377 -0.862492 0.303992 0
M  V30 63 H 2.156485 -4.073771 2.992041 0
M  V30 64 H 0.526677 -0.806746 6.627637 0
M  V30 65 H 0.002561 1.879580 5.100863 0
M  V30 66 H -1.900822 3.114072 4.278918 0
M  V30 67 H -4.022483 1.993042 3.883740 0
M  V30 68 H -2.254351 -1.694425 5.176675 0
M  V30 END ATOM
M  V30 BEGIN BOND
M  V30 1 2 1 2
M  V30 2 1 2 3
M  V30 3 1 3 4
M  V30 4 2 4 5
M  V30 5 1 5 6
M  V30 6 1 6 7
M  V30 7 1 7 8
M  V30 8 2 8 9
M  V30 9 1 9 10
M  V30 10 2 10 11
M  V30 11 1 11 12
M  V30 12 2 12 13
M  V30 13 1 13 14
M  V30 14 1 14 15
M  V30 15 1 15 16
M  V30 16 1 16 17
M  V30 17 1 17 18
M  V30 18 1 18 19
M  V30 19 1 19 20
M  V30 20 1 20 21
M  V30 21 1 21 22
M  V30 22 1 22 23
M  V30 23 1 23 24
M  V30 24 1 24 25
M  V30 25 2 14 26
M  V30 26 1 26 27
M  V30 27 2 27 28
M  V30 28 2 6 29
M  V30 29 1 29 30
M  V30 30 1 2 31
M  V30 31 1 31 32
M  V30 32 2 32 33
M  V30 33 1 33 34
M  V30 34 2 34 35
M  V30 35 1 35 36
M  V30 36 1 36 37
M  V30 37 2 36 38
M  V30 38 1 30 4
M  V30 39 1 38 32
M  V30 40 1 28 8
M  V30 41 1 28 12
M  V30 42 1 23 19
M  V30 43 1 3 39
M  V30 44 1 3 40
M  V30 45 1 5 41
M  V30 46 1 7 42
M  V30 47 1 10 43
M  V30 48 1 13 44
M  V30 49 1 16 45
M  V30 50 1 16 46
M  V30 51 1 17 47
M  V30 52 1 17 48
M  V30 53 1 18 49
M  V30 54 1 18 50
M  V30 55 1 20 51
M  V30 56 1 20 52
M  V30 57 1 21 53
M  V30 58 1 21 54
M  V30 59 1 22 55
M  V30 60 1 22 56
M  V30 61 1 23 57 CFG=3
M  V30 62 1 24 58
M  V30 63 1 24 59
M  V30 64 1 25 60
M  V30 65 1 26 61
M  V30 66 1 27 62
M  V30 67 1 30 63
M  V30 68 1 31 64
M  V30 69 1 33 65
M  V30 70 1 34 66
M  V30 71 1 35 67
M  V30 72 1 38 68
M  V30 END BOND
M  V30 END CTAB
M  END
>  <Dataset>  (905) 
ChEMBL_Kinases

>  <Ligand_Instance>  (905) 
nan

>  <PDB_ID>  (905) 
nan

>  <Standardized_SMILES>  (905) 
O=C(Cc1cc(Nc2ncnc3cc(OCCCN4CCC[C@@H]4CO)ccc23)n[nH]1)Nc1cccc(F)c1

>  <Name>  (905) 
nan

>  <Pocket>  (905) 
nan

>  <ATP_Site>  (905) 
nan

>  <Peripheral>  (905) 
nan

>  <Num_H_Atoms_ProtBoundConf>  (905) 
nan

>  <Num_Resolved_Atoms>  (905) 
nan

>  <Num_Not_Resolved_Atoms>  (905) 
nan

$$$$
CHEMBL2151935
     RDKit          3D

  0  0  0  0  0  0  0  0  0  0999 V3000
M  V30 BEGIN CTAB
M  V30 COUNTS 44 46 0 0 0
M  V30 BEGIN ATOM
M  V30 1 C 1.343825 -3.554253 -0.772369 0
M  V30 2 N 0.491460 -2.856176 0.173791 0
M  V30 3 C 0.945949 -1.822361 0.871931 0
M  V30 4 C 2.338281 -1.326243 0.725556 0
M  V30 5 C 2.394391 -0.290541 -0.338483 0
M  V30 6 O 1.163163 -0.310403 -0.645401 0
M  V30 7 N 3.578524 0.364814 -0.706096 0
M  V30 8 C 3.332579 1.315854 -1.762177 0
M  V30 9 C 3.399384 1.047329 -3.108821 0
M  V30 10 C 3.134257 2.074372 -4.008368 0
M  V30 11 C 2.811518 3.334390 -3.512745 0
M  V30 12 F 2.553256 4.334700 -4.417265 0
M  V30 13 C 2.745067 3.601507 -2.157446 0
M  V30 14 Cl 2.324244 5.243316 -1.677155 0
M  V30 15 C 3.011553 2.569095 -1.286597 0
M  V30 16 N 0.140305 -1.170791 1.759345 0
M  V30 17 C -1.134995 -1.552344 1.955459 0
M  V30 18 N -2.031612 -0.923030 2.861235 0
M  V30 19 C -3.409930 -1.354280 3.051792 0
M  V30 20 C -3.880282 -0.656773 4.325435 0
M  V30 21 O -2.993724 -0.817815 5.360535 0
M  V30 22 C -1.735519 -0.304839 5.119659 0
M  V30 23 C -1.665949 0.213645 3.689568 0
M  V30 24 C -1.627807 -2.624545 1.240213 0
M  V30 25 C -0.787850 -3.278298 0.336861 0
M  V30 26 O -1.209084 -4.250094 -0.321830 0
M  V30 27 H 0.726933 -4.201304 -1.422561 0
M  V30 28 H 1.992740 -2.848322 -1.302935 0
M  V30 29 H 2.020790 -4.209565 -0.158565 0
M  V30 30 H 2.653730 -0.869785 1.695993 0
M  V30 31 H 2.986368 -2.199069 0.533089 0
M  V30 32 H 4.417900 0.061152 -0.166451 0
M  V30 33 H 3.659946 0.030501 -3.343784 0
M  V30 34 H 3.196710 1.824766 -5.050451 0
M  V30 35 H 2.946362 2.829287 -0.226985 0
M  V30 36 H -4.066947 -1.013663 2.236890 0
M  V30 37 H -3.489028 -2.433707 3.234533 0
M  V30 38 H -4.099132 0.426835 4.147524 0
M  V30 39 H -4.848421 -1.091369 4.637794 0
M  V30 40 H -0.956608 -1.109013 5.175781 0
M  V30 41 H -1.468986 0.522635 5.818408 0
M  V30 42 H -2.273488 1.103732 3.537815 0
M  V30 43 H -0.605118 0.511805 3.456797 0
M  V30 44 H -2.626871 -3.011969 1.318065 0
M  V30 END ATOM
M  V30 BEGIN BOND
M  V30 1 1 1 2
M  V30 2 1 2 3
M  V30 3 1 3 4
M  V30 4 1 4 5
M  V30 5 2 5 6
M  V30 6 1 5 7
M  V30 7 1 7 8
M  V30 8 2 8 9
M  V30 9 1 9 10
M  V30 10 2 10 11
M  V30 11 1 11 12
M  V30 12 1 11 13
M  V30 13 1 13 14
M  V30 14 2 13 15
M  V30 15 2 3 16
M  V30 16 1 16 17
M  V30 17 1 17 18
M  V30 18 1 18 19
M  V30 19 1 19 20
M  V30 20 1 20 21
M  V30 21 1 21 22
M  V30 22 1 22 23
M  V30 23 2 17 24
M  V30 24 1 24 25
M  V30 25 2 25 26
M  V30 26 1 25 2
M  V30 27 1 15 8
M  V30 28 1 23 18
M  V30 29 1 1 27
M  V30 30 1 1 28
M  V30 31 1 1 29
M  V30 32 1 4 30
M  V30 33 1 4 31
M  V30 34 1 7 32
M  V30 35 1 9 33
M  V30 36 1 10 34
M  V30 37 1 15 35
M  V30 38 1 19 36
M  V30 39 1 19 37
M  V30 40 1 20 38
M  V30 41 1 20 39
M  V30 42 1 22 40
M  V30 43 1 22 41
M  V30 44 1 23 42
M  V30 45 1 23 43
M  V30 46 1 24 44
M  V30 END BOND
M  V30 END CTAB
M  END
>  <Dataset>  (906) 
ChEMBL_Kinases

>  <Ligand_Instance>  (906) 
nan

>  <PDB_ID>  (906) 
nan

>  <Standardized_SMILES>  (906) 
Cn1c(CC(=O)Nc2ccc(F)c(Cl)c2)nc(N2CCOCC2)cc1=O

>  <Name>  (906) 
nan

>  <Pocket>  (906) 
nan

>  <ATP_Site>  (906) 
nan

>  <Peripheral>  (906) 
nan

>  <Num_H_Atoms_ProtBoundConf>  (906) 
nan

>  <Num_Resolved_Atoms>  (906) 
nan

>  <Num_Not_Resolved_Atoms>  (906) 
nan

$$$$
CHEMBL2151934
     RDKit          3D

  0  0  0  0  0  0  0  0  0  0999 V3000
M  V30 BEGIN CTAB
M  V30 COUNTS 48 50 0 0 0
M  V30 BEGIN ATOM
M  V30 1 C 1.577282 -3.972695 2.863752 0
M  V30 2 O 0.449647 -4.637486 2.351531 0
M  V30 3 C -0.336039 -4.171318 1.325805 0
M  V30 4 C -0.279211 -3.015011 0.544913 0
M  V30 5 C -1.232975 -2.787261 -0.460090 0
M  V30 6 N -1.062697 -1.573287 -1.163112 0
M  V30 7 C -0.432575 -0.948740 -2.286107 0
M  V30 8 O 0.265973 -1.747072 -2.970909 0
M  V30 9 C -0.720809 0.529005 -2.426350 0
M  V30 10 C -0.936543 1.081481 -1.040487 0
M  V30 11 N 0.146962 1.172295 -0.271540 0
M  V30 12 C 0.167937 1.611343 0.993928 0
M  V30 13 N 1.395095 1.617941 1.688004 0
M  V30 14 C 1.777927 2.456715 2.809172 0
M  V30 15 C 2.644620 1.588697 3.719400 0
M  V30 16 O 3.838914 1.322985 3.072211 0
M  V30 17 C 3.738080 1.122240 1.713860 0
M  V30 18 C 2.398425 0.641588 1.242477 0
M  V30 19 C -1.064203 1.983693 1.474327 0
M  V30 20 C -2.219996 1.915103 0.726555 0
M  V30 21 O -3.339505 2.261351 1.182463 0
M  V30 22 N -2.146730 1.461428 -0.531980 0
M  V30 23 C -3.274470 1.323640 -1.424281 0
M  V30 24 C -2.200915 -3.727270 -0.638004 0
M  V30 25 C -2.361385 -4.886873 0.051395 0
M  V30 26 C -1.378102 -5.049042 1.037011 0
M  V30 27 F -1.565638 -6.222565 1.725805 0
M  V30 28 H 2.432843 -4.693456 2.845831 0
M  V30 29 H 1.869580 -3.068848 2.296330 0
M  V30 30 H 1.408332 -3.632387 3.911875 0
M  V30 31 H 0.559475 -2.396574 0.839694 0
M  V30 32 H -1.678099 -0.982242 -0.524759 0
M  V30 33 H 0.245836 0.967311 -2.800067 0
M  V30 34 H -1.508154 0.752563 -3.124703 0
M  V30 35 H 0.900203 2.887389 3.325487 0
M  V30 36 H 2.419273 3.271487 2.359004 0
M  V30 37 H 2.855955 2.081751 4.685247 0
M  V30 38 H 2.100408 0.631645 3.839384 0
M  V30 39 H 4.459202 0.290508 1.472956 0
M  V30 40 H 4.051600 2.014589 1.113005 0
M  V30 41 H 2.426243 0.519751 0.162910 0
M  V30 42 H 2.222368 -0.338043 1.755503 0
M  V30 43 H -1.082973 2.342719 2.522365 0
M  V30 44 H -4.160304 1.852288 -0.976903 0
M  V30 45 H -3.104672 1.779910 -2.422734 0
M  V30 46 H -3.501866 0.243104 -1.519832 0
M  V30 47 H -2.873399 -3.448422 -1.442631 0
M  V30 48 H -3.146896 -5.593142 -0.132985 0
M  V30 END ATOM
M  V30 BEGIN BOND
M  V30 1 1 1 2
M  V30 2 1 2 3
M  V30 3 2 3 4
M  V30 4 1 4 5
M  V30 5 1 5 6
M  V30 6 1 6 7
M  V30 7 2 7 8
M  V30 8 1 7 9
M  V30 9 1 9 10
M  V30 10 2 10 11
M  V30 11 1 11 12
M  V30 12 1 12 13
M  V30 13 1 13 14
M  V30 14 1 14 15
M  V30 15 1 15 16
M  V30 16 1 16 17
M  V30 17 1 17 18
M  V30 18 2 12 19
M  V30 19 1 19 20
M  V30 20 2 20 21
M  V30 21 1 20 22
M  V30 22 1 22 23
M  V30 23 2 5 24
M  V30 24 1 24 25
M  V30 25 2 25 26
M  V30 26 1 26 27
M  V30 27 1 26 3
M  V30 28 1 22 10
M  V30 29 1 18 13
M  V30 30 1 1 28
M  V30 31 1 1 29
M  V30 32 1 1 30
M  V30 33 1 4 31
M  V30 34 1 6 32
M  V30 35 1 9 33
M  V30 36 1 9 34
M  V30 37 1 14 35
M  V30 38 1 14 36
M  V30 39 1 15 37
M  V30 40 1 15 38
M  V30 41 1 17 39
M  V30 42 1 17 40
M  V30 43 1 18 41
M  V30 44 1 18 42
M  V30 45 1 19 43
M  V30 46 1 23 44
M  V30 47 1 23 45
M  V30 48 1 23 46
M  V30 49 1 24 47
M  V30 50 1 25 48
M  V30 END BOND
M  V30 END CTAB
M  END
>  <Dataset>  (907) 
ChEMBL_Kinases

>  <Ligand_Instance>  (907) 
nan

>  <PDB_ID>  (907) 
nan

>  <Standardized_SMILES>  (907) 
COc1cc(NC(=O)Cc2nc(N3CCOCC3)cc(=O)n2C)ccc1F

>  <Name>  (907) 
nan

>  <Pocket>  (907) 
nan

>  <ATP_Site>  (907) 
nan

>  <Peripheral>  (907) 
nan

>  <Num_H_Atoms_ProtBoundConf>  (907) 
nan

>  <Num_Resolved_Atoms>  (907) 
nan

>  <Num_Not_Resolved_Atoms>  (907) 
nan

$$$$
CHEMBL2151933
     RDKit          3D

  0  0  0  0  0  0  0  0  0  0999 V3000
M  V30 BEGIN CTAB
M  V30 COUNTS 44 46 0 0 0
M  V30 BEGIN ATOM
M  V30 1 C 1.374103 -3.500093 -0.831674 0
M  V30 2 N 0.522013 -2.828231 0.147062 0
M  V30 3 C 0.995188 -1.808888 0.887801 0
M  V30 4 C 2.395524 -1.336844 0.732142 0
M  V30 5 C 2.425364 -0.263558 -0.320737 0
M  V30 6 O 1.191646 -0.225434 -0.632593 0
M  V30 7 N 3.584893 0.409004 -0.726941 0
M  V30 8 C 3.242790 1.363657 -1.745574 0
M  V30 9 C 3.249048 1.045376 -3.088386 0
M  V30 10 C 2.912985 1.996664 -4.025107 0
M  V30 11 C 2.568504 3.275565 -3.610682 0
M  V30 12 F 2.233114 4.226077 -4.539114 0
M  V30 13 C 2.550343 3.636564 -2.260233 0
M  V30 14 Br 2.075700 5.395559 -1.703974 0
M  V30 15 C 2.898696 2.629246 -1.385423 0
M  V30 16 N 0.192759 -1.185503 1.801076 0
M  V30 17 C -1.086394 -1.580180 1.976239 0
M  V30 18 N -1.951260 -0.955175 2.918011 0
M  V30 19 C -3.338037 -1.356792 3.114722 0
M  V30 20 C -3.801746 -0.658541 4.386135 0
M  V30 21 O -2.922246 -0.855294 5.426209 0
M  V30 22 C -1.648623 -0.397661 5.196590 0
M  V30 23 C -1.539000 0.142624 3.775746 0
M  V30 24 C -1.620553 -2.619843 1.242433 0
M  V30 25 C -0.753451 -3.221462 0.322018 0
M  V30 26 O -1.192956 -4.171499 -0.369003 0
M  V30 27 H 0.773051 -4.188349 -1.429907 0
M  V30 28 H 1.890595 -2.750737 -1.467685 0
M  V30 29 H 2.138011 -4.100735 -0.259798 0
M  V30 30 H 2.706755 -0.906292 1.702823 0
M  V30 31 H 3.052144 -2.195493 0.453910 0
M  V30 32 H 4.448618 0.103443 -0.233081 0
M  V30 33 H 3.526079 0.030773 -3.358891 0
M  V30 34 H 2.916975 1.746162 -5.095983 0
M  V30 35 H 2.895183 2.878304 -0.312650 0
M  V30 36 H -3.988469 -1.006949 2.294942 0
M  V30 37 H -3.346789 -2.431526 3.302314 0
M  V30 38 H -3.955113 0.410535 4.138587 0
M  V30 39 H -4.795372 -1.031755 4.706302 0
M  V30 40 H -0.925627 -1.247399 5.242582 0
M  V30 41 H -1.305751 0.351301 5.938905 0
M  V30 42 H -2.097864 1.072953 3.616116 0
M  V30 43 H -0.454073 0.391128 3.586589 0
M  V30 44 H -2.638872 -2.951523 1.365771 0
M  V30 END ATOM
M  V30 BEGIN BOND
M  V30 1 1 1 2
M  V30 2 1 2 3
M  V30 3 1 3 4
M  V30 4 1 4 5
M  V30 5 2 5 6
M  V30 6 1 5 7
M  V30 7 1 7 8
M  V30 8 2 8 9
M  V30 9 1 9 10
M  V30 10 2 10 11
M  V30 11 1 11 12
M  V30 12 1 11 13
M  V30 13 1 13 14
M  V30 14 2 13 15
M  V30 15 2 3 16
M  V30 16 1 16 17
M  V30 17 1 17 18
M  V30 18 1 18 19
M  V30 19 1 19 20
M  V30 20 1 20 21
M  V30 21 1 21 22
M  V30 22 1 22 23
M  V30 23 2 17 24
M  V30 24 1 24 25
M  V30 25 2 25 26
M  V30 26 1 25 2
M  V30 27 1 15 8
M  V30 28 1 23 18
M  V30 29 1 1 27
M  V30 30 1 1 28
M  V30 31 1 1 29
M  V30 32 1 4 30
M  V30 33 1 4 31
M  V30 34 1 7 32
M  V30 35 1 9 33
M  V30 36 1 10 34
M  V30 37 1 15 35
M  V30 38 1 19 36
M  V30 39 1 19 37
M  V30 40 1 20 38
M  V30 41 1 20 39
M  V30 42 1 22 40
M  V30 43 1 22 41
M  V30 44 1 23 42
M  V30 45 1 23 43
M  V30 46 1 24 44
M  V30 END BOND
M  V30 END CTAB
M  END
>  <Dataset>  (908) 
ChEMBL_Kinases

>  <Ligand_Instance>  (908) 
nan

>  <PDB_ID>  (908) 
nan

>  <Standardized_SMILES>  (908) 
Cn1c(CC(=O)Nc2ccc(F)c(Br)c2)nc(N2CCOCC2)cc1=O

>  <Name>  (908) 
nan

>  <Pocket>  (908) 
nan

>  <ATP_Site>  (908) 
nan

>  <Peripheral>  (908) 
nan

>  <Num_H_Atoms_ProtBoundConf>  (908) 
nan

>  <Num_Resolved_Atoms>  (908) 
nan

>  <Num_Not_Resolved_Atoms>  (908) 
nan

$$$$
CHEMBL2151932
     RDKit          3D

  0  0  0  0  0  0  0  0  0  0999 V3000
M  V30 BEGIN CTAB
M  V30 COUNTS 44 46 0 0 0
M  V30 BEGIN ATOM
M  V30 1 C 1.631030 -3.459890 -0.722603 0
M  V30 2 N 0.660228 -2.851933 0.168066 0
M  V30 3 C 0.975363 -1.783361 0.945186 0
M  V30 4 C 2.343692 -1.204807 0.898631 0
M  V30 5 C 2.406725 -0.132443 -0.157926 0
M  V30 6 O 1.216967 -0.192801 -0.563726 0
M  V30 7 N 3.617003 0.571927 -0.393682 0
M  V30 8 C 3.452458 1.545232 -1.440015 0
M  V30 9 C 3.686235 1.218765 -2.764655 0
M  V30 10 C 3.522589 2.167784 -3.751789 0
M  V30 11 C 3.124758 3.416752 -3.338938 0
M  V30 12 F 2.944675 4.401218 -4.265949 0
M  V30 13 C 2.880008 3.786856 -2.027171 0
M  V30 14 F 2.487113 5.049479 -1.696928 0
M  V30 15 C 3.056013 2.807223 -1.075333 0
M  V30 16 N 0.065869 -1.226089 1.768876 0
M  V30 17 C -1.194077 -1.684692 1.873639 0
M  V30 18 N -2.179151 -1.119725 2.732828 0
M  V30 19 C -3.537974 -1.621374 2.835016 0
M  V30 20 C -4.279639 -0.638680 3.731161 0
M  V30 21 O -3.694980 -0.569067 4.976505 0
M  V30 22 C -2.326361 -0.410171 4.977959 0
M  V30 23 C -1.873815 0.023696 3.581109 0
M  V30 24 C -1.559365 -2.770481 1.101618 0
M  V30 25 C -0.603370 -3.321324 0.265202 0
M  V30 26 O -0.932090 -4.296673 -0.428246 0
M  V30 27 H 1.086772 -4.060995 -1.479049 0
M  V30 28 H 2.335783 -2.722195 -1.136261 0
M  V30 29 H 2.187691 -4.217352 -0.102569 0
M  V30 30 H 2.538061 -0.691246 1.876286 0
M  V30 31 H 3.140639 -1.941035 0.771710 0
M  V30 32 H 4.412532 0.297148 0.195262 0
M  V30 33 H 3.993583 0.209226 -2.963868 0
M  V30 34 H 3.704747 1.907715 -4.770382 0
M  V30 35 H 2.881152 3.030566 -0.026606 0
M  V30 36 H -4.049093 -1.676920 1.854350 0
M  V30 37 H -3.518636 -2.585625 3.376310 0
M  V30 38 H -5.294364 -1.062280 3.876023 0
M  V30 39 H -4.358759 0.372117 3.300417 0
M  V30 40 H -1.891140 -1.439161 5.093316 0
M  V30 41 H -1.922522 0.238333 5.764334 0
M  V30 42 H -0.783795 0.202797 3.620455 0
M  V30 43 H -2.400082 0.942023 3.254110 0
M  V30 44 H -2.554589 -3.179357 1.144914 0
M  V30 END ATOM
M  V30 BEGIN BOND
M  V30 1 1 1 2
M  V30 2 1 2 3
M  V30 3 1 3 4
M  V30 4 1 4 5
M  V30 5 2 5 6
M  V30 6 1 5 7
M  V30 7 1 7 8
M  V30 8 2 8 9
M  V30 9 1 9 10
M  V30 10 2 10 11
M  V30 11 1 11 12
M  V30 12 1 11 13
M  V30 13 1 13 14
M  V30 14 2 13 15
M  V30 15 2 3 16
M  V30 16 1 16 17
M  V30 17 1 17 18
M  V30 18 1 18 19
M  V30 19 1 19 20
M  V30 20 1 20 21
M  V30 21 1 21 22
M  V30 22 1 22 23
M  V30 23 2 17 24
M  V30 24 1 24 25
M  V30 25 2 25 26
M  V30 26 1 25 2
M  V30 27 1 15 8
M  V30 28 1 23 18
M  V30 29 1 1 27
M  V30 30 1 1 28
M  V30 31 1 1 29
M  V30 32 1 4 30
M  V30 33 1 4 31
M  V30 34 1 7 32
M  V30 35 1 9 33
M  V30 36 1 10 34
M  V30 37 1 15 35
M  V30 38 1 19 36
M  V30 39 1 19 37
M  V30 40 1 20 38
M  V30 41 1 20 39
M  V30 42 1 22 40
M  V30 43 1 22 41
M  V30 44 1 23 42
M  V30 45 1 23 43
M  V30 46 1 24 44
M  V30 END BOND
M  V30 END CTAB
M  END
>  <Dataset>  (909) 
ChEMBL_Kinases

>  <Ligand_Instance>  (909) 
nan

>  <PDB_ID>  (909) 
nan

>  <Standardized_SMILES>  (909) 
Cn1c(CC(=O)Nc2ccc(F)c(F)c2)nc(N2CCOCC2)cc1=O

>  <Name>  (909) 
nan

>  <Pocket>  (909) 
nan

>  <ATP_Site>  (909) 
nan

>  <Peripheral>  (909) 
nan

>  <Num_H_Atoms_ProtBoundConf>  (909) 
nan

>  <Num_Resolved_Atoms>  (909) 
nan

>  <Num_Not_Resolved_Atoms>  (909) 
nan

$$$$
CHEMBL2151930
     RDKit          3D

  0  0  0  0  0  0  0  0  0  0999 V3000
M  V30 BEGIN CTAB
M  V30 COUNTS 44 46 0 0 0
M  V30 BEGIN ATOM
M  V30 1 C -0.175151 -3.803207 -0.150663 0
M  V30 2 N -0.515671 -2.804338 0.816150 0
M  V30 3 C 0.331751 -1.805491 1.061037 0
M  V30 4 C 1.622679 -1.714620 0.345518 0
M  V30 5 C 1.499702 -0.919027 -0.922856 0
M  V30 6 O 0.501733 -0.345435 -1.439622 0
M  V30 7 N 2.692951 -0.775279 -1.683623 0
M  V30 8 C 2.606816 -0.022668 -2.896654 0
M  V30 9 C 2.308744 -0.552203 -4.145674 0
M  V30 10 C 2.258705 0.295161 -5.236315 0
M  V30 11 C 2.491653 1.647489 -5.143230 0
M  V30 12 C 2.794612 2.223279 -3.909069 0
M  V30 13 C 2.838973 1.344928 -2.822585 0
M  V30 14 N 0.089964 -0.843977 1.939459 0
M  V30 15 C -1.039207 -0.791248 2.665800 0
M  V30 16 N -1.276190 0.250320 3.602411 0
M  V30 17 C -2.436257 0.442504 4.449206 0
M  V30 18 C -1.952276 0.285893 5.868716 0
M  V30 19 O -0.586484 0.344112 5.986510 0
M  V30 20 C 0.035761 1.336164 5.251552 0
M  V30 21 C -0.260414 1.271979 3.768020 0
M  V30 22 C -1.927197 -1.816731 2.425317 0
M  V30 23 C -1.668289 -2.819981 1.504734 0
M  V30 24 O -2.513455 -3.736978 1.320725 0
M  V30 25 H -0.992061 -4.572651 -0.234282 0
M  V30 26 H -0.078817 -3.367614 -1.163400 0
M  V30 27 H 0.755392 -4.360061 0.138080 0
M  V30 28 H 1.971279 -2.726641 -0.000437 0
M  V30 29 H 2.400393 -1.299844 1.008790 0
M  V30 30 H 3.625632 -1.169185 -1.436963 0
M  V30 31 H 2.131197 -1.617393 -4.184041 0
M  V30 32 H 2.026547 -0.118732 -6.207714 0
M  V30 33 H 2.454068 2.316384 -5.992853 0
M  V30 34 H 2.989921 3.266411 -3.745670 0
M  V30 35 H 3.073529 1.779108 -1.856186 0
M  V30 36 H -2.759827 1.510107 4.345997 0
M  V30 37 H -3.220465 -0.248274 4.144021 0
M  V30 38 H -2.286201 -0.710944 6.224282 0
M  V30 39 H -2.446870 1.031776 6.546810 0
M  V30 40 H 1.139412 1.121987 5.343273 0
M  V30 41 H -0.103511 2.341982 5.690489 0
M  V30 42 H 0.612404 1.087706 3.137754 0
M  V30 43 H -0.762817 2.233976 3.508191 0
M  V30 44 H -2.854771 -1.859565 2.956580 0
M  V30 END ATOM
M  V30 BEGIN BOND
M  V30 1 1 1 2
M  V30 2 1 2 3
M  V30 3 1 3 4
M  V30 4 1 4 5
M  V30 5 2 5 6
M  V30 6 1 5 7
M  V30 7 1 7 8
M  V30 8 2 8 9
M  V30 9 1 9 10
M  V30 10 2 10 11
M  V30 11 1 11 12
M  V30 12 2 12 13
M  V30 13 2 3 14
M  V30 14 1 14 15
M  V30 15 1 15 16
M  V30 16 1 16 17
M  V30 17 1 17 18
M  V30 18 1 18 19
M  V30 19 1 19 20
M  V30 20 1 20 21
M  V30 21 2 15 22
M  V30 22 1 22 23
M  V30 23 2 23 24
M  V30 24 1 23 2
M  V30 25 1 13 8
M  V30 26 1 21 16
M  V30 27 1 1 25
M  V30 28 1 1 26
M  V30 29 1 1 27
M  V30 30 1 4 28
M  V30 31 1 4 29
M  V30 32 1 7 30
M  V30 33 1 9 31
M  V30 34 1 10 32
M  V30 35 1 11 33
M  V30 36 1 12 34
M  V30 37 1 13 35
M  V30 38 1 17 36
M  V30 39 1 17 37
M  V30 40 1 18 38
M  V30 41 1 18 39
M  V30 42 1 20 40
M  V30 43 1 20 41
M  V30 44 1 21 42
M  V30 45 1 21 43
M  V30 46 1 22 44
M  V30 END BOND
M  V30 END CTAB
M  END
>  <Dataset>  (910) 
ChEMBL_Kinases

>  <Ligand_Instance>  (910) 
nan

>  <PDB_ID>  (910) 
nan

>  <Standardized_SMILES>  (910) 
Cn1c(CC(=O)Nc2ccccc2)nc(N2CCOCC2)cc1=O

>  <Name>  (910) 
nan

>  <Pocket>  (910) 
nan

>  <ATP_Site>  (910) 
nan

>  <Peripheral>  (910) 
nan

>  <Num_H_Atoms_ProtBoundConf>  (910) 
nan

>  <Num_Resolved_Atoms>  (910) 
nan

>  <Num_Not_Resolved_Atoms>  (910) 
nan

$$$$
CHEMBL215193
     RDKit          3D

  0  0  0  0  0  0  0  0  0  0999 V3000
M  V30 BEGIN CTAB
M  V30 COUNTS 47 49 0 0 0
M  V30 BEGIN ATOM
M  V30 1 C 2.496044 -1.301550 -1.580612 0
M  V30 2 C 3.721422 -0.548371 -1.116082 0
M  V30 3 C 4.763501 -0.499575 -2.193424 0
M  V30 4 O 5.151933 -1.831735 -2.471478 0
M  V30 5 N 3.262660 0.798242 -0.755004 0
M  V30 6 C 2.651616 0.858352 0.378143 0
M  V30 7 N 2.460187 -0.270820 1.163748 0
M  V30 8 C 2.144899 2.090608 0.917932 0
M  V30 9 C 2.256435 3.287056 0.298925 0
M  V30 10 O 2.867059 3.516037 -0.957114 0
M  V30 11 N 1.845970 4.526831 0.674625 0
M  V30 12 S 1.098296 3.999726 2.295756 0
M  V30 13 C 1.460120 2.349006 2.152138 0
M  V30 14 N 1.151569 1.275336 3.091812 0
M  V30 15 C -0.126038 0.615487 3.102645 0
M  V30 16 C -0.447355 -0.483127 3.880050 0
M  V30 17 C -1.712567 -1.036921 3.827453 0
M  V30 18 C -2.696003 -0.520042 3.004262 0
M  V30 19 O -3.990030 -0.998051 2.879662 0
M  V30 20 C -4.294851 -1.984320 1.953894 0
M  V30 21 C -3.274372 -2.501433 1.153512 0
M  V30 22 C -3.516261 -3.483319 0.214599 0
M  V30 23 Cl -2.308535 -4.192943 -0.831350 0
M  V30 24 C -4.808528 -3.987525 0.043410 0
M  V30 25 C -5.800595 -3.457057 0.849541 0
M  V30 26 C -5.580213 -2.461946 1.807832 0
M  V30 27 Cl -6.825258 -1.799179 2.812018 0
M  V30 28 C -2.419318 0.587484 2.201026 0
M  V30 29 C -1.125092 1.108019 2.292903 0
M  V30 30 H 1.629095 -0.937706 -0.986674 0
M  V30 31 H 2.599933 -2.395519 -1.438764 0
M  V30 32 H 2.244062 -1.116141 -2.644816 0
M  V30 33 H 4.176933 -1.058964 -0.250703 0
M  V30 34 H 4.416364 -0.030933 -3.138198 0
M  V30 35 H 5.684667 0.016272 -1.849447 0
M  V30 36 H 4.447461 -2.339896 -2.918957 0
M  V30 37 H 2.772264 -0.481500 2.120195 0
M  V30 38 H 2.541876 -0.873868 2.007870 0
M  V30 39 H 3.766926 3.171562 -1.207059 0
M  V30 40 H 1.814040 0.891703 3.830363 0
M  V30 41 H 0.330932 -0.871467 4.512044 0
M  V30 42 H -1.974688 -1.887128 4.423801 0
M  V30 43 H -2.248609 -2.176423 1.212233 0
M  V30 44 H -5.101356 -4.743198 -0.651650 0
M  V30 45 H -6.845729 -3.770858 0.806507 0
M  V30 46 H -3.162101 1.028187 1.540695 0
M  V30 47 H -0.908680 1.977339 1.663330 0
M  V30 END ATOM
M  V30 BEGIN BOND
M  V30 1 1 1 2
M  V30 2 1 2 3
M  V30 3 1 3 4
M  V30 4 1 2 5
M  V30 5 2 5 6
M  V30 6 1 6 7
M  V30 7 1 6 8
M  V30 8 1 8 9
M  V30 9 1 9 10
M  V30 10 2 9 11
M  V30 11 1 11 12
M  V30 12 1 12 13
M  V30 13 1 13 14
M  V30 14 1 14 15
M  V30 15 2 15 16
M  V30 16 1 16 17
M  V30 17 2 17 18
M  V30 18 1 18 19
M  V30 19 1 19 20
M  V30 20 2 20 21
M  V30 21 1 21 22
M  V30 22 1 22 23
M  V30 23 2 22 24
M  V30 24 1 24 25
M  V30 25 2 25 26
M  V30 26 1 26 27
M  V30 27 1 18 28
M  V30 28 2 28 29
M  V30 29 2 13 8
M  V30 30 1 29 15
M  V30 31 1 26 20
M  V30 32 1 1 30
M  V30 33 1 1 31
M  V30 34 1 1 32
M  V30 35 1 2 33
M  V30 36 1 3 34
M  V30 37 1 3 35
M  V30 38 1 4 36
M  V30 39 1 7 37
M  V30 40 1 7 38
M  V30 41 1 10 39
M  V30 42 1 14 40
M  V30 43 1 16 41
M  V30 44 1 17 42
M  V30 45 1 21 43
M  V30 46 1 24 44
M  V30 47 1 25 45
M  V30 48 1 28 46
M  V30 49 1 29 47
M  V30 END BOND
M  V30 END CTAB
M  END
>  <Dataset>  (911) 
ChEMBL_Kinases

>  <Ligand_Instance>  (911) 
nan

>  <PDB_ID>  (911) 
nan

>  <Standardized_SMILES>  (911) 
CC(CO)/N=C(\N)c1c(O)nsc1Nc1ccc(Oc2cc(Cl)ccc2Cl)cc1

>  <Name>  (911) 
nan

>  <Pocket>  (911) 
nan

>  <ATP_Site>  (911) 
nan

>  <Peripheral>  (911) 
nan

>  <Num_H_Atoms_ProtBoundConf>  (911) 
nan

>  <Num_Resolved_Atoms>  (911) 
nan

>  <Num_Not_Resolved_Atoms>  (911) 
nan

$$$$
CHEMBL2151929
     RDKit          3D

  0  0  0  0  0  0  0  0  0  0999 V3000
M  V30 BEGIN CTAB
M  V30 COUNTS 43 45 0 0 0
M  V30 BEGIN ATOM
M  V30 1 O 1.489196 -3.475460 3.390638 0
M  V30 2 C 1.223410 -2.237447 3.422693 0
M  V30 3 C 2.014732 -1.218685 4.200775 0
M  V30 4 C 1.877875 0.088315 3.436516 0
M  V30 5 N 1.862070 -0.085961 2.104987 0
M  V30 6 C 1.708408 0.911488 1.221851 0
M  V30 7 N 1.646859 0.726839 -0.196149 0
M  V30 8 C 0.371595 1.206464 -0.656548 0
M  V30 9 C 0.306327 1.574813 -2.106434 0
M  V30 10 O 1.187629 0.877679 -2.921028 0
M  V30 11 C 2.471287 1.093800 -2.397950 0
M  V30 12 C 2.571546 0.175958 -1.197145 0
M  V30 13 C 1.562284 2.198426 1.750944 0
M  V30 14 C 1.582905 2.361736 3.115201 0
M  V30 15 O 1.453636 3.511631 3.654483 0
M  V30 16 N 1.738063 1.320932 3.950093 0
M  V30 17 N 0.121275 -1.811685 2.662120 0
M  V30 18 C -0.861156 -2.343782 1.789098 0
M  V30 19 C -0.228187 -2.397853 0.526843 0
M  V30 20 C -0.847952 -2.838543 -0.643106 0
M  V30 21 C -2.178636 -3.247495 -0.530659 0
M  V30 22 F -2.891911 -3.686989 -1.593916 0
M  V30 23 C -2.774196 -3.186334 0.713173 0
M  V30 24 N -4.133410 -3.578129 0.847129 0 CHG=1 VAL=4
M  V30 25 O -5.006118 -3.200979 1.637715 0
M  V30 26 O -4.605737 -4.534603 -0.044822 0 CHG=-1 VAL=1
M  V30 27 C -2.166231 -2.753857 1.859918 0
M  V30 28 H 3.077803 -1.500002 4.176136 0
M  V30 29 H 1.638902 -1.100526 5.214163 0
M  V30 30 H 0.088028 2.107395 -0.085628 0
M  V30 31 H -0.375552 0.405765 -0.440097 0
M  V30 32 H -0.734944 1.346564 -2.479402 0
M  V30 33 H 0.512412 2.661937 -2.250772 0
M  V30 34 H 2.479803 2.138458 -1.983849 0
M  V30 35 H 3.263843 0.939926 -3.137880 0
M  V30 36 H 3.584371 0.083041 -0.808920 0
M  V30 37 H 2.140967 -0.818489 -1.514026 0
M  V30 38 H 1.438016 3.056900 1.092218 0
M  V30 39 H 1.763644 1.357865 4.998360 0
M  V30 40 H -0.234393 -0.815398 2.634161 0
M  V30 41 H 0.794503 -2.126085 0.243460 0
M  V30 42 H -0.448584 -2.908356 -1.624471 0
M  V30 43 H -2.509416 -2.658653 2.858920 0
M  V30 END ATOM
M  V30 BEGIN BOND
M  V30 1 2 1 2
M  V30 2 1 2 3
M  V30 3 1 3 4
M  V30 4 2 4 5
M  V30 5 1 5 6
M  V30 6 1 6 7
M  V30 7 1 7 8
M  V30 8 1 8 9
M  V30 9 1 9 10
M  V30 10 1 10 11
M  V30 11 1 11 12
M  V30 12 2 6 13
M  V30 13 1 13 14
M  V30 14 2 14 15
M  V30 15 1 14 16
M  V30 16 1 2 17
M  V30 17 1 17 18
M  V30 18 2 18 19
M  V30 19 1 19 20
M  V30 20 2 20 21
M  V30 21 1 21 22
M  V30 22 1 21 23
M  V30 23 1 23 24
M  V30 24 2 24 25
M  V30 25 1 24 26
M  V30 26 2 23 27
M  V30 27 1 16 4
M  V30 28 1 27 18
M  V30 29 1 12 7
M  V30 30 1 3 28
M  V30 31 1 3 29
M  V30 32 1 8 30
M  V30 33 1 8 31
M  V30 34 1 9 32
M  V30 35 1 9 33
M  V30 36 1 11 34
M  V30 37 1 11 35
M  V30 38 1 12 36
M  V30 39 1 12 37
M  V30 40 1 13 38
M  V30 41 1 16 39
M  V30 42 1 17 40
M  V30 43 1 19 41
M  V30 44 1 20 42
M  V30 45 1 27 43
M  V30 END BOND
M  V30 END CTAB
M  END
>  <Dataset>  (912) 
ChEMBL_Kinases

>  <Ligand_Instance>  (912) 
nan

>  <PDB_ID>  (912) 
nan

>  <Standardized_SMILES>  (912) 
O=C(Cc1nc(N2CCOCC2)cc(=O)[nH]1)Nc1ccc(F)c([N+](=O)[O-])c1

>  <Name>  (912) 
nan

>  <Pocket>  (912) 
nan

>  <ATP_Site>  (912) 
nan

>  <Peripheral>  (912) 
nan

>  <Num_H_Atoms_ProtBoundConf>  (912) 
nan

>  <Num_Resolved_Atoms>  (912) 
nan

>  <Num_Not_Resolved_Atoms>  (912) 
nan

$$$$
CHEMBL2151928
     RDKit          3D

  0  0  0  0  0  0  0  0  0  0999 V3000
M  V30 BEGIN CTAB
M  V30 COUNTS 47 49 0 0 0
M  V30 BEGIN ATOM
M  V30 1 C 0.782692 -6.274601 3.382679 0
M  V30 2 O 0.241665 -5.851335 2.148260 0
M  V30 3 C 0.587430 -4.627489 1.597408 0
M  V30 4 O 1.406997 -3.885547 2.226522 0
M  V30 5 C 0.093178 -4.092262 0.336464 0
M  V30 6 C 0.399902 -2.851644 -0.142552 0
M  V30 7 C -0.126531 -2.415231 -1.365507 0
M  V30 8 N 0.268488 -1.097860 -1.728436 0
M  V30 9 C 1.266656 -0.322193 -2.370075 0
M  V30 10 O 2.276334 -0.909659 -2.866215 0
M  V30 11 C 1.090967 1.148985 -2.432016 0
M  V30 12 C 0.148975 1.611691 -1.357501 0
M  V30 13 N 0.560346 1.914501 -0.097527 0
M  V30 14 C -0.332457 2.320620 0.837108 0
M  V30 15 N 0.167495 2.617236 2.130169 0
M  V30 16 C 1.578183 2.795654 2.412566 0
M  V30 17 C 1.774589 2.958229 3.885499 0
M  V30 18 O 1.222903 1.949459 4.667936 0
M  V30 19 C -0.111781 1.709565 4.360994 0
M  V30 20 C -0.622302 2.755516 3.361697 0
M  V30 21 C -1.673189 2.434655 0.530106 0
M  V30 22 C -2.061747 2.120342 -0.760539 0
M  V30 23 O -3.302863 2.214823 -1.081273 0
M  V30 24 N -1.164442 1.709663 -1.708585 0
M  V30 25 C -0.970592 -3.225018 -2.122059 0
M  V30 26 C -1.298523 -4.479369 -1.666976 0
M  V30 27 C -0.756076 -4.875435 -0.450524 0
M  V30 28 F -1.115270 -6.125482 -0.056032 0
M  V30 29 H 0.426995 -7.307804 3.607928 0
M  V30 30 H 0.443360 -5.544380 4.169302 0
M  V30 31 H 1.899809 -6.243369 3.394009 0
M  V30 32 H 1.059112 -2.252376 0.466783 0
M  V30 33 H -0.552018 -0.592857 -1.328134 0
M  V30 34 H 2.091300 1.585969 -2.162876 0
M  V30 35 H 0.833278 1.546838 -3.413021 0
M  V30 36 H 2.155637 1.937270 2.014719 0
M  V30 37 H 1.982290 3.742290 1.947424 0
M  V30 38 H 1.434987 3.941522 4.220296 0
M  V30 39 H 2.888935 2.932857 4.079677 0
M  V30 40 H -0.748849 1.783872 5.256273 0
M  V30 41 H -0.228017 0.715069 3.911771 0
M  V30 42 H -0.561809 3.773642 3.753980 0
M  V30 43 H -1.694123 2.509572 3.205449 0
M  V30 44 H -2.360011 2.756816 1.296202 0
M  V30 45 H -1.522870 1.486451 -2.679588 0
M  V30 46 H -1.339497 -2.825236 -3.056649 0
M  V30 47 H -1.949448 -5.118229 -2.233541 0
M  V30 END ATOM
M  V30 BEGIN BOND
M  V30 1 1 1 2
M  V30 2 1 2 3
M  V30 3 2 3 4
M  V30 4 1 3 5
M  V30 5 2 5 6
M  V30 6 1 6 7
M  V30 7 1 7 8
M  V30 8 1 8 9
M  V30 9 2 9 10
M  V30 10 1 9 11
M  V30 11 1 11 12
M  V30 12 2 12 13
M  V30 13 1 13 14
M  V30 14 1 14 15
M  V30 15 1 15 16
M  V30 16 1 16 17
M  V30 17 1 17 18
M  V30 18 1 18 19
M  V30 19 1 19 20
M  V30 20 2 14 21
M  V30 21 1 21 22
M  V30 22 2 22 23
M  V30 23 1 22 24
M  V30 24 2 7 25
M  V30 25 1 25 26
M  V30 26 2 26 27
M  V30 27 1 27 28
M  V30 28 1 27 5
M  V30 29 1 24 12
M  V30 30 1 20 15
M  V30 31 1 1 29
M  V30 32 1 1 30
M  V30 33 1 1 31
M  V30 34 1 6 32
M  V30 35 1 8 33
M  V30 36 1 11 34
M  V30 37 1 11 35
M  V30 38 1 16 36
M  V30 39 1 16 37
M  V30 40 1 17 38
M  V30 41 1 17 39
M  V30 42 1 19 40
M  V30 43 1 19 41
M  V30 44 1 20 42
M  V30 45 1 20 43
M  V30 46 1 21 44
M  V30 47 1 24 45
M  V30 48 1 25 46
M  V30 49 1 26 47
M  V30 END BOND
M  V30 END CTAB
M  END
>  <Dataset>  (913) 
ChEMBL_Kinases

>  <Ligand_Instance>  (913) 
nan

>  <PDB_ID>  (913) 
nan

>  <Standardized_SMILES>  (913) 
COC(=O)c1cc(NC(=O)Cc2nc(N3CCOCC3)cc(=O)[nH]2)ccc1F

>  <Name>  (913) 
nan

>  <Pocket>  (913) 
nan

>  <ATP_Site>  (913) 
nan

>  <Peripheral>  (913) 
nan

>  <Num_H_Atoms_ProtBoundConf>  (913) 
nan

>  <Num_Resolved_Atoms>  (913) 
nan

>  <Num_Not_Resolved_Atoms>  (913) 
nan

$$$$
CHEMBL2151927
     RDKit          3D

  0  0  0  0  0  0  0  0  0  0999 V3000
M  V30 BEGIN CTAB
M  V30 COUNTS 45 47 0 0 0
M  V30 BEGIN ATOM
M  V30 1 C 1.394710 -5.722281 0.950070 0
M  V30 2 O 0.110631 -6.116203 0.506289 0
M  V30 3 C -0.714342 -5.310888 -0.250084 0
M  V30 4 C -0.393360 -4.020266 -0.670002 0
M  V30 5 C -1.301135 -3.279066 -1.437781 0
M  V30 6 N -0.727500 -1.998026 -1.731729 0
M  V30 7 C -0.847106 -0.827655 -0.959649 0
M  V30 8 O -1.512712 -0.838927 0.110768 0
M  V30 9 C -0.145808 0.355112 -1.508441 0
M  V30 10 C -0.355199 1.521967 -0.592483 0
M  V30 11 N 0.576080 1.616152 0.345084 0
M  V30 12 C 0.599655 2.587433 1.287396 0
M  V30 13 N 1.610221 2.668291 2.284300 0
M  V30 14 C 1.683630 3.683984 3.316502 0
M  V30 15 C 2.049246 2.944798 4.610564 0
M  V30 16 O 3.298039 2.366383 4.388100 0
M  V30 17 C 3.034709 1.202181 3.631304 0
M  V30 18 C 2.644777 1.651207 2.258876 0
M  V30 19 C -0.448957 3.476751 1.175378 0
M  V30 20 C -1.426287 3.391725 0.204554 0
M  V30 21 O -2.370994 4.218037 0.127454 0
M  V30 22 N -1.382044 2.395829 -0.699316 0
M  V30 23 C -2.506780 -3.812200 -1.781770 0
M  V30 24 C -2.816290 -5.089576 -1.362229 0
M  V30 25 C -1.946800 -5.852304 -0.603309 0
M  V30 26 F -2.295359 -7.101595 -0.215101 0
M  V30 27 H 2.105640 -5.816755 0.124731 0
M  V30 28 H 1.719326 -6.368141 1.790210 0
M  V30 29 H 1.378892 -4.663355 1.305535 0
M  V30 30 H 0.587718 -3.728842 -0.326709 0
M  V30 31 H -0.226488 -2.177385 -2.630415 0
M  V30 32 H 0.911805 0.199961 -1.726434 0
M  V30 33 H -0.703733 0.621013 -2.445926 0
M  V30 34 H 0.788125 4.289023 3.436014 0
M  V30 35 H 2.604984 4.284317 3.086292 0
M  V30 36 H 1.994094 3.597151 5.483718 0
M  V30 37 H 1.249387 2.156525 4.699157 0
M  V30 38 H 2.222441 0.678156 4.174023 0
M  V30 39 H 3.887255 0.525965 3.568294 0
M  V30 40 H 3.553868 2.164683 1.833685 0
M  V30 41 H 2.406577 0.827393 1.572828 0
M  V30 42 H -0.524060 4.292778 1.880271 0
M  V30 43 H -2.052242 2.237585 -1.459655 0
M  V30 44 H -3.097689 -3.144109 -2.364217 0
M  V30 45 H -3.788092 -5.459835 -1.666001 0
M  V30 END ATOM
M  V30 BEGIN BOND
M  V30 1 1 1 2
M  V30 2 1 2 3
M  V30 3 2 3 4
M  V30 4 1 4 5
M  V30 5 1 5 6
M  V30 6 1 6 7
M  V30 7 2 7 8
M  V30 8 1 7 9
M  V30 9 1 9 10
M  V30 10 2 10 11
M  V30 11 1 11 12
M  V30 12 1 12 13
M  V30 13 1 13 14
M  V30 14 1 14 15
M  V30 15 1 15 16
M  V30 16 1 16 17
M  V30 17 1 17 18
M  V30 18 2 12 19
M  V30 19 1 19 20
M  V30 20 2 20 21
M  V30 21 1 20 22
M  V30 22 2 5 23
M  V30 23 1 23 24
M  V30 24 2 24 25
M  V30 25 1 25 26
M  V30 26 1 25 3
M  V30 27 1 22 10
M  V30 28 1 18 13
M  V30 29 1 1 27
M  V30 30 1 1 28
M  V30 31 1 1 29
M  V30 32 1 4 30
M  V30 33 1 6 31
M  V30 34 1 9 32
M  V30 35 1 9 33
M  V30 36 1 14 34
M  V30 37 1 14 35
M  V30 38 1 15 36
M  V30 39 1 15 37
M  V30 40 1 17 38
M  V30 41 1 17 39
M  V30 42 1 18 40
M  V30 43 1 18 41
M  V30 44 1 19 42
M  V30 45 1 22 43
M  V30 46 1 23 44
M  V30 47 1 24 45
M  V30 END BOND
M  V30 END CTAB
M  END
>  <Dataset>  (914) 
ChEMBL_Kinases

>  <Ligand_Instance>  (914) 
nan

>  <PDB_ID>  (914) 
nan

>  <Standardized_SMILES>  (914) 
COc1cc(NC(=O)Cc2nc(N3CCOCC3)cc(=O)[nH]2)ccc1F

>  <Name>  (914) 
nan

>  <Pocket>  (914) 
nan

>  <ATP_Site>  (914) 
nan

>  <Peripheral>  (914) 
nan

>  <Num_H_Atoms_ProtBoundConf>  (914) 
nan

>  <Num_Resolved_Atoms>  (914) 
nan

>  <Num_Not_Resolved_Atoms>  (914) 
nan

$$$$
CHEMBL215116
     RDKit          3D

  0  0  0  0  0  0  0  0  0  0999 V3000
M  V30 BEGIN CTAB
M  V30 COUNTS 48 51 0 0 0
M  V30 BEGIN ATOM
M  V30 1 O 2.835109 -3.386479 -2.214177 0
M  V30 2 C 2.836902 -4.522038 -1.624255 0
M  V30 3 O 4.189724 -4.395876 -1.428823 0
M  V30 4 C 1.356945 -4.686332 -1.824470 0
M  V30 5 C 0.794729 -3.530469 -2.564294 0
M  V30 6 C 0.460021 -3.609096 -3.923456 0
M  V30 7 C -0.054309 -2.556952 -4.652543 0
M  V30 8 C -0.237974 -1.375996 -3.982045 0
M  V30 9 C 0.068883 -1.232348 -2.655746 0
M  V30 10 N -0.050452 -0.071183 -1.840500 0
M  V30 11 C 0.335968 0.002825 -0.463032 0
M  V30 12 N 1.688827 0.013597 -0.456504 0
M  V30 13 C 2.392875 0.077349 0.701254 0
M  V30 14 C 1.627674 0.130843 1.860878 0
M  V30 15 C 1.981542 0.198703 3.217883 0
M  V30 16 C 0.793505 0.220773 3.887132 0
M  V30 17 N -0.280972 0.176652 3.115891 0
M  V30 18 C -1.642039 0.188019 3.559371 0
M  V30 19 C -1.840895 1.052075 4.816696 0
M  V30 20 C -1.302958 2.403127 4.506108 0
M  V30 21 C -1.638622 2.955233 3.160904 0
M  V30 22 C -2.622964 2.187725 2.371382 0
M  V30 23 C -2.619952 0.717094 2.549939 0
M  V30 24 C 0.253479 0.121738 1.887006 0
M  V30 25 N -0.356276 0.054864 0.665455 0
M  V30 26 C 0.579967 -2.314729 -1.970268 0
M  V30 27 H 4.584756 -4.137295 -0.514456 0
M  V30 28 H 0.845262 -4.869732 -0.876325 0
M  V30 29 H 1.270468 -5.620931 -2.437215 0
M  V30 30 H 0.621276 -4.542498 -4.402580 0
M  V30 31 H -0.308057 -2.633284 -5.699776 0
M  V30 32 H -0.633287 -0.475311 -4.438112 0
M  V30 33 H -0.373460 0.912367 -1.876189 0
M  V30 34 H 3.481004 0.090771 0.778205 0
M  V30 35 H 3.022077 0.218056 3.506577 0
M  V30 36 H 0.899702 0.271783 4.981876 0
M  V30 37 H -1.998828 -0.845390 3.839253 0
M  V30 38 H -2.917892 1.135254 5.017804 0
M  V30 39 H -1.268973 0.624016 5.667350 0
M  V30 40 H -0.198380 2.374552 4.639953 0
M  V30 41 H -1.648216 3.095843 5.328015 0
M  V30 42 H -2.062355 3.991874 3.323993 0
M  V30 43 H -0.709878 3.129118 2.555817 0
M  V30 44 H -3.660169 2.610518 2.518447 0
M  V30 45 H -2.421772 2.400266 1.278288 0
M  V30 46 H -3.635783 0.399737 2.933811 0
M  V30 47 H -2.544812 0.167863 1.570544 0
M  V30 48 H 0.852607 -2.283907 -0.900339 0
M  V30 END ATOM
M  V30 BEGIN BOND
M  V30 1 2 1 2
M  V30 2 1 2 3
M  V30 3 1 2 4
M  V30 4 1 4 5
M  V30 5 2 5 6
M  V30 6 1 6 7
M  V30 7 2 7 8
M  V30 8 1 8 9
M  V30 9 1 9 10
M  V30 10 1 10 11
M  V30 11 2 11 12
M  V30 12 1 12 13
M  V30 13 2 13 14
M  V30 14 1 14 15
M  V30 15 2 15 16
M  V30 16 1 16 17
M  V30 17 1 17 18
M  V30 18 1 18 19
M  V30 19 1 19 20
M  V30 20 1 20 21
M  V30 21 1 21 22
M  V30 22 1 22 23
M  V30 23 1 17 24
M  V30 24 2 24 25
M  V30 25 2 9 26
M  V30 26 1 26 5
M  V30 27 1 25 11
M  V30 28 1 24 14
M  V30 29 1 23 18
M  V30 30 1 3 27
M  V30 31 1 4 28
M  V30 32 1 4 29
M  V30 33 1 6 30
M  V30 34 1 7 31
M  V30 35 1 8 32
M  V30 36 1 10 33
M  V30 37 1 13 34
M  V30 38 1 15 35
M  V30 39 1 16 36
M  V30 40 1 18 37
M  V30 41 1 19 38
M  V30 42 1 19 39
M  V30 43 1 20 40
M  V30 44 1 20 41
M  V30 45 1 21 42
M  V30 46 1 21 43
M  V30 47 1 22 44
M  V30 48 1 22 45
M  V30 49 1 23 46
M  V30 50 1 23 47
M  V30 51 1 26 48
M  V30 END BOND
M  V30 END CTAB
M  END
>  <Dataset>  (915) 
ChEMBL_Kinases

>  <Ligand_Instance>  (915) 
nan

>  <PDB_ID>  (915) 
nan

>  <Standardized_SMILES>  (915) 
O=C(O)Cc1cccc(Nc2ncc3ccn(C4CCCCC4)c3n2)c1

>  <Name>  (915) 
nan

>  <Pocket>  (915) 
nan

>  <ATP_Site>  (915) 
nan

>  <Peripheral>  (915) 
nan

>  <Num_H_Atoms_ProtBoundConf>  (915) 
nan

>  <Num_Resolved_Atoms>  (915) 
nan

>  <Num_Not_Resolved_Atoms>  (915) 
nan

$$$$
CHEMBL215117
     RDKit          3D

  0  0  0  0  0  0  0  0  0  0999 V3000
M  V30 BEGIN CTAB
M  V30 COUNTS 57 61 0 0 0
M  V30 BEGIN ATOM
M  V30 1 O 2.190461 -7.863435 -2.275709 0
M  V30 2 S 1.828125 -6.444844 -2.463891 0
M  V30 3 O 0.545514 -6.227309 -3.175912 0
M  V30 4 C 1.709799 -5.664831 -0.861834 0
M  V30 5 C 2.607970 -4.452725 -0.804391 0
M  V30 6 N 2.425350 -3.577926 -1.941875 0
M  V30 7 C 1.875611 -2.259507 -1.898761 0
M  V30 8 C 1.270227 -1.730203 -0.779450 0
M  V30 9 C 0.773227 -0.444876 -0.817718 0
M  V30 10 C 0.829821 0.385305 -1.912495 0
M  V30 11 N 0.328358 1.708642 -1.980824 0
M  V30 12 C -0.321330 2.434836 -0.948879 0
M  V30 13 N -0.744122 3.685344 -1.166725 0
M  V30 14 C -1.359478 4.484406 -0.315867 0
M  V30 15 C -1.609748 4.006129 0.948841 0
M  V30 16 C -2.212240 4.517129 2.092356 0
M  V30 17 C -2.153683 3.531359 3.051864 0
M  V30 18 N -1.532922 2.436219 2.524011 0
M  V30 19 C -1.289208 1.201794 3.236630 0
M  V30 20 C -1.735664 -0.005123 2.453720 0
M  V30 21 C -3.216515 -0.264262 2.738930 0
M  V30 22 C -3.407075 -0.747040 4.154379 0
M  V30 23 C -2.298584 -0.198617 5.036445 0
M  V30 24 C -2.046171 1.216042 4.557686 0
M  V30 25 C -1.204766 2.725626 1.251945 0
M  V30 26 N -0.592576 2.027037 0.295270 0
M  V30 27 C 1.438680 -0.164306 -3.018930 0
M  V30 28 C 1.944747 -1.446162 -3.009885 0
M  V30 29 C 2.827125 -4.076205 -3.263492 0
M  V30 30 C 3.108109 -5.537511 -3.311190 0
M  V30 31 H 0.652981 -5.415685 -0.644788 0
M  V30 32 H 2.037472 -6.406996 -0.112770 0
M  V30 33 H 3.651219 -4.845749 -0.803838 0
M  V30 34 H 2.372143 -3.884562 0.106087 0
M  V30 35 H 1.173681 -2.302635 0.129524 0
M  V30 36 H 0.312728 -0.089484 0.087170 0
M  V30 37 H 0.445516 2.215530 -2.889737 0
M  V30 38 H -1.664421 5.488234 -0.589327 0
M  V30 39 H -2.616812 5.526216 2.098560 0
M  V30 40 H -2.562098 3.691854 4.039910 0
M  V30 41 H -0.210618 1.177171 3.494677 0
M  V30 42 H -1.687564 0.216666 1.377397 0
M  V30 43 H -1.117719 -0.880965 2.707815 0
M  V30 44 H -3.650268 -0.964341 2.007559 0
M  V30 45 H -3.715408 0.704820 2.616744 0
M  V30 46 H -4.378172 -0.409506 4.558696 0
M  V30 47 H -3.389939 -1.854933 4.177505 0
M  V30 48 H -1.355211 -0.758613 4.838897 0
M  V30 49 H -2.610962 -0.192181 6.081482 0
M  V30 50 H -1.507491 1.773557 5.348380 0
M  V30 51 H -3.028244 1.743135 4.416944 0
M  V30 52 H 1.524283 0.436053 -3.937157 0
M  V30 53 H 2.409296 -1.775183 -3.948318 0
M  V30 54 H 2.040035 -3.760563 -3.986504 0
M  V30 55 H 3.737331 -3.530278 -3.587749 0
M  V30 56 H 3.112833 -5.869700 -4.369711 0
M  V30 57 H 4.108381 -5.800604 -2.920608 0
M  V30 END ATOM
M  V30 BEGIN BOND
M  V30 1 2 1 2
M  V30 2 2 2 3
M  V30 3 1 2 4
M  V30 4 1 4 5
M  V30 5 1 5 6
M  V30 6 1 6 7
M  V30 7 2 7 8
M  V30 8 1 8 9
M  V30 9 2 9 10
M  V30 10 1 10 11
M  V30 11 1 11 12
M  V30 12 2 12 13
M  V30 13 1 13 14
M  V30 14 2 14 15
M  V30 15 1 15 16
M  V30 16 2 16 17
M  V30 17 1 17 18
M  V30 18 1 18 19
M  V30 19 1 19 20
M  V30 20 1 20 21
M  V30 21 1 21 22
M  V30 22 1 22 23
M  V30 23 1 23 24
M  V30 24 1 18 25
M  V30 25 2 25 26
M  V30 26 1 10 27
M  V30 27 2 27 28
M  V30 28 1 6 29
M  V30 29 1 29 30
M  V30 30 1 30 2
M  V30 31 1 28 7
M  V30 32 1 26 12
M  V30 33 1 25 15
M  V30 34 1 24 19
M  V30 35 1 4 31
M  V30 36 1 4 32
M  V30 37 1 5 33
M  V30 38 1 5 34
M  V30 39 1 8 35
M  V30 40 1 9 36
M  V30 41 1 11 37
M  V30 42 1 14 38
M  V30 43 1 16 39
M  V30 44 1 17 40
M  V30 45 1 19 41
M  V30 46 1 20 42
M  V30 47 1 20 43
M  V30 48 1 21 44
M  V30 49 1 21 45
M  V30 50 1 22 46
M  V30 51 1 22 47
M  V30 52 1 23 48
M  V30 53 1 23 49
M  V30 54 1 24 50
M  V30 55 1 24 51
M  V30 56 1 27 52
M  V30 57 1 28 53
M  V30 58 1 29 54
M  V30 59 1 29 55
M  V30 60 1 30 56
M  V30 61 1 30 57
M  V30 END BOND
M  V30 END CTAB
M  END
>  <Dataset>  (916) 
ChEMBL_Kinases

>  <Ligand_Instance>  (916) 
nan

>  <PDB_ID>  (916) 
nan

>  <Standardized_SMILES>  (916) 
O=S1(=O)CCN(c2ccc(Nc3ncc4ccn(C5CCCCC5)c4n3)cc2)CC1

>  <Name>  (916) 
nan

>  <Pocket>  (916) 
nan

>  <ATP_Site>  (916) 
nan

>  <Peripheral>  (916) 
nan

>  <Num_H_Atoms_ProtBoundConf>  (916) 
nan

>  <Num_Resolved_Atoms>  (916) 
nan

>  <Num_Not_Resolved_Atoms>  (916) 
nan

$$$$
CHEMBL2151191
     RDKit          3D

  0  0  0  0  0  0  0  0  0  0999 V3000
M  V30 BEGIN CTAB
M  V30 COUNTS 45 49 0 0 0
M  V30 BEGIN ATOM
M  V30 1 C 0.695324 -3.720362 1.084387 0
M  V30 2 C 1.258442 -2.352663 1.075559 0 CFG=2
M  V30 3 C 1.854926 -1.975898 2.442611 0 CFG=2
M  V30 4 C 1.172706 -2.814713 3.504851 0
M  V30 5 C 1.348630 -0.570513 2.628125 0 CFG=1
M  V30 6 C 2.050875 0.442751 1.832940 0
M  V30 7 C 3.317305 0.399604 1.320512 0
M  V30 8 C 3.873479 1.421322 0.583732 0
M  V30 9 C 3.097193 2.538912 0.361278 0
M  V30 10 C 1.825462 2.666901 0.834222 0
M  V30 11 C 1.321015 1.607444 1.567762 0
M  V30 12 O 1.287638 3.887168 0.460801 0
M  V30 13 C 2.235051 4.540566 -0.368738 0
M  V30 14 O 3.381489 3.718558 -0.338602 0
M  V30 15 O 0.042041 -0.680040 2.081276 0
M  V30 16 C 0.361940 -1.217097 0.793520 0 CFG=2
M  V30 17 C -0.851748 -1.422585 0.038283 0
M  V30 18 C -1.291225 -2.381500 -0.844236 0
M  V30 19 C -2.513074 -2.424171 -1.472503 0
M  V30 20 C -3.409408 -1.418910 -1.212920 0
M  V30 21 C -3.053471 -0.414225 -0.340280 0
M  V30 22 C -1.812912 -0.420845 0.263212 0
M  V30 23 O -4.148581 0.441714 -0.282299 0
M  V30 24 C -5.273716 -0.165570 -0.840770 0
M  V30 25 O -4.694164 -1.160652 -1.662761 0
M  V30 26 H 1.063027 -4.299064 0.186567 0
M  V30 27 H 1.207883 -4.281480 1.932299 0
M  V30 28 H -0.375504 -3.833776 1.214337 0
M  V30 29 H 2.157387 -2.353103 0.391851 0
M  V30 30 H 2.942032 -2.060225 2.472635 0
M  V30 31 H 0.152453 -3.132473 3.219408 0
M  V30 32 H 1.737979 -3.704699 3.797617 0
M  V30 33 H 1.014050 -2.197011 4.438392 0
M  V30 34 H 1.239392 -0.293670 3.695804 0
M  V30 35 H 3.867418 -0.504935 1.533545 0
M  V30 36 H 4.873714 1.348960 0.197835 0
M  V30 37 H 0.299368 1.734737 1.935665 0
M  V30 38 H 1.815767 4.559561 -1.373662 0
M  V30 39 H 2.418184 5.527697 0.092519 0
M  V30 40 H 0.970208 -0.438196 0.243109 0
M  V30 41 H -0.563801 -3.149570 -1.038766 0
M  V30 42 H -2.708245 -3.235858 -2.132284 0
M  V30 43 H -1.650186 0.436406 0.938428 0
M  V30 44 H -5.808032 0.546549 -1.511223 0
M  V30 45 H -5.899476 -0.568049 -0.023890 0
M  V30 END ATOM
M  V30 BEGIN BOND
M  V30 1 1 1 2
M  V30 2 1 2 3
M  V30 3 1 3 4
M  V30 4 1 3 5
M  V30 5 1 5 6
M  V30 6 2 6 7
M  V30 7 1 7 8
M  V30 8 2 8 9
M  V30 9 1 9 10
M  V30 10 2 10 11
M  V30 11 1 10 12
M  V30 12 1 12 13
M  V30 13 1 13 14
M  V30 14 1 5 15
M  V30 15 1 15 16
M  V30 16 1 16 17
M  V30 17 2 17 18
M  V30 18 1 18 19
M  V30 19 2 19 20
M  V30 20 1 20 21
M  V30 21 2 21 22
M  V30 22 1 21 23
M  V30 23 1 23 24
M  V30 24 1 24 25
M  V30 25 1 16 2
M  V30 26 1 22 17
M  V30 27 1 11 6
M  V30 28 1 25 20
M  V30 29 1 14 9
M  V30 30 1 1 26
M  V30 31 1 1 27
M  V30 32 1 1 28
M  V30 33 1 2 29 CFG=3
M  V30 34 1 3 30 CFG=3
M  V30 35 1 4 31
M  V30 36 1 4 32
M  V30 37 1 4 33
M  V30 38 1 5 34 CFG=1
M  V30 39 1 7 35
M  V30 40 1 8 36
M  V30 41 1 11 37
M  V30 42 1 13 38
M  V30 43 1 13 39
M  V30 44 1 16 40 CFG=3
M  V30 45 1 18 41
M  V30 46 1 19 42
M  V30 47 1 22 43
M  V30 48 1 24 44
M  V30 49 1 24 45
M  V30 END BOND
M  V30 END CTAB
M  END
>  <Dataset>  (917) 
ChEMBL_Kinases

>  <Ligand_Instance>  (917) 
nan

>  <PDB_ID>  (917) 
nan

>  <Standardized_SMILES>  (917) 
C[C@@H]1[C@H](C)[C@@H](c2ccc3c(c2)OCO3)O[C@@H]1c1ccc2c(c1)OCO2

>  <Name>  (917) 
nan

>  <Pocket>  (917) 
nan

>  <ATP_Site>  (917) 
nan

>  <Peripheral>  (917) 
nan

>  <Num_H_Atoms_ProtBoundConf>  (917) 
nan

>  <Num_Resolved_Atoms>  (917) 
nan

>  <Num_Not_Resolved_Atoms>  (917) 
nan

$$$$
CHEMBL2151192
     RDKit          3D

  0  0  0  0  0  0  0  0  0  0999 V3000
M  V30 BEGIN CTAB
M  V30 COUNTS 37 40 0 0 0
M  V30 BEGIN ATOM
M  V30 1 N 0.232175 -4.827288 1.712390 0
M  V30 2 C -0.298586 -3.654150 1.607170 0
M  V30 3 N 0.295545 -2.455787 2.108036 0
M  V30 4 C -0.063804 -1.248927 1.396251 0
M  V30 5 C 0.371781 0.002675 2.099917 0
M  V30 6 N 0.992952 0.854900 1.107843 0
M  V30 7 N 2.206668 0.881325 0.835278 0
M  V30 8 C 2.835989 1.712084 -0.136626 0
M  V30 9 C 3.512751 1.099414 -1.178117 0
M  V30 10 C 4.135109 1.873024 -2.139283 0
M  V30 11 C 4.057783 3.245697 -2.023591 0
M  V30 12 Br 4.923940 4.317282 -3.361386 0
M  V30 13 C 3.384103 3.871391 -0.986877 0
M  V30 14 C 2.753441 3.092705 -0.012900 0
M  V30 15 C -0.899009 0.580839 2.610816 0
M  V30 16 N -1.033786 1.435330 3.573167 0
M  V30 17 N -1.975250 0.014486 1.834396 0
M  V30 18 N -1.511958 -1.203406 1.331376 0
M  V30 19 C -2.183124 -2.335627 0.799353 0
M  V30 20 N -3.362116 -2.466681 0.148198 0
M  V30 21 N -3.543394 -3.745050 -0.143817 0
M  V30 22 C -2.492101 -4.466899 0.308897 0
M  V30 23 N -2.228230 -5.728244 0.257807 0
M  V30 24 C -1.604101 -3.605792 0.915610 0
M  V30 25 H 1.157899 -4.885480 2.199116 0
M  V30 26 H 0.930380 -2.579214 2.940342 0
M  V30 27 H 0.357965 -1.324888 0.360335 0
M  V30 28 H 1.035988 -0.177138 2.957787 0
M  V30 29 H 3.574637 0.015656 -1.270737 0
M  V30 30 H 4.656022 1.369277 -2.940862 0
M  V30 31 H 3.324129 4.953739 -0.897168 0
M  V30 32 H 2.212027 3.507850 0.820496 0
M  V30 33 H -1.991768 1.783965 3.858441 0
M  V30 34 H -2.920328 0.426261 1.673322 0
M  V30 35 H -4.024670 -1.669680 -0.084975 0
M  V30 36 H -4.342262 -4.196500 -0.640348 0
M  V30 37 H -2.879150 -6.423571 -0.196686 0
M  V30 END ATOM
M  V30 BEGIN BOND
M  V30 1 2 1 2 CFG=2
M  V30 2 1 2 3
M  V30 3 1 3 4
M  V30 4 1 4 5
M  V30 5 1 5 6
M  V30 6 2 6 7
M  V30 7 1 7 8
M  V30 8 2 8 9
M  V30 9 1 9 10
M  V30 10 2 10 11
M  V30 11 1 11 12
M  V30 12 1 11 13
M  V30 13 2 13 14
M  V30 14 1 5 15
M  V30 15 2 15 16 CFG=2
M  V30 16 1 15 17
M  V30 17 1 17 18
M  V30 18 1 18 19
M  V30 19 1 19 20
M  V30 20 1 20 21
M  V30 21 1 21 22
M  V30 22 2 22 23 CFG=2
M  V30 23 1 22 24
M  V30 24 1 24 2
M  V30 25 1 18 4
M  V30 26 2 24 19
M  V30 27 1 14 8
M  V30 28 1 1 25
M  V30 29 1 3 26
M  V30 30 1 4 27
M  V30 31 1 5 28
M  V30 32 1 9 29
M  V30 33 1 10 30
M  V30 34 1 13 31
M  V30 35 1 14 32
M  V30 36 1 16 33
M  V30 37 1 17 34
M  V30 38 1 20 35
M  V30 39 1 21 36
M  V30 40 1 23 37
M  V30 END BOND
M  V30 END CTAB
M  END
>  <Dataset>  (918) 
ChEMBL_Kinases

>  <Ligand_Instance>  (918) 
nan

>  <PDB_ID>  (918) 
nan

>  <Standardized_SMILES>  (918) 
N=C1NC2C(/N=N/c3ccc(Br)cc3)C(=N)NN2c2[nH][nH]c(=N)c21

>  <Name>  (918) 
nan

>  <Pocket>  (918) 
nan

>  <ATP_Site>  (918) 
nan

>  <Peripheral>  (918) 
nan

>  <Num_H_Atoms_ProtBoundConf>  (918) 
nan

>  <Num_Resolved_Atoms>  (918) 
nan

>  <Num_Not_Resolved_Atoms>  (918) 
nan

$$$$
CHEMBL2151193
     RDKit          3D

  0  0  0  0  0  0  0  0  0  0999 V3000
M  V30 BEGIN CTAB
M  V30 COUNTS 37 41 0 0 0
M  V30 BEGIN ATOM
M  V30 1 C 0.370920 -5.771479 3.787038 0
M  V30 2 O 0.905139 -5.669409 2.480069 0
M  V30 3 C 1.327933 -4.442171 2.008975 0
M  V30 4 C 1.274913 -3.259843 2.724524 0
M  V30 5 C 1.726619 -2.065090 2.164016 0
M  V30 6 C 2.240875 -2.053260 0.863464 0
M  V30 7 C 2.652160 -0.706189 0.480523 0
M  V30 8 N 3.968154 -0.465856 0.511625 0
M  V30 9 N 4.143226 0.808637 0.132170 0
M  V30 10 C 2.906013 1.252576 -0.103878 0
M  V30 11 S 1.951184 2.784506 -0.653222 0
M  V30 12 C 0.354515 1.984473 -0.533992 0
M  V30 13 C -0.862221 2.502916 -0.791414 0
M  V30 14 C -0.961742 3.811803 -1.203457 0
M  V30 15 C -2.216970 4.332174 -1.464545 0
M  V30 16 C -3.355195 3.559015 -1.316933 0
M  V30 17 C -3.197025 2.263869 -0.904441 0
M  V30 18 C -1.970936 1.700336 -0.632358 0
M  V30 19 C -1.715937 0.425454 -0.218366 0
M  V30 20 C -0.486219 -0.078098 0.035498 0
M  V30 21 C 0.646434 0.693680 -0.112136 0
M  V30 22 N 1.924683 0.360486 0.093010 0
M  V30 23 C 2.293879 -3.230399 0.150504 0
M  V30 24 C 1.838366 -4.384737 0.740537 0
M  V30 25 H 0.407709 -6.832431 4.163428 0
M  V30 26 H 0.942677 -5.167177 4.538245 0
M  V30 27 H -0.672557 -5.417990 3.769441 0
M  V30 28 H 0.871941 -3.294092 3.731397 0
M  V30 29 H 1.630582 -1.199862 2.833020 0
M  V30 30 H -0.098776 4.446496 -1.330344 0
M  V30 31 H -2.350815 5.360995 -1.792874 0
M  V30 32 H -4.358149 3.905176 -1.504054 0
M  V30 33 H -4.064592 1.599028 -0.768604 0
M  V30 34 H -2.605327 -0.201653 -0.095927 0
M  V30 35 H -0.474847 -1.131308 0.361566 0
M  V30 36 H 2.704524 -3.099071 -0.828164 0
M  V30 37 H 1.906512 -5.277930 0.128630 0
M  V30 END ATOM
M  V30 BEGIN BOND
M  V30 1 1 1 2
M  V30 2 1 2 3
M  V30 3 2 3 4
M  V30 4 1 4 5
M  V30 5 2 5 6
M  V30 6 1 6 7
M  V30 7 2 7 8
M  V30 8 1 8 9
M  V30 9 2 9 10
M  V30 10 1 10 11
M  V30 11 1 11 12
M  V30 12 2 12 13
M  V30 13 1 13 14
M  V30 14 2 14 15
M  V30 15 1 15 16
M  V30 16 2 16 17
M  V30 17 1 17 18
M  V30 18 2 18 19
M  V30 19 1 19 20
M  V30 20 2 20 21
M  V30 21 1 21 22
M  V30 22 1 6 23
M  V30 23 2 23 24
M  V30 24 1 24 3
M  V30 25 1 22 7
M  V30 26 1 22 10
M  V30 27 1 21 12
M  V30 28 1 18 13
M  V30 29 1 1 25
M  V30 30 1 1 26
M  V30 31 1 1 27
M  V30 32 1 4 28
M  V30 33 1 5 29
M  V30 34 1 14 30
M  V30 35 1 15 31
M  V30 36 1 16 32
M  V30 37 1 17 33
M  V30 38 1 19 34
M  V30 39 1 20 35
M  V30 40 1 23 36
M  V30 41 1 24 37
M  V30 END BOND
M  V30 END CTAB
M  END
>  <Dataset>  (919) 
ChEMBL_Kinases

>  <Ligand_Instance>  (919) 
nan

>  <PDB_ID>  (919) 
nan

>  <Standardized_SMILES>  (919) 
COc1ccc(-c2nnc3sc4c5ccccc5ccc4n23)cc1

>  <Name>  (919) 
nan

>  <Pocket>  (919) 
nan

>  <ATP_Site>  (919) 
nan

>  <Peripheral>  (919) 
nan

>  <Num_H_Atoms_ProtBoundConf>  (919) 
nan

>  <Num_Resolved_Atoms>  (919) 
nan

>  <Num_Not_Resolved_Atoms>  (919) 
nan

$$$$
CHEMBL2151286
     RDKit          3D

  0  0  0  0  0  0  0  0  0  0999 V3000
M  V30 BEGIN CTAB
M  V30 COUNTS 39 42 0 0 0
M  V30 BEGIN ATOM
M  V30 1 C 1.495233 -6.562983 3.888742 0
M  V30 2 O 2.613750 -6.085208 3.170146 0
M  V30 3 C 2.668478 -4.853362 2.539195 0
M  V30 4 C 3.756531 -4.375514 1.833719 0
M  V30 5 C 3.760782 -3.137897 1.221712 0
M  V30 6 C 2.606052 -2.393315 1.353304 0
M  V30 7 N 2.543771 -1.087181 0.736278 0
M  V30 8 N 1.480323 -0.449901 0.608275 0
M  V30 9 C 1.321740 0.834999 0.017584 0
M  V30 10 C 2.220628 1.758752 -0.456278 0
M  V30 11 N 3.495067 1.553344 -0.422649 0
M  V30 12 N 1.495220 2.801158 -0.906375 0
M  V30 13 N 0.201503 2.557087 -0.729802 0
M  V30 14 C -0.893194 3.308989 -1.026671 0
M  V30 15 C -2.168194 2.868723 -0.759659 0
M  V30 16 C -2.305536 1.626808 -0.174696 0
M  V30 17 N -1.228423 0.884344 0.118636 0
M  V30 18 C 0.027456 1.338167 -0.153762 0
M  V30 19 C -3.736247 1.269619 0.061207 0
M  V30 20 C -4.362937 2.645908 0.104833 0
M  V30 21 C -3.558305 3.385335 -0.932646 0
M  V30 22 C 1.475415 -2.819129 2.051522 0
M  V30 23 C 1.526703 -4.069863 2.646006 0
M  V30 24 H 1.504194 -6.261720 4.960995 0
M  V30 25 H 1.556328 -7.679236 3.898030 0
M  V30 26 H 0.527782 -6.337730 3.378070 0
M  V30 27 H 4.612376 -5.056671 1.799949 0
M  V30 28 H 4.619757 -2.797426 0.682906 0
M  V30 29 H 4.134261 2.308798 -0.805500 0
M  V30 30 H 1.961043 3.644433 -1.321690 0
M  V30 31 H -0.800635 4.283530 -1.484939 0
M  V30 32 H -4.109125 0.625549 -0.738167 0
M  V30 33 H -3.855243 0.817873 1.080418 0
M  V30 34 H -5.446314 2.624405 -0.121227 0
M  V30 35 H -4.201109 3.049021 1.120839 0
M  V30 36 H -3.610631 4.489341 -0.810213 0
M  V30 37 H -3.950239 3.112576 -1.943741 0
M  V30 38 H 0.610518 -2.152281 2.096287 0
M  V30 39 H 0.598185 -4.310144 3.165477 0
M  V30 END ATOM
M  V30 BEGIN BOND
M  V30 1 1 1 2
M  V30 2 1 2 3
M  V30 3 2 3 4
M  V30 4 1 4 5
M  V30 5 2 5 6
M  V30 6 1 6 7
M  V30 7 2 7 8
M  V30 8 1 8 9
M  V30 9 1 9 10
M  V30 10 2 10 11 CFG=2
M  V30 11 1 10 12
M  V30 12 1 12 13
M  V30 13 1 13 14
M  V30 14 2 14 15
M  V30 15 1 15 16
M  V30 16 2 16 17
M  V30 17 1 17 18
M  V30 18 1 16 19
M  V30 19 1 19 20
M  V30 20 1 20 21
M  V30 21 1 6 22
M  V30 22 2 22 23
M  V30 23 1 23 3
M  V30 24 2 18 9
M  V30 25 1 18 13
M  V30 26 1 21 15
M  V30 27 1 1 24
M  V30 28 1 1 25
M  V30 29 1 1 26
M  V30 30 1 4 27
M  V30 31 1 5 28
M  V30 32 1 11 29
M  V30 33 1 12 30
M  V30 34 1 14 31
M  V30 35 1 19 32
M  V30 36 1 19 33
M  V30 37 1 20 34
M  V30 38 1 20 35
M  V30 39 1 21 36
M  V30 40 1 21 37
M  V30 41 1 22 38
M  V30 42 1 23 39
M  V30 END BOND
M  V30 END CTAB
M  END
>  <Dataset>  (920) 
ChEMBL_Kinases

>  <Ligand_Instance>  (920) 
nan

>  <PDB_ID>  (920) 
nan

>  <Standardized_SMILES>  (920) 
COc1ccc(/N=N/c2c(=N)[nH]n3cc4c(nc23)CCC4)cc1

>  <Name>  (920) 
nan

>  <Pocket>  (920) 
nan

>  <ATP_Site>  (920) 
nan

>  <Peripheral>  (920) 
nan

>  <Num_H_Atoms_ProtBoundConf>  (920) 
nan

>  <Num_Resolved_Atoms>  (920) 
nan

>  <Num_Not_Resolved_Atoms>  (920) 
nan

$$$$
CHEMBL2151819
     RDKit          3D

  0  0  0  0  0  0  0  0  0  0999 V3000
M  V30 BEGIN CTAB
M  V30 COUNTS 41 43 0 0 0
M  V30 BEGIN ATOM
M  V30 1 O 0.773223 -0.997710 2.109062 0
M  V30 2 C 0.453917 -2.070700 2.703398 0
M  V30 3 C 1.521274 -2.650846 1.813567 0
M  V30 4 C 2.038401 -1.532325 1.013997 0
M  V30 5 N 1.525543 -1.178114 -0.176989 0
M  V30 6 C 1.996320 -0.160296 -0.904359 0
M  V30 7 N 1.358972 0.104200 -2.145935 0
M  V30 8 C 0.242084 -0.707126 -2.593207 0
M  V30 9 C -0.973604 0.194409 -2.550617 0
M  V30 10 O -0.672059 1.381091 -3.161672 0
M  V30 11 C 0.474366 1.419131 -3.906969 0
M  V30 12 C 1.724918 1.160504 -3.070546 0
M  V30 13 C 3.057343 0.602550 -0.468018 0
M  V30 14 C 3.606227 0.250254 0.770300 0
M  V30 15 O 4.582713 0.904538 1.236684 0
M  V30 16 N 3.072066 -0.791049 1.441660 0
M  V30 17 N -0.342517 -2.757370 3.662070 0
M  V30 18 C -1.212349 -1.782359 4.254920 0
M  V30 19 C -2.432209 -1.588502 3.646814 0
M  V30 20 C -3.323647 -0.661698 4.165798 0
M  V30 21 C -2.897723 0.009264 5.284448 0
M  V30 22 C -1.692598 -0.144072 5.932044 0
M  V30 23 C -0.827668 -1.079837 5.383670 0
M  V30 24 F 0.383942 -1.304120 5.948644 0
M  V30 25 H 1.050263 -3.411065 1.173159 0
M  V30 26 H 2.272671 -3.128951 2.453554 0
M  V30 27 H 0.134401 -1.612556 -1.945759 0
M  V30 28 H 0.371885 -1.038761 -3.646870 0
M  V30 29 H -1.873069 -0.305945 -2.959960 0
M  V30 30 H -1.194081 0.413061 -1.465905 0
M  V30 31 H 0.573653 2.453195 -4.297466 0
M  V30 32 H 0.458260 0.752928 -4.801075 0
M  V30 33 H 1.973800 2.100085 -2.566532 0
M  V30 34 H 2.485428 0.801184 -3.792622 0
M  V30 35 H 3.445080 1.421790 -1.041227 0
M  V30 36 H 3.534267 -1.000988 2.367048 0
M  V30 37 H -0.052206 -3.760680 3.642768 0
M  V30 38 H -2.734555 -2.139970 2.760516 0
M  V30 39 H -4.304724 -0.440095 3.757390 0
M  V30 40 H -3.575244 0.751119 5.724883 0
M  V30 41 H -1.449930 0.429783 6.804415 0
M  V30 END ATOM
M  V30 BEGIN BOND
M  V30 1 2 1 2
M  V30 2 1 2 3
M  V30 3 1 3 4
M  V30 4 2 4 5
M  V30 5 1 5 6
M  V30 6 1 6 7
M  V30 7 1 7 8
M  V30 8 1 8 9
M  V30 9 1 9 10
M  V30 10 1 10 11
M  V30 11 1 11 12
M  V30 12 2 6 13
M  V30 13 1 13 14
M  V30 14 2 14 15
M  V30 15 1 14 16
M  V30 16 1 2 17
M  V30 17 1 17 18
M  V30 18 2 18 19
M  V30 19 1 19 20
M  V30 20 2 20 21
M  V30 21 1 21 22
M  V30 22 2 22 23
M  V30 23 1 23 24
M  V30 24 1 16 4
M  V30 25 1 23 18
M  V30 26 1 12 7
M  V30 27 1 3 25
M  V30 28 1 3 26
M  V30 29 1 8 27
M  V30 30 1 8 28
M  V30 31 1 9 29
M  V30 32 1 9 30
M  V30 33 1 11 31
M  V30 34 1 11 32
M  V30 35 1 12 33
M  V30 36 1 12 34
M  V30 37 1 13 35
M  V30 38 1 16 36
M  V30 39 1 17 37
M  V30 40 1 19 38
M  V30 41 1 20 39
M  V30 42 1 21 40
M  V30 43 1 22 41
M  V30 END BOND
M  V30 END CTAB
M  END
>  <Dataset>  (921) 
ChEMBL_Kinases

>  <Ligand_Instance>  (921) 
nan

>  <PDB_ID>  (921) 
nan

>  <Standardized_SMILES>  (921) 
O=C(Cc1nc(N2CCOCC2)cc(=O)[nH]1)Nc1ccccc1F

>  <Name>  (921) 
nan

>  <Pocket>  (921) 
nan

>  <ATP_Site>  (921) 
nan

>  <Peripheral>  (921) 
nan

>  <Num_H_Atoms_ProtBoundConf>  (921) 
nan

>  <Num_Resolved_Atoms>  (921) 
nan

>  <Num_Not_Resolved_Atoms>  (921) 
nan

$$$$
CHEMBL2151820
     RDKit          3D

  0  0  0  0  0  0  0  0  0  0999 V3000
M  V30 BEGIN CTAB
M  V30 COUNTS 41 43 0 0 0
M  V30 BEGIN ATOM
M  V30 1 O -1.453652 -2.334816 1.450418 0
M  V30 2 C -0.667838 -2.016109 2.366285 0
M  V30 3 C 0.754853 -2.505759 2.455403 0
M  V30 4 C 1.655518 -1.765956 1.541724 0
M  V30 5 N 1.482476 -1.472739 0.248472 0
M  V30 6 C 2.431068 -0.808512 -0.456598 0
M  V30 7 N 2.235407 -0.432247 -1.809923 0
M  V30 8 C 3.082558 -0.416809 -2.970251 0
M  V30 9 C 2.354009 -1.171402 -4.063191 0
M  V30 10 O 1.200547 -0.503224 -4.417768 0
M  V30 11 C 0.323385 -0.308266 -3.386998 0
M  V30 12 C 0.913531 0.090809 -2.085179 0
M  V30 13 C 3.628093 -0.385957 0.071153 0
M  V30 14 C 3.836102 -0.679579 1.424951 0
M  V30 15 O 4.890602 -0.353605 2.048757 0
M  V30 16 N 2.839462 -1.343236 2.054261 0
M  V30 17 N -1.162888 -1.147278 3.373247 0
M  V30 18 C -2.213916 -0.379960 3.932805 0
M  V30 19 C -3.073131 -0.692177 4.952038 0
M  V30 20 C -4.007732 0.234602 5.286274 0
M  V30 21 C -4.081458 1.426207 4.628754 0
M  V30 22 C -3.238524 1.815455 3.576598 0
M  V30 23 F -3.405360 3.008252 3.013341 0
M  V30 24 C -2.296616 0.826624 3.272334 0
M  V30 25 H 0.692276 -3.604022 2.196822 0
M  V30 26 H 1.084577 -2.362523 3.478290 0
M  V30 27 H 4.086604 -0.853932 -2.798992 0
M  V30 28 H 3.144461 0.637508 -3.336050 0
M  V30 29 H 2.201939 -2.221099 -3.763338 0
M  V30 30 H 3.007655 -1.159250 -4.962788 0
M  V30 31 H -0.418298 -1.144218 -3.237950 0
M  V30 32 H -0.347093 0.544104 -3.730375 0
M  V30 33 H 1.031632 1.215907 -2.110244 0
M  V30 34 H 0.194712 -0.187730 -1.290615 0
M  V30 35 H 4.389148 0.128927 -0.453571 0
M  V30 36 H 3.043571 -1.531755 3.070377 0
M  V30 37 H -0.457620 -0.900148 4.118180 0
M  V30 38 H -2.927670 -1.651892 5.388363 0
M  V30 39 H -4.696632 0.011885 6.092380 0
M  V30 40 H -4.837597 2.116443 4.952296 0
M  V30 41 H -1.665324 1.181428 2.435390 0
M  V30 END ATOM
M  V30 BEGIN BOND
M  V30 1 2 1 2
M  V30 2 1 2 3
M  V30 3 1 3 4
M  V30 4 2 4 5
M  V30 5 1 5 6
M  V30 6 1 6 7
M  V30 7 1 7 8
M  V30 8 1 8 9
M  V30 9 1 9 10
M  V30 10 1 10 11
M  V30 11 1 11 12
M  V30 12 2 6 13
M  V30 13 1 13 14
M  V30 14 2 14 15
M  V30 15 1 14 16
M  V30 16 1 2 17
M  V30 17 1 17 18
M  V30 18 2 18 19
M  V30 19 1 19 20
M  V30 20 2 20 21
M  V30 21 1 21 22
M  V30 22 1 22 23
M  V30 23 2 22 24
M  V30 24 1 16 4
M  V30 25 1 24 18
M  V30 26 1 12 7
M  V30 27 1 3 25
M  V30 28 1 3 26
M  V30 29 1 8 27
M  V30 30 1 8 28
M  V30 31 1 9 29
M  V30 32 1 9 30
M  V30 33 1 11 31
M  V30 34 1 11 32
M  V30 35 1 12 33
M  V30 36 1 12 34
M  V30 37 1 13 35
M  V30 38 1 16 36
M  V30 39 1 17 37
M  V30 40 1 19 38
M  V30 41 1 20 39
M  V30 42 1 21 40
M  V30 43 1 24 41
M  V30 END BOND
M  V30 END CTAB
M  END
>  <Dataset>  (922) 
ChEMBL_Kinases

>  <Ligand_Instance>  (922) 
nan

>  <PDB_ID>  (922) 
nan

>  <Standardized_SMILES>  (922) 
O=C(Cc1nc(N2CCOCC2)cc(=O)[nH]1)Nc1cccc(F)c1

>  <Name>  (922) 
nan

>  <Pocket>  (922) 
nan

>  <ATP_Site>  (922) 
nan

>  <Peripheral>  (922) 
nan

>  <Num_H_Atoms_ProtBoundConf>  (922) 
nan

>  <Num_Resolved_Atoms>  (922) 
nan

>  <Num_Not_Resolved_Atoms>  (922) 
nan

$$$$
CHEMBL2151926
     RDKit          3D

  0  0  0  0  0  0  0  0  0  0999 V3000
M  V30 BEGIN CTAB
M  V30 COUNTS 41 43 0 0 0
M  V30 BEGIN ATOM
M  V30 1 O 0.080766 -2.655050 0.773905 0
M  V30 2 C 0.312868 -2.497512 1.975729 0
M  V30 3 C 1.735479 -2.487447 2.421385 0
M  V30 4 C 2.386373 -1.195749 2.046375 0
M  V30 5 N 2.020302 -0.480122 0.950075 0
M  V30 6 C 2.645720 0.673659 0.623627 0
M  V30 7 N 2.037135 1.248980 -0.553482 0
M  V30 8 C 0.576403 1.459687 -0.562170 0
M  V30 9 C 0.017520 0.367030 -1.457264 0
M  V30 10 O 0.940232 0.085154 -2.457236 0
M  V30 11 C 1.565716 1.275425 -2.878979 0
M  V30 12 C 2.584059 1.696704 -1.846781 0
M  V30 13 C 3.671859 1.145974 1.404310 0
M  V30 14 C 4.048712 0.432050 2.511860 0
M  V30 15 O 5.006570 0.931217 3.185709 0
M  V30 16 N 3.402810 -0.701820 2.795065 0
M  V30 17 N -0.658437 -2.318183 3.007472 0
M  V30 18 C -2.001901 -2.329700 2.489343 0
M  V30 19 C -2.281158 -1.031167 2.032160 0
M  V30 20 C -3.523053 -0.699516 1.488595 0
M  V30 21 C -4.502425 -1.679305 1.396568 0
M  V30 22 F -5.751074 -1.507436 0.885720 0
M  V30 23 C -4.222469 -2.964313 1.849403 0
M  V30 24 Cl -5.304069 -4.339556 1.828007 0
M  V30 25 C -2.997285 -3.268478 2.380205 0
M  V30 26 H 2.251402 -3.291999 1.864620 0
M  V30 27 H 1.842399 -2.660701 3.496155 0
M  V30 28 H 0.248157 1.367234 0.491918 0
M  V30 29 H 0.343360 2.468487 -0.980244 0
M  V30 30 H -0.035283 -0.528897 -0.803452 0
M  V30 31 H -1.009608 0.550914 -1.809816 0
M  V30 32 H 0.755038 2.041016 -2.939180 0
M  V30 33 H 1.993982 1.164827 -3.877644 0
M  V30 34 H 2.570377 2.811479 -1.774136 0
M  V30 35 H 3.585987 1.269332 -2.040958 0
M  V30 36 H 4.073384 2.078531 1.030886 0
M  V30 37 H 3.734463 -1.219487 3.662803 0
M  V30 38 H -0.517927 -2.201134 4.021600 0
M  V30 39 H -1.623610 -0.158018 2.033986 0
M  V30 40 H -3.840855 0.263982 1.108882 0
M  V30 41 H -2.609083 -4.212141 2.780061 0
M  V30 END ATOM
M  V30 BEGIN BOND
M  V30 1 2 1 2
M  V30 2 1 2 3
M  V30 3 1 3 4
M  V30 4 2 4 5
M  V30 5 1 5 6
M  V30 6 1 6 7
M  V30 7 1 7 8
M  V30 8 1 8 9
M  V30 9 1 9 10
M  V30 10 1 10 11
M  V30 11 1 11 12
M  V30 12 2 6 13
M  V30 13 1 13 14
M  V30 14 2 14 15
M  V30 15 1 14 16
M  V30 16 1 2 17
M  V30 17 1 17 18
M  V30 18 2 18 19
M  V30 19 1 19 20
M  V30 20 2 20 21
M  V30 21 1 21 22
M  V30 22 1 21 23
M  V30 23 1 23 24
M  V30 24 2 23 25
M  V30 25 1 16 4
M  V30 26 1 25 18
M  V30 27 1 12 7
M  V30 28 1 3 26
M  V30 29 1 3 27
M  V30 30 1 8 28
M  V30 31 1 8 29
M  V30 32 1 9 30
M  V30 33 1 9 31
M  V30 34 1 11 32
M  V30 35 1 11 33
M  V30 36 1 12 34
M  V30 37 1 12 35
M  V30 38 1 13 36
M  V30 39 1 16 37
M  V30 40 1 17 38
M  V30 41 1 19 39
M  V30 42 1 20 40
M  V30 43 1 25 41
M  V30 END BOND
M  V30 END CTAB
M  END
>  <Dataset>  (923) 
ChEMBL_Kinases

>  <Ligand_Instance>  (923) 
nan

>  <PDB_ID>  (923) 
nan

>  <Standardized_SMILES>  (923) 
O=C(Cc1nc(N2CCOCC2)cc(=O)[nH]1)Nc1ccc(F)c(Cl)c1

>  <Name>  (923) 
nan

>  <Pocket>  (923) 
nan

>  <ATP_Site>  (923) 
nan

>  <Peripheral>  (923) 
nan

>  <Num_H_Atoms_ProtBoundConf>  (923) 
nan

>  <Num_Resolved_Atoms>  (923) 
nan

>  <Num_Not_Resolved_Atoms>  (923) 
nan

$$$$
CHEMBL2151822
     RDKit          3D

  0  0  0  0  0  0  0  0  0  0999 V3000
M  V30 BEGIN CTAB
M  V30 COUNTS 44 46 0 0 0
M  V30 BEGIN ATOM
M  V30 1 C -0.670054 -5.361252 -1.771590 0
M  V30 2 C 0.761079 -4.918647 -1.784498 0
M  V30 3 C 1.773669 -5.822720 -2.123643 0
M  V30 4 C 3.106004 -5.469552 -2.151559 0
M  V30 5 C 3.409344 -4.163101 -1.825467 0
M  V30 6 C 2.394174 -3.297653 -1.496572 0
M  V30 7 C 1.070914 -3.616176 -1.460114 0
M  V30 8 N 0.002935 -2.758265 -1.128558 0
M  V30 9 C 0.052008 -1.396803 -0.763131 0
M  V30 10 O 1.145863 -0.790700 -0.699243 0
M  V30 11 C -1.127761 -0.561024 -0.427311 0
M  V30 12 C -0.727210 0.828329 -0.086640 0
M  V30 13 N -0.455263 1.092459 1.204402 0
M  V30 14 C -0.083117 2.301651 1.648301 0
M  V30 15 N 0.186036 2.495345 3.031791 0
M  V30 16 C 0.593833 3.778145 3.586827 0
M  V30 17 C 0.539482 3.702612 5.087814 0
M  V30 18 O -0.560134 3.060534 5.600874 0
M  V30 19 C -0.883779 1.852720 5.044631 0
M  V30 20 C 0.058867 1.386453 3.962762 0
M  V30 21 C 0.037623 3.349587 0.769315 0
M  V30 22 C -0.247116 3.048435 -0.544079 0
M  V30 23 O -0.168223 3.934918 -1.433257 0
M  V30 24 N -0.621125 1.828463 -0.982846 0
M  V30 25 H -1.145248 -5.099761 -0.793318 0
M  V30 26 H -1.213042 -4.940200 -2.636880 0
M  V30 27 H -0.667234 -6.459744 -1.897181 0
M  V30 28 H 1.447349 -6.824584 -2.365066 0
M  V30 29 H 3.861018 -6.191854 -2.417476 0
M  V30 30 H 4.449968 -3.874839 -1.843886 0
M  V30 31 H 2.719021 -2.317047 -1.260853 0
M  V30 32 H -0.982790 -3.096308 -1.129729 0
M  V30 33 H -1.620707 -1.033518 0.464940 0
M  V30 34 H -1.884385 -0.568084 -1.240693 0
M  V30 35 H 0.001573 4.617297 3.175248 0
M  V30 36 H 1.641820 3.952169 3.283720 0
M  V30 37 H 1.516439 3.326764 5.509746 0
M  V30 38 H 0.478695 4.768643 5.451244 0
M  V30 39 H -1.876217 1.961205 4.544880 0
M  V30 40 H -1.063932 1.053250 5.818323 0
M  V30 41 H 1.067795 1.103718 4.369072 0
M  V30 42 H -0.419019 0.511115 3.470419 0
M  V30 43 H 0.332556 4.322073 1.098919 0
M  V30 44 H -0.833822 1.615128 -1.982050 0
M  V30 END ATOM
M  V30 BEGIN BOND
M  V30 1 1 1 2
M  V30 2 2 2 3
M  V30 3 1 3 4
M  V30 4 2 4 5
M  V30 5 1 5 6
M  V30 6 2 6 7
M  V30 7 1 7 8
M  V30 8 1 8 9
M  V30 9 2 9 10
M  V30 10 1 9 11
M  V30 11 1 11 12
M  V30 12 2 12 13
M  V30 13 1 13 14
M  V30 14 1 14 15
M  V30 15 1 15 16
M  V30 16 1 16 17
M  V30 17 1 17 18
M  V30 18 1 18 19
M  V30 19 1 19 20
M  V30 20 2 14 21
M  V30 21 1 21 22
M  V30 22 2 22 23
M  V30 23 1 22 24
M  V30 24 1 7 2
M  V30 25 1 24 12
M  V30 26 1 20 15
M  V30 27 1 1 25
M  V30 28 1 1 26
M  V30 29 1 1 27
M  V30 30 1 3 28
M  V30 31 1 4 29
M  V30 32 1 5 30
M  V30 33 1 6 31
M  V30 34 1 8 32
M  V30 35 1 11 33
M  V30 36 1 11 34
M  V30 37 1 16 35
M  V30 38 1 16 36
M  V30 39 1 17 37
M  V30 40 1 17 38
M  V30 41 1 19 39
M  V30 42 1 19 40
M  V30 43 1 20 41
M  V30 44 1 20 42
M  V30 45 1 21 43
M  V30 46 1 24 44
M  V30 END BOND
M  V30 END CTAB
M  END
>  <Dataset>  (924) 
ChEMBL_Kinases

>  <Ligand_Instance>  (924) 
nan

>  <PDB_ID>  (924) 
nan

>  <Standardized_SMILES>  (924) 
Cc1ccccc1NC(=O)Cc1nc(N2CCOCC2)cc(=O)[nH]1

>  <Name>  (924) 
nan

>  <Pocket>  (924) 
nan

>  <ATP_Site>  (924) 
nan

>  <Peripheral>  (924) 
nan

>  <Num_H_Atoms_ProtBoundConf>  (924) 
nan

>  <Num_Resolved_Atoms>  (924) 
nan

>  <Num_Not_Resolved_Atoms>  (924) 
nan

$$$$
CHEMBL2151919
     RDKit          3D

  0  0  0  0  0  0  0  0  0  0999 V3000
M  V30 BEGIN CTAB
M  V30 COUNTS 44 46 0 0 0
M  V30 BEGIN ATOM
M  V30 1 C -0.942195 -7.443582 -0.777649 0
M  V30 2 C -1.016933 -6.166958 -0.020559 0
M  V30 3 C -1.291442 -6.169535 1.327572 0
M  V30 4 C -1.345293 -4.967193 1.959178 0
M  V30 5 C -1.130233 -3.823677 1.251418 0
M  V30 6 C -0.853127 -3.768776 -0.093494 0
M  V30 7 N -0.622170 -2.614946 -0.876243 0
M  V30 8 C -0.614557 -1.263458 -0.501165 0
M  V30 9 O -0.838601 -0.953514 0.694370 0
M  V30 10 C -0.358387 -0.118475 -1.410502 0
M  V30 11 C -0.454930 1.115329 -0.559441 0
M  V30 12 N 0.669359 1.551394 0.027938 0
M  V30 13 C 0.698095 2.652845 0.816152 0
M  V30 14 N 1.871746 3.147098 1.457021 0
M  V30 15 C 1.908216 4.316580 2.295419 0
M  V30 16 C 3.355017 4.505700 2.730984 0
M  V30 17 O 3.896825 3.397741 3.338791 0
M  V30 18 C 3.706303 2.211031 2.649327 0
M  V30 19 C 3.137497 2.457435 1.281067 0
M  V30 20 C -0.495894 3.322967 0.995995 0
M  V30 21 C -1.662201 2.879689 0.393108 0
M  V30 22 O -2.771870 3.484980 0.547844 0
M  V30 23 N -1.604293 1.775509 -0.375607 0
M  V30 24 C -0.803975 -4.992825 -0.708635 0
M  V30 25 H -1.595714 -8.194843 -0.256735 0
M  V30 26 H -1.397309 -7.275679 -1.778766 0
M  V30 27 H 0.090295 -7.820154 -0.911926 0
M  V30 28 H -1.456595 -7.102615 1.854312 0
M  V30 29 H -1.559942 -4.961406 3.015750 0
M  V30 30 H -1.185810 -2.900276 1.806305 0
M  V30 31 H -0.421019 -2.713283 -1.894664 0
M  V30 32 H -1.171024 -0.072897 -2.144267 0
M  V30 33 H 0.647417 -0.193782 -1.859793 0
M  V30 34 H 1.287997 4.206147 3.223245 0
M  V30 35 H 1.628697 5.219071 1.739453 0
M  V30 36 H 3.959746 4.875128 1.876916 0
M  V30 37 H 3.349455 5.328075 3.482273 0
M  V30 38 H 2.991731 1.572053 3.242088 0
M  V30 39 H 4.617335 1.587313 2.559393 0
M  V30 40 H 3.811714 3.158205 0.752154 0
M  V30 41 H 2.987046 1.520296 0.746859 0
M  V30 42 H -0.595029 4.220414 1.607906 0
M  V30 43 H -2.436638 1.387366 -0.856772 0
M  V30 44 H -0.591427 -5.045311 -1.769032 0
M  V30 END ATOM
M  V30 BEGIN BOND
M  V30 1 1 1 2
M  V30 2 2 2 3
M  V30 3 1 3 4
M  V30 4 2 4 5
M  V30 5 1 5 6
M  V30 6 1 6 7
M  V30 7 1 7 8
M  V30 8 2 8 9
M  V30 9 1 8 10
M  V30 10 1 10 11
M  V30 11 2 11 12
M  V30 12 1 12 13
M  V30 13 1 13 14
M  V30 14 1 14 15
M  V30 15 1 15 16
M  V30 16 1 16 17
M  V30 17 1 17 18
M  V30 18 1 18 19
M  V30 19 2 13 20
M  V30 20 1 20 21
M  V30 21 2 21 22
M  V30 22 1 21 23
M  V30 23 2 6 24
M  V30 24 1 24 2
M  V30 25 1 23 11
M  V30 26 1 19 14
M  V30 27 1 1 25
M  V30 28 1 1 26
M  V30 29 1 1 27
M  V30 30 1 3 28
M  V30 31 1 4 29
M  V30 32 1 5 30
M  V30 33 1 7 31
M  V30 34 1 10 32
M  V30 35 1 10 33
M  V30 36 1 15 34
M  V30 37 1 15 35
M  V30 38 1 16 36
M  V30 39 1 16 37
M  V30 40 1 18 38
M  V30 41 1 18 39
M  V30 42 1 19 40
M  V30 43 1 19 41
M  V30 44 1 20 42
M  V30 45 1 23 43
M  V30 46 1 24 44
M  V30 END BOND
M  V30 END CTAB
M  END
>  <Dataset>  (925) 
ChEMBL_Kinases

>  <Ligand_Instance>  (925) 
nan

>  <PDB_ID>  (925) 
nan

>  <Standardized_SMILES>  (925) 
Cc1cccc(NC(=O)Cc2nc(N3CCOCC3)cc(=O)[nH]2)c1

>  <Name>  (925) 
nan

>  <Pocket>  (925) 
nan

>  <ATP_Site>  (925) 
nan

>  <Peripheral>  (925) 
nan

>  <Num_H_Atoms_ProtBoundConf>  (925) 
nan

>  <Num_Resolved_Atoms>  (925) 
nan

>  <Num_Not_Resolved_Atoms>  (925) 
nan

$$$$
CHEMBL2151920
     RDKit          3D

  0  0  0  0  0  0  0  0  0  0999 V3000
M  V30 BEGIN CTAB
M  V30 COUNTS 41 43 0 0 0
M  V30 BEGIN ATOM
M  V30 1 O 0.300614 -0.515531 2.581168 0
M  V30 2 C 0.305560 -1.747109 2.839760 0
M  V30 3 C 1.132426 -2.535163 1.865445 0
M  V30 4 C 1.722222 -1.619648 0.852037 0
M  V30 5 N 1.122079 -1.294023 -0.314409 0
M  V30 6 C 1.700282 -0.455610 -1.204554 0
M  V30 7 N 1.042065 -0.132502 -2.424414 0
M  V30 8 C -0.256123 -0.728808 -2.674514 0
M  V30 9 C -1.031150 0.084536 -3.684170 0
M  V30 10 O -0.205885 0.348207 -4.751725 0
M  V30 11 C 0.830950 1.208115 -4.468889 0
M  V30 12 C 1.697398 0.761367 -3.334210 0
M  V30 13 C 2.938043 0.063181 -0.879617 0
M  V30 14 C 3.542557 -0.286243 0.332781 0
M  V30 15 O 4.674202 0.230961 0.554886 0
M  V30 16 N 2.927360 -1.130900 1.197023 0
M  V30 17 N -0.358484 -2.384767 3.896054 0
M  V30 18 C -1.086166 -1.431466 4.697510 0
M  V30 19 C -2.385141 -1.100859 4.421973 0
M  V30 20 C -2.999832 -0.167124 5.258806 0
M  V30 21 C -2.261140 0.356003 6.300399 0
M  V30 22 Cl -3.100275 1.531103 7.318879 0
M  V30 23 C -0.952430 0.018018 6.571902 0
M  V30 24 C -0.340366 -0.904995 5.747024 0
M  V30 25 H 0.380235 -3.166307 1.309736 0
M  V30 26 H 1.884785 -3.159956 2.341147 0
M  V30 27 H -0.024305 -1.710266 -3.180169 0
M  V30 28 H -0.815289 -0.932507 -1.758896 0
M  V30 29 H -1.829783 -0.605970 -4.066434 0
M  V30 30 H -1.474338 0.973871 -3.224636 0
M  V30 31 H 0.431341 2.235155 -4.248165 0
M  V30 32 H 1.428885 1.317549 -5.406315 0
M  V30 33 H 2.029892 1.640503 -2.716197 0
M  V30 34 H 2.620366 0.293567 -3.716667 0
M  V30 35 H 3.451718 0.744231 -1.558905 0
M  V30 36 H 3.439546 -1.346035 2.082799 0
M  V30 37 H -0.239493 -3.430509 3.956796 0
M  V30 38 H -2.898479 -1.557875 3.581824 0
M  V30 39 H -4.031806 0.124743 5.076259 0
M  V30 40 H -0.430177 0.472770 7.413956 0
M  V30 41 H 0.670971 -1.155761 5.969804 0
M  V30 END ATOM
M  V30 BEGIN BOND
M  V30 1 2 1 2
M  V30 2 1 2 3
M  V30 3 1 3 4
M  V30 4 2 4 5
M  V30 5 1 5 6
M  V30 6 1 6 7
M  V30 7 1 7 8
M  V30 8 1 8 9
M  V30 9 1 9 10
M  V30 10 1 10 11
M  V30 11 1 11 12
M  V30 12 2 6 13
M  V30 13 1 13 14
M  V30 14 2 14 15
M  V30 15 1 14 16
M  V30 16 1 2 17
M  V30 17 1 17 18
M  V30 18 2 18 19
M  V30 19 1 19 20
M  V30 20 2 20 21
M  V30 21 1 21 22
M  V30 22 1 21 23
M  V30 23 2 23 24
M  V30 24 1 16 4
M  V30 25 1 24 18
M  V30 26 1 12 7
M  V30 27 1 3 25
M  V30 28 1 3 26
M  V30 29 1 8 27
M  V30 30 1 8 28
M  V30 31 1 9 29
M  V30 32 1 9 30
M  V30 33 1 11 31
M  V30 34 1 11 32
M  V30 35 1 12 33
M  V30 36 1 12 34
M  V30 37 1 13 35
M  V30 38 1 16 36
M  V30 39 1 17 37
M  V30 40 1 19 38
M  V30 41 1 20 39
M  V30 42 1 23 40
M  V30 43 1 24 41
M  V30 END BOND
M  V30 END CTAB
M  END
>  <Dataset>  (926) 
ChEMBL_Kinases

>  <Ligand_Instance>  (926) 
nan

>  <PDB_ID>  (926) 
nan

>  <Standardized_SMILES>  (926) 
O=C(Cc1nc(N2CCOCC2)cc(=O)[nH]1)Nc1ccc(Cl)cc1

>  <Name>  (926) 
nan

>  <Pocket>  (926) 
nan

>  <ATP_Site>  (926) 
nan

>  <Peripheral>  (926) 
nan

>  <Num_H_Atoms_ProtBoundConf>  (926) 
nan

>  <Num_Resolved_Atoms>  (926) 
nan

>  <Num_Not_Resolved_Atoms>  (926) 
nan

$$$$
CHEMBL2151921
     RDKit          3D

  0  0  0  0  0  0  0  0  0  0999 V3000
M  V30 BEGIN CTAB
M  V30 COUNTS 41 43 0 0 0
M  V30 BEGIN ATOM
M  V30 1 O 0.213486 0.449312 2.511269 0
M  V30 2 C -0.058644 -0.675633 3.004362 0
M  V30 3 C 0.734330 -1.816715 2.472486 0
M  V30 4 C 1.707203 -1.368134 1.441298 0
M  V30 5 N 1.259267 -1.368046 0.182717 0
M  V30 6 C 2.026925 -0.986396 -0.864150 0
M  V30 7 N 1.528917 -0.994429 -2.194049 0
M  V30 8 C 2.242757 -0.617567 -3.396504 0
M  V30 9 C 2.177526 -1.789390 -4.329936 0
M  V30 10 O 0.985063 -2.397253 -4.478369 0
M  V30 11 C -0.076120 -2.008620 -3.742708 0
M  V30 12 C 0.169792 -1.416660 -2.413244 0
M  V30 13 C 3.301127 -0.603036 -0.502865 0
M  V30 14 C 3.761472 -0.603882 0.797002 0
M  V30 15 O 4.934095 -0.243700 1.067540 0
M  V30 16 N 2.950609 -0.993942 1.793047 0
M  V30 17 N -1.027240 -0.977260 4.001247 0
M  V30 18 C -1.753933 0.181913 4.465462 0
M  V30 19 C -2.919773 0.472507 3.756117 0
M  V30 20 C -3.717522 1.558867 4.093143 0
M  V30 21 C -3.317365 2.355965 5.167654 0
M  V30 22 C -2.157967 2.065499 5.871711 0
M  V30 23 Cl -1.638835 3.066553 7.235008 0
M  V30 24 C -1.356619 0.973832 5.532791 0
M  V30 25 H 0.035530 -2.546633 2.059462 0
M  V30 26 H 1.269681 -2.297285 3.315003 0
M  V30 27 H 1.806108 0.292632 -3.858079 0
M  V30 28 H 3.293929 -0.379297 -3.182774 0
M  V30 29 H 2.923047 -2.534014 -3.965509 0
M  V30 30 H 2.560003 -1.437297 -5.315561 0
M  V30 31 H -0.701305 -2.938430 -3.583222 0
M  V30 32 H -0.741797 -1.361278 -4.355526 0
M  V30 33 H -0.453570 -0.481517 -2.299830 0
M  V30 34 H -0.173598 -2.054866 -1.559156 0
M  V30 35 H 3.984742 -0.282061 -1.275726 0
M  V30 36 H 3.234203 -1.018558 2.796163 0
M  V30 37 H -1.157602 -1.959291 4.328185 0
M  V30 38 H -3.302509 -0.086114 2.917209 0
M  V30 39 H -4.625757 1.833802 3.585540 0
M  V30 40 H -3.918331 3.195832 5.441538 0
M  V30 41 H -0.448487 0.694538 6.036337 0
M  V30 END ATOM
M  V30 BEGIN BOND
M  V30 1 2 1 2
M  V30 2 1 2 3
M  V30 3 1 3 4
M  V30 4 2 4 5
M  V30 5 1 5 6
M  V30 6 1 6 7
M  V30 7 1 7 8
M  V30 8 1 8 9
M  V30 9 1 9 10
M  V30 10 1 10 11
M  V30 11 1 11 12
M  V30 12 2 6 13
M  V30 13 1 13 14
M  V30 14 2 14 15
M  V30 15 1 14 16
M  V30 16 1 2 17
M  V30 17 1 17 18
M  V30 18 2 18 19
M  V30 19 1 19 20
M  V30 20 2 20 21
M  V30 21 1 21 22
M  V30 22 1 22 23
M  V30 23 2 22 24
M  V30 24 1 16 4
M  V30 25 1 24 18
M  V30 26 1 12 7
M  V30 27 1 3 25
M  V30 28 1 3 26
M  V30 29 1 8 27
M  V30 30 1 8 28
M  V30 31 1 9 29
M  V30 32 1 9 30
M  V30 33 1 11 31
M  V30 34 1 11 32
M  V30 35 1 12 33
M  V30 36 1 12 34
M  V30 37 1 13 35
M  V30 38 1 16 36
M  V30 39 1 17 37
M  V30 40 1 19 38
M  V30 41 1 20 39
M  V30 42 1 21 40
M  V30 43 1 24 41
M  V30 END BOND
M  V30 END CTAB
M  END
>  <Dataset>  (927) 
ChEMBL_Kinases

>  <Ligand_Instance>  (927) 
nan

>  <PDB_ID>  (927) 
nan

>  <Standardized_SMILES>  (927) 
O=C(Cc1nc(N2CCOCC2)cc(=O)[nH]1)Nc1cccc(Cl)c1

>  <Name>  (927) 
nan

>  <Pocket>  (927) 
nan

>  <ATP_Site>  (927) 
nan

>  <Peripheral>  (927) 
nan

>  <Num_H_Atoms_ProtBoundConf>  (927) 
nan

>  <Num_Resolved_Atoms>  (927) 
nan

>  <Num_Not_Resolved_Atoms>  (927) 
nan

$$$$
CHEMBL2151922
     RDKit          3D

  0  0  0  0  0  0  0  0  0  0999 V3000
M  V30 BEGIN CTAB
M  V30 COUNTS 45 47 0 0 0
M  V30 BEGIN ATOM
M  V30 1 C -4.202158 -7.178561 -0.419773 0
M  V30 2 O -4.037654 -5.778959 -0.570900 0
M  V30 3 C -3.088842 -5.047985 0.127156 0
M  V30 4 C -2.237524 -5.659129 1.023713 0
M  V30 5 C -1.318221 -4.869802 1.683073 0
M  V30 6 C -1.306894 -3.521190 1.405868 0
M  V30 7 C -2.134435 -2.872711 0.522717 0
M  V30 8 N -2.147460 -1.493742 0.217749 0
M  V30 9 C -1.342264 -0.465510 0.728242 0
M  V30 10 O -0.460596 -0.723950 1.582010 0
M  V30 11 C -1.437251 0.964755 0.337548 0
M  V30 12 C -0.437135 1.782340 1.071641 0
M  V30 13 N 0.767608 1.935906 0.520057 0
M  V30 14 C 1.753773 2.656862 1.096914 0
M  V30 15 N 3.044594 2.833434 0.528533 0
M  V30 16 C 4.139785 3.593567 1.095790 0
M  V30 17 C 5.290754 2.630443 1.282979 0
M  V30 18 O 5.521202 1.847503 0.190309 0
M  V30 19 C 4.446921 1.187501 -0.342656 0
M  V30 20 C 3.388183 2.224670 -0.748213 0
M  V30 21 C 1.442735 3.236066 2.308394 0
M  V30 22 C 0.191356 3.083501 2.893285 0
M  V30 23 O -0.124843 3.596094 3.993256 0
M  V30 24 N -0.745015 2.349636 2.260373 0
M  V30 25 C -3.036130 -3.691617 -0.114484 0
M  V30 26 H -5.196718 -7.513114 -0.783061 0
M  V30 27 H -3.444179 -7.709778 -1.031325 0
M  V30 28 H -4.035430 -7.503287 0.636674 0
M  V30 29 H -2.259740 -6.706499 1.226476 0
M  V30 30 H -0.646712 -5.313497 2.382078 0
M  V30 31 H -0.569900 -2.952778 1.947905 0
M  V30 32 H -2.829097 -1.123058 -0.478280 0
M  V30 33 H -2.467775 1.311378 0.548370 0
M  V30 34 H -1.228000 1.000423 -0.766843 0
M  V30 35 H 3.921229 4.140063 2.000503 0
M  V30 36 H 4.488208 4.325325 0.333867 0
M  V30 37 H 6.200467 3.261805 1.426704 0
M  V30 38 H 5.114162 2.107042 2.236279 0
M  V30 39 H 3.919020 0.592667 0.458828 0
M  V30 40 H 4.775193 0.570185 -1.175042 0
M  V30 41 H 3.924093 2.962544 -1.393178 0
M  V30 42 H 2.544735 1.761708 -1.263919 0
M  V30 43 H 2.112968 3.827369 2.875544 0
M  V30 44 H -1.699379 2.225126 2.692397 0
M  V30 45 H -3.724800 -3.255754 -0.827413 0
M  V30 END ATOM
M  V30 BEGIN BOND
M  V30 1 1 1 2
M  V30 2 1 2 3
M  V30 3 2 3 4
M  V30 4 1 4 5
M  V30 5 2 5 6
M  V30 6 1 6 7
M  V30 7 1 7 8
M  V30 8 1 8 9
M  V30 9 2 9 10
M  V30 10 1 9 11
M  V30 11 1 11 12
M  V30 12 2 12 13
M  V30 13 1 13 14
M  V30 14 1 14 15
M  V30 15 1 15 16
M  V30 16 1 16 17
M  V30 17 1 17 18
M  V30 18 1 18 19
M  V30 19 1 19 20
M  V30 20 2 14 21
M  V30 21 1 21 22
M  V30 22 2 22 23
M  V30 23 1 22 24
M  V30 24 2 7 25
M  V30 25 1 25 3
M  V30 26 1 24 12
M  V30 27 1 20 15
M  V30 28 1 1 26
M  V30 29 1 1 27
M  V30 30 1 1 28
M  V30 31 1 4 29
M  V30 32 1 5 30
M  V30 33 1 6 31
M  V30 34 1 8 32
M  V30 35 1 11 33
M  V30 36 1 11 34
M  V30 37 1 16 35
M  V30 38 1 16 36
M  V30 39 1 17 37
M  V30 40 1 17 38
M  V30 41 1 19 39
M  V30 42 1 19 40
M  V30 43 1 20 41
M  V30 44 1 20 42
M  V30 45 1 21 43
M  V30 46 1 24 44
M  V30 47 1 25 45
M  V30 END BOND
M  V30 END CTAB
M  END
>  <Dataset>  (928) 
ChEMBL_Kinases

>  <Ligand_Instance>  (928) 
nan

>  <PDB_ID>  (928) 
nan

>  <Standardized_SMILES>  (928) 
COc1cccc(NC(=O)Cc2nc(N3CCOCC3)cc(=O)[nH]2)c1

>  <Name>  (928) 
nan

>  <Pocket>  (928) 
nan

>  <ATP_Site>  (928) 
nan

>  <Peripheral>  (928) 
nan

>  <Num_H_Atoms_ProtBoundConf>  (928) 
nan

>  <Num_Resolved_Atoms>  (928) 
nan

>  <Num_Not_Resolved_Atoms>  (928) 
nan

$$$$
CHEMBL2151923
     RDKit          3D

  0  0  0  0  0  0  0  0  0  0999 V3000
M  V30 BEGIN CTAB
M  V30 COUNTS 41 43 0 0 0
M  V30 BEGIN ATOM
M  V30 1 O 0.375621 -0.138773 2.558890 0
M  V30 2 C -0.192900 -1.205082 2.948709 0
M  V30 3 C 0.468345 -2.322574 2.200827 0
M  V30 4 C 1.516540 -1.766522 1.305820 0
M  V30 5 N 1.097190 -1.444333 0.078632 0
M  V30 6 C 1.932656 -0.924349 -0.857865 0
M  V30 7 N 1.468071 -0.587705 -2.156898 0
M  V30 8 C 2.261687 -0.034139 -3.235881 0
M  V30 9 C 2.011545 -0.879192 -4.446697 0
M  V30 10 O 0.747731 -1.141589 -4.772147 0
M  V30 11 C -0.252147 -1.023246 -3.881487 0
M  V30 12 C 0.071296 -0.805752 -2.463957 0
M  V30 13 C 3.229266 -0.765453 -0.425028 0
M  V30 14 C 3.644546 -1.101907 0.840868 0
M  V30 15 O 4.837842 -0.934778 1.178325 0
M  V30 16 N 2.789097 -1.609836 1.728420 0
M  V30 17 N -1.232424 -1.480631 3.870557 0
M  V30 18 C -1.710641 -0.252942 4.463790 0
M  V30 19 C -2.754815 0.384941 3.803790 0
M  V30 20 C -3.282500 1.565925 4.291858 0
M  V30 21 C -2.754038 2.108325 5.453837 0
M  V30 22 C -1.715802 1.476066 6.112035 0
M  V30 23 Br -0.976719 2.219735 7.722949 0
M  V30 24 C -1.182151 0.291792 5.628070 0
M  V30 25 H -0.308599 -2.859306 1.648002 0
M  V30 26 H 0.953307 -3.035269 2.911151 0
M  V30 27 H 1.977896 1.037794 -3.421780 0
M  V30 28 H 3.330053 -0.088591 -3.009081 0
M  V30 29 H 2.603263 -1.812300 -4.334898 0
M  V30 30 H 2.493981 -0.325396 -5.305630 0
M  V30 31 H -0.870564 -1.967244 -3.957589 0
M  V30 32 H -0.949837 -0.233529 -4.232097 0
M  V30 33 H -0.446556 0.115131 -2.063455 0
M  V30 34 H -0.314315 -1.621188 -1.799438 0
M  V30 35 H 3.959216 -0.360877 -1.097684 0
M  V30 36 H 3.025696 -1.887777 2.700664 0
M  V30 37 H -1.493621 -2.470915 3.987138 0
M  V30 38 H -3.158885 -0.056608 2.889630 0
M  V30 39 H -4.098454 2.040624 3.753321 0
M  V30 40 H -3.174429 3.042269 5.835993 0
M  V30 41 H -0.372614 -0.240853 6.103416 0
M  V30 END ATOM
M  V30 BEGIN BOND
M  V30 1 2 1 2
M  V30 2 1 2 3
M  V30 3 1 3 4
M  V30 4 2 4 5
M  V30 5 1 5 6
M  V30 6 1 6 7
M  V30 7 1 7 8
M  V30 8 1 8 9
M  V30 9 1 9 10
M  V30 10 1 10 11
M  V30 11 1 11 12
M  V30 12 2 6 13
M  V30 13 1 13 14
M  V30 14 2 14 15
M  V30 15 1 14 16
M  V30 16 1 2 17
M  V30 17 1 17 18
M  V30 18 2 18 19
M  V30 19 1 19 20
M  V30 20 2 20 21
M  V30 21 1 21 22
M  V30 22 1 22 23
M  V30 23 2 22 24
M  V30 24 1 16 4
M  V30 25 1 24 18
M  V30 26 1 12 7
M  V30 27 1 3 25
M  V30 28 1 3 26
M  V30 29 1 8 27
M  V30 30 1 8 28
M  V30 31 1 9 29
M  V30 32 1 9 30
M  V30 33 1 11 31
M  V30 34 1 11 32
M  V30 35 1 12 33
M  V30 36 1 12 34
M  V30 37 1 13 35
M  V30 38 1 16 36
M  V30 39 1 17 37
M  V30 40 1 19 38
M  V30 41 1 20 39
M  V30 42 1 21 40
M  V30 43 1 24 41
M  V30 END BOND
M  V30 END CTAB
M  END
>  <Dataset>  (929) 
ChEMBL_Kinases

>  <Ligand_Instance>  (929) 
nan

>  <PDB_ID>  (929) 
nan

>  <Standardized_SMILES>  (929) 
O=C(Cc1nc(N2CCOCC2)cc(=O)[nH]1)Nc1cccc(Br)c1

>  <Name>  (929) 
nan

>  <Pocket>  (929) 
nan

>  <ATP_Site>  (929) 
nan

>  <Peripheral>  (929) 
nan

>  <Num_H_Atoms_ProtBoundConf>  (929) 
nan

>  <Num_Resolved_Atoms>  (929) 
nan

>  <Num_Not_Resolved_Atoms>  (929) 
nan

$$$$
CHEMBL2151924
     RDKit          3D

  0  0  0  0  0  0  0  0  0  0999 V3000
M  V30 BEGIN CTAB
M  V30 COUNTS 41 43 0 0 0
M  V30 BEGIN ATOM
M  V30 1 O -0.151762 -2.650918 0.754642 0
M  V30 2 C 0.182201 -2.493604 1.925958 0
M  V30 3 C 1.636224 -2.573623 2.257662 0
M  V30 4 C 2.317672 -1.292628 1.928011 0
M  V30 5 N 2.016522 -0.508556 0.852662 0
M  V30 6 C 2.677723 0.643122 0.595477 0
M  V30 7 N 2.088014 1.237586 -0.580674 0
M  V30 8 C 0.624248 1.377303 -0.637272 0
M  V30 9 C 0.164163 0.259500 -1.568868 0
M  V30 10 O 0.997289 0.179915 -2.683644 0
M  V30 11 C 1.635695 1.396017 -2.923584 0
M  V30 12 C 2.637570 1.761112 -1.842934 0
M  V30 13 C 3.707815 1.073332 1.432704 0
M  V30 14 C 4.009014 0.282479 2.515294 0
M  V30 15 O 4.940994 0.729712 3.224080 0
M  V30 16 N 3.318769 -0.856919 2.729723 0
M  V30 17 N -0.687081 -2.231169 3.033022 0
M  V30 18 C -2.051809 -2.172481 2.568217 0
M  V30 19 C -2.336904 -0.946676 1.956367 0
M  V30 20 C -3.598119 -0.656495 1.466484 0
M  V30 21 C -4.571775 -1.647220 1.611427 0
M  V30 22 F -5.846668 -1.543896 1.194898 0
M  V30 23 C -4.295518 -2.862835 2.216094 0
M  V30 24 F -5.145223 -3.878785 2.415757 0
M  V30 25 C -3.028769 -3.135075 2.699480 0
M  V30 26 H 2.077481 -3.375714 1.621644 0
M  V30 27 H 1.836385 -2.821327 3.300766 0
M  V30 28 H 0.262053 1.201998 0.390842 0
M  V30 29 H 0.340865 2.364290 -1.008423 0
M  V30 30 H 0.332841 -0.679276 -1.008012 0
M  V30 31 H -0.898938 0.319210 -1.795790 0
M  V30 32 H 0.841406 2.183177 -2.965770 0
M  V30 33 H 2.079666 1.377040 -3.918909 0
M  V30 34 H 2.628061 2.852540 -1.751500 0
M  V30 35 H 3.634543 1.330092 -2.065787 0
M  V30 36 H 4.114133 2.008932 1.075737 0
M  V30 37 H 3.583848 -1.420564 3.559515 0
M  V30 38 H -0.367793 -2.106651 4.018220 0
M  V30 39 H -1.664226 -0.095679 1.779417 0
M  V30 40 H -3.896443 0.266255 0.982040 0
M  V30 41 H -2.591331 -3.989571 3.200108 0
M  V30 END ATOM
M  V30 BEGIN BOND
M  V30 1 2 1 2
M  V30 2 1 2 3
M  V30 3 1 3 4
M  V30 4 2 4 5
M  V30 5 1 5 6
M  V30 6 1 6 7
M  V30 7 1 7 8
M  V30 8 1 8 9
M  V30 9 1 9 10
M  V30 10 1 10 11
M  V30 11 1 11 12
M  V30 12 2 6 13
M  V30 13 1 13 14
M  V30 14 2 14 15
M  V30 15 1 14 16
M  V30 16 1 2 17
M  V30 17 1 17 18
M  V30 18 2 18 19
M  V30 19 1 19 20
M  V30 20 2 20 21
M  V30 21 1 21 22
M  V30 22 1 21 23
M  V30 23 1 23 24
M  V30 24 2 23 25
M  V30 25 1 16 4
M  V30 26 1 25 18
M  V30 27 1 12 7
M  V30 28 1 3 26
M  V30 29 1 3 27
M  V30 30 1 8 28
M  V30 31 1 8 29
M  V30 32 1 9 30
M  V30 33 1 9 31
M  V30 34 1 11 32
M  V30 35 1 11 33
M  V30 36 1 12 34
M  V30 37 1 12 35
M  V30 38 1 13 36
M  V30 39 1 16 37
M  V30 40 1 17 38
M  V30 41 1 19 39
M  V30 42 1 20 40
M  V30 43 1 25 41
M  V30 END BOND
M  V30 END CTAB
M  END
>  <Dataset>  (930) 
ChEMBL_Kinases

>  <Ligand_Instance>  (930) 
nan

>  <PDB_ID>  (930) 
nan

>  <Standardized_SMILES>  (930) 
O=C(Cc1nc(N2CCOCC2)cc(=O)[nH]1)Nc1ccc(F)c(F)c1

>  <Name>  (930) 
nan

>  <Pocket>  (930) 
nan

>  <ATP_Site>  (930) 
nan

>  <Peripheral>  (930) 
nan

>  <Num_H_Atoms_ProtBoundConf>  (930) 
nan

>  <Num_Resolved_Atoms>  (930) 
nan

>  <Num_Not_Resolved_Atoms>  (930) 
nan

$$$$
CHEMBL2151925
     RDKit          3D

  0  0  0  0  0  0  0  0  0  0999 V3000
M  V30 BEGIN CTAB
M  V30 COUNTS 44 46 0 0 0
M  V30 BEGIN ATOM
M  V30 1 C -2.071557 -7.004787 1.722415 0
M  V30 2 C -1.509644 -5.745423 2.321175 0
M  V30 3 C -0.505621 -5.054009 1.668605 0
M  V30 4 C -0.011368 -3.892773 2.254609 0
M  V30 5 N 1.028094 -3.110499 1.652648 0
M  V30 6 C 0.741716 -2.050407 0.748455 0
M  V30 7 O -0.422661 -1.705101 0.398021 0
M  V30 8 C 1.905096 -1.326918 0.202322 0
M  V30 9 C 1.516535 -0.236199 -0.732442 0
M  V30 10 N 1.318510 0.952915 -0.178876 0
M  V30 11 C 0.961386 2.052950 -0.878733 0
M  V30 12 N 0.757859 3.312243 -0.248828 0
M  V30 13 C 0.377381 4.540599 -0.917426 0
M  V30 14 C 1.353406 5.603296 -0.415394 0
M  V30 15 O 1.072289 5.780307 0.938389 0
M  V30 16 C 1.598550 4.679650 1.610357 0
M  V30 17 C 0.943373 3.389215 1.186881 0
M  V30 18 C 0.818983 1.833671 -2.227564 0
M  V30 19 C 1.025204 0.596830 -2.801696 0
M  V30 20 O 0.891656 0.403977 -4.045926 0
M  V30 21 N 1.379930 -0.466394 -2.058644 0
M  V30 22 C -0.519281 -3.445982 3.465099 0
M  V30 23 C -1.532223 -4.146550 4.120119 0
M  V30 24 C -2.029556 -5.305909 3.540553 0
M  V30 25 F -3.015544 -6.015179 4.147879 0
M  V30 26 H -3.152996 -7.074038 1.903969 0
M  V30 27 H -1.852651 -6.954208 0.631369 0
M  V30 28 H -1.479222 -7.845447 2.165972 0
M  V30 29 H -0.100680 -5.387786 0.728207 0
M  V30 30 H 1.985950 -3.383652 1.931763 0
M  V30 31 H 2.583916 -2.076794 -0.253574 0
M  V30 32 H 2.456926 -0.922258 1.084895 0
M  V30 33 H 0.357849 4.478966 -2.002014 0
M  V30 34 H -0.607356 4.838249 -0.462965 0
M  V30 35 H 1.237090 6.544996 -0.992866 0
M  V30 36 H 2.395884 5.295790 -0.501766 0
M  V30 37 H 1.382086 4.838231 2.684592 0
M  V30 38 H 2.676344 4.605370 1.422863 0
M  V30 39 H 1.529190 2.556752 1.611525 0
M  V30 40 H -0.048406 3.352860 1.684956 0
M  V30 41 H 0.536595 2.648076 -2.870687 0
M  V30 42 H 1.558681 -1.439534 -2.395634 0
M  V30 43 H -0.175767 -2.552700 3.967648 0
M  V30 44 H -1.958062 -3.833215 5.067333 0
M  V30 END ATOM
M  V30 BEGIN BOND
M  V30 1 1 1 2
M  V30 2 2 2 3
M  V30 3 1 3 4
M  V30 4 1 4 5
M  V30 5 1 5 6
M  V30 6 2 6 7
M  V30 7 1 6 8
M  V30 8 1 8 9
M  V30 9 2 9 10
M  V30 10 1 10 11
M  V30 11 1 11 12
M  V30 12 1 12 13
M  V30 13 1 13 14
M  V30 14 1 14 15
M  V30 15 1 15 16
M  V30 16 1 16 17
M  V30 17 2 11 18
M  V30 18 1 18 19
M  V30 19 2 19 20
M  V30 20 1 19 21
M  V30 21 2 4 22
M  V30 22 1 22 23
M  V30 23 2 23 24
M  V30 24 1 24 25
M  V30 25 1 24 2
M  V30 26 1 21 9
M  V30 27 1 17 12
M  V30 28 1 1 26
M  V30 29 1 1 27
M  V30 30 1 1 28
M  V30 31 1 3 29
M  V30 32 1 5 30
M  V30 33 1 8 31
M  V30 34 1 8 32
M  V30 35 1 13 33
M  V30 36 1 13 34
M  V30 37 1 14 35
M  V30 38 1 14 36
M  V30 39 1 16 37
M  V30 40 1 16 38
M  V30 41 1 17 39
M  V30 42 1 17 40
M  V30 43 1 18 41
M  V30 44 1 21 42
M  V30 45 1 22 43
M  V30 46 1 23 44
M  V30 END BOND
M  V30 END CTAB
M  END
>  <Dataset>  (931) 
ChEMBL_Kinases

>  <Ligand_Instance>  (931) 
nan

>  <PDB_ID>  (931) 
nan

>  <Standardized_SMILES>  (931) 
Cc1cc(NC(=O)Cc2nc(N3CCOCC3)cc(=O)[nH]2)ccc1F

>  <Name>  (931) 
nan

>  <Pocket>  (931) 
nan

>  <ATP_Site>  (931) 
nan

>  <Peripheral>  (931) 
nan

>  <Num_H_Atoms_ProtBoundConf>  (931) 
nan

>  <Num_Resolved_Atoms>  (931) 
nan

>  <Num_Not_Resolved_Atoms>  (931) 
nan

$$$$
CHEMBL2151821
     RDKit          3D

  0  0  0  0  0  0  0  0  0  0999 V3000
M  V30 BEGIN CTAB
M  V30 COUNTS 41 43 0 0 0
M  V30 BEGIN ATOM
M  V30 1 O 0.892826 -0.622143 2.173483 0
M  V30 2 C 0.439340 -1.525554 2.920868 0
M  V30 3 C 1.506673 -2.165282 2.085320 0
M  V30 4 C 2.114972 -1.177797 1.158177 0
M  V30 5 N 1.537826 -1.045807 -0.069461 0
M  V30 6 C 1.998554 -0.190578 -0.983103 0
M  V30 7 N 1.369151 -0.082312 -2.250502 0
M  V30 8 C 0.212897 -0.847940 -2.686642 0
M  V30 9 C -0.761967 0.229043 -3.129428 0
M  V30 10 O -0.345848 0.720100 -4.338201 0
M  V30 11 C 1.005518 0.791999 -4.505641 0
M  V30 12 C 1.838665 0.839652 -3.270616 0
M  V30 13 C 3.090180 0.614024 -0.739535 0
M  V30 14 C 3.663938 0.462069 0.521716 0
M  V30 15 O 4.663220 1.176903 0.787417 0
M  V30 16 N 3.179289 -0.417511 1.443365 0
M  V30 17 N -0.274396 -2.283835 3.875587 0
M  V30 18 C -1.276404 -1.584751 4.626809 0
M  V30 19 C -2.517056 -1.642694 3.984805 0
M  V30 20 C -3.617806 -1.028527 4.548305 0
M  V30 21 C -3.420153 -0.375199 5.747142 0
M  V30 22 F -4.482795 0.237629 6.325214 0
M  V30 23 C -2.211265 -0.301610 6.401830 0
M  V30 24 C -1.120097 -0.925096 5.818265 0
M  V30 25 H 1.058449 -3.018955 1.539920 0
M  V30 26 H 2.249944 -2.614925 2.782733 0
M  V30 27 H 0.532002 -1.437960 -3.593303 0
M  V30 28 H -0.193640 -1.501399 -1.897562 0
M  V30 29 H -1.800988 -0.141786 -3.157488 0
M  V30 30 H -0.764355 1.076312 -2.397255 0
M  V30 31 H 1.208931 1.746698 -5.073548 0
M  V30 32 H 1.360218 -0.018175 -5.192791 0
M  V30 33 H 1.935868 1.871965 -2.913570 0
M  V30 34 H 2.872271 0.499661 -3.564800 0
M  V30 35 H 3.502451 1.316184 -1.432587 0
M  V30 36 H 3.621249 -0.515410 2.377067 0
M  V30 37 H -0.005131 -3.287366 3.946212 0
M  V30 38 H -2.719392 -2.144926 3.041132 0
M  V30 39 H -4.601481 -1.049689 4.081563 0
M  V30 40 H -2.064019 0.212422 7.341438 0
M  V30 41 H -0.124805 -0.943484 6.222747 0
M  V30 END ATOM
M  V30 BEGIN BOND
M  V30 1 2 1 2
M  V30 2 1 2 3
M  V30 3 1 3 4
M  V30 4 2 4 5
M  V30 5 1 5 6
M  V30 6 1 6 7
M  V30 7 1 7 8
M  V30 8 1 8 9
M  V30 9 1 9 10
M  V30 10 1 10 11
M  V30 11 1 11 12
M  V30 12 2 6 13
M  V30 13 1 13 14
M  V30 14 2 14 15
M  V30 15 1 14 16
M  V30 16 1 2 17
M  V30 17 1 17 18
M  V30 18 2 18 19
M  V30 19 1 19 20
M  V30 20 2 20 21
M  V30 21 1 21 22
M  V30 22 1 21 23
M  V30 23 2 23 24
M  V30 24 1 16 4
M  V30 25 1 24 18
M  V30 26 1 12 7
M  V30 27 1 3 25
M  V30 28 1 3 26
M  V30 29 1 8 27
M  V30 30 1 8 28
M  V30 31 1 9 29
M  V30 32 1 9 30
M  V30 33 1 11 31
M  V30 34 1 11 32
M  V30 35 1 12 33
M  V30 36 1 12 34
M  V30 37 1 13 35
M  V30 38 1 16 36
M  V30 39 1 17 37
M  V30 40 1 19 38
M  V30 41 1 20 39
M  V30 42 1 23 40
M  V30 43 1 24 41
M  V30 END BOND
M  V30 END CTAB
M  END
>  <Dataset>  (932) 
ChEMBL_Kinases

>  <Ligand_Instance>  (932) 
nan

>  <PDB_ID>  (932) 
nan

>  <Standardized_SMILES>  (932) 
O=C(Cc1nc(N2CCOCC2)cc(=O)[nH]1)Nc1ccc(F)cc1

>  <Name>  (932) 
nan

>  <Pocket>  (932) 
nan

>  <ATP_Site>  (932) 
nan

>  <Peripheral>  (932) 
nan

>  <Num_H_Atoms_ProtBoundConf>  (932) 
nan

>  <Num_Resolved_Atoms>  (932) 
nan

>  <Num_Not_Resolved_Atoms>  (932) 
nan

$$$$
CHEMBL213423
     RDKit          3D

  0  0  0  0  0  0  0  0  0  0999 V3000
M  V30 BEGIN CTAB
M  V30 COUNTS 39 42 0 0 0
M  V30 BEGIN ATOM
M  V30 1 C -0.608559 -3.498182 1.216295 0
M  V30 2 C 0.549233 -3.842142 0.277742 0
M  V30 3 C 0.139533 -3.728820 -1.149490 0
M  V30 4 C 1.770328 -3.084120 0.637405 0
M  V30 5 N 2.907476 -3.615123 1.121274 0
M  V30 6 N 3.796851 -2.682607 1.339288 0
M  V30 7 C 3.246894 -1.504501 0.995650 0
M  V30 8 C 3.657995 -0.184017 0.991396 0
M  V30 9 C 2.784381 0.800362 0.551499 0
M  V30 10 C 1.490352 0.491796 0.109322 0
M  V30 11 C 0.759219 1.684259 -0.304022 0
M  V30 12 O 1.205049 2.382296 -1.341182 0
M  V30 13 C 0.444879 3.416459 -1.583794 0
M  V30 14 N -0.545847 3.442679 -0.705058 0
M  V30 15 C -0.381905 2.382303 0.104029 0
M  V30 16 C -1.133777 1.869554 1.241148 0
M  V30 17 C -1.865731 0.699540 1.089280 0
M  V30 18 C -2.615352 0.103415 2.103674 0
M  V30 19 F -3.302725 -1.055495 1.843400 0
M  V30 20 C -2.635984 0.707973 3.333762 0
M  V30 21 F -3.365504 0.112031 4.291665 0
M  V30 22 C -1.914934 1.867960 3.496432 0
M  V30 23 C -1.166834 2.466937 2.494384 0
M  V30 24 F -0.467774 3.602734 2.677812 0
M  V30 25 C 1.124753 -0.836318 0.131383 0
M  V30 26 N 1.999706 -1.759038 0.564260 0
M  V30 27 H -1.249551 -4.387742 1.360708 0
M  V30 28 H -0.201141 -3.168481 2.201401 0
M  V30 29 H -1.244887 -2.714592 0.766142 0
M  V30 30 H 0.756777 -4.928011 0.485665 0
M  V30 31 H 0.912258 -3.319487 -1.826566 0
M  V30 32 H -0.152339 -4.711990 -1.572596 0
M  V30 33 H -0.819892 -3.138235 -1.169740 0
M  V30 34 H 4.658893 0.015808 1.338765 0
M  V30 35 H 3.212122 1.793586 0.592606 0
M  V30 36 H 0.543524 4.169638 -2.353993 0
M  V30 37 H -1.886079 0.185236 0.131403 0
M  V30 38 H -1.949961 2.325480 4.482186 0
M  V30 39 H 0.135516 -1.001952 -0.217421 0
M  V30 END ATOM
M  V30 BEGIN BOND
M  V30 1 1 1 2
M  V30 2 1 2 3
M  V30 3 1 2 4
M  V30 4 2 4 5
M  V30 5 1 5 6
M  V30 6 2 6 7
M  V30 7 1 7 8
M  V30 8 2 8 9
M  V30 9 1 9 10
M  V30 10 1 10 11
M  V30 11 1 11 12
M  V30 12 1 12 13
M  V30 13 2 13 14
M  V30 14 1 14 15
M  V30 15 1 15 16
M  V30 16 2 16 17
M  V30 17 1 17 18
M  V30 18 1 18 19
M  V30 19 2 18 20
M  V30 20 1 20 21
M  V30 21 1 20 22
M  V30 22 2 22 23
M  V30 23 1 23 24
M  V30 24 2 10 25
M  V30 25 1 25 26
M  V30 26 1 26 4
M  V30 27 1 26 7
M  V30 28 2 15 11
M  V30 29 1 23 16
M  V30 30 1 1 27
M  V30 31 1 1 28
M  V30 32 1 1 29
M  V30 33 1 2 30
M  V30 34 1 3 31
M  V30 35 1 3 32
M  V30 36 1 3 33
M  V30 37 1 8 34
M  V30 38 1 9 35
M  V30 39 1 13 36
M  V30 40 1 17 37
M  V30 41 1 22 38
M  V30 42 1 25 39
M  V30 END BOND
M  V30 END CTAB
M  END
>  <Dataset>  (933) 
ChEMBL_Kinases

>  <Ligand_Instance>  (933) 
nan

>  <PDB_ID>  (933) 
nan

>  <Standardized_SMILES>  (933) 
CC(C)c1nnc2ccc(-c3ocnc3-c3cc(F)c(F)cc3F)cn12

>  <Name>  (933) 
nan

>  <Pocket>  (933) 
nan

>  <ATP_Site>  (933) 
nan

>  <Peripheral>  (933) 
nan

>  <Num_H_Atoms_ProtBoundConf>  (933) 
nan

>  <Num_Resolved_Atoms>  (933) 
nan

>  <Num_Not_Resolved_Atoms>  (933) 
nan

$$$$
CHEMBL2134202
     RDKit          3D

  0  0  0  0  0  0  0  0  0  0999 V3000
M  V30 BEGIN CTAB
M  V30 COUNTS 49 52 0 0 0
M  V30 BEGIN ATOM
M  V30 1 C 0.291645 -3.186031 -0.175096 0
M  V30 2 C 1.423994 -2.563541 -0.973554 0
M  V30 3 C 2.728397 -2.729335 -0.328739 0
M  V30 4 C 3.719073 -3.619748 -0.689134 0
M  V30 5 N 4.890329 -3.720803 -0.047525 0
M  V30 6 C 5.112162 -2.903183 1.012458 0
M  V30 7 N 4.178527 -2.018309 1.403051 0
M  V30 8 C 2.992293 -1.916791 0.752403 0
M  V30 9 N 2.139428 -0.903706 1.329009 0
M  V30 10 C 1.731918 0.280026 0.573255 0
M  V30 11 C 1.945299 1.472413 1.471177 0
M  V30 12 N 1.206599 1.317654 2.664886 0
M  V30 13 C -0.059339 1.933921 2.757867 0
M  V30 14 C -1.075094 1.542362 1.782989 0
M  V30 15 N -1.940073 0.508040 1.979132 0
M  V30 16 C -2.752733 0.406731 0.894379 0
M  V30 17 C -3.782367 -0.510848 0.670888 0
M  V30 18 C -4.474419 -0.399130 -0.541437 0
M  V30 19 C -5.552453 -1.436333 -0.666143 0
M  V30 20 F -6.027117 -1.481629 -1.938630 0
M  V30 21 F -6.530973 -1.181754 0.289434 0
M  V30 22 F -4.956868 -2.669167 -0.363480 0
M  V30 23 C -4.138594 0.577302 -1.455905 0
M  V30 24 C -3.111303 1.453189 -1.174876 0
M  V30 25 C -2.392403 1.395163 -0.000149 0
M  V30 26 N -1.373845 2.070512 0.559717 0
M  V30 27 C 1.474774 0.179245 3.448144 0
M  V30 28 C 1.693125 -1.091056 2.672812 0
M  V30 29 H -0.128966 -2.387840 0.459587 0
M  V30 30 H 0.628468 -4.065316 0.382675 0
M  V30 31 H -0.521343 -3.463091 -0.899368 0
M  V30 32 H 1.220296 -1.516125 -1.237988 0
M  V30 33 H 1.458423 -3.114733 -1.950224 0
M  V30 34 H 3.503278 -4.252668 -1.538679 0
M  V30 35 H 6.059342 -2.971262 1.546868 0
M  V30 36 H 0.667186 0.171846 0.369990 0
M  V30 37 H 2.327028 0.395401 -0.357109 0
M  V30 38 H 1.575044 2.402468 0.957454 0
M  V30 39 H 3.019465 1.607371 1.720863 0
M  V30 40 H -0.499469 1.805763 3.779956 0
M  V30 41 H 0.105389 3.048565 2.678168 0
M  V30 42 H -3.993075 -1.256109 1.438453 0
M  V30 43 H -4.728972 0.574408 -2.346517 0
M  V30 44 H -2.861285 2.210135 -1.898594 0
M  V30 45 H -0.887782 2.875726 0.122550 0
M  V30 46 H 0.734841 0.053368 4.262146 0
M  V30 47 H 2.456475 0.368550 3.970327 0
M  V30 48 H 2.399009 -1.771053 3.190393 0
M  V30 49 H 0.699566 -1.628049 2.687712 0
M  V30 END ATOM
M  V30 BEGIN BOND
M  V30 1 1 1 2
M  V30 2 1 2 3
M  V30 3 2 3 4
M  V30 4 1 4 5
M  V30 5 2 5 6
M  V30 6 1 6 7
M  V30 7 2 7 8
M  V30 8 1 8 9
M  V30 9 1 9 10
M  V30 10 1 10 11
M  V30 11 1 11 12
M  V30 12 1 12 13
M  V30 13 1 13 14
M  V30 14 2 14 15
M  V30 15 1 15 16
M  V30 16 2 16 17
M  V30 17 1 17 18
M  V30 18 1 18 19
M  V30 19 1 19 20
M  V30 20 1 19 21
M  V30 21 1 19 22
M  V30 22 2 18 23
M  V30 23 1 23 24
M  V30 24 2 24 25
M  V30 25 1 25 26
M  V30 26 1 12 27
M  V30 27 1 27 28
M  V30 28 1 8 3
M  V30 29 1 28 9
M  V30 30 1 26 14
M  V30 31 1 25 16
M  V30 32 1 1 29
M  V30 33 1 1 30
M  V30 34 1 1 31
M  V30 35 1 2 32
M  V30 36 1 2 33
M  V30 37 1 4 34
M  V30 38 1 6 35
M  V30 39 1 10 36
M  V30 40 1 10 37
M  V30 41 1 11 38
M  V30 42 1 11 39
M  V30 43 1 13 40
M  V30 44 1 13 41
M  V30 45 1 17 42
M  V30 46 1 23 43
M  V30 47 1 24 44
M  V30 48 1 26 45
M  V30 49 1 27 46
M  V30 50 1 27 47
M  V30 51 1 28 48
M  V30 52 1 28 49
M  V30 END BOND
M  V30 END CTAB
M  END
>  <Dataset>  (934) 
ChEMBL_Kinases

>  <Ligand_Instance>  (934) 
nan

>  <PDB_ID>  (934) 
nan

>  <Standardized_SMILES>  (934) 
CCc1cncnc1N1CCN(Cc2nc3cc(C(F)(F)F)ccc3[nH]2)CC1

>  <Name>  (934) 
nan

>  <Pocket>  (934) 
nan

>  <ATP_Site>  (934) 
nan

>  <Peripheral>  (934) 
nan

>  <Num_H_Atoms_ProtBoundConf>  (934) 
nan

>  <Num_Resolved_Atoms>  (934) 
nan

>  <Num_Not_Resolved_Atoms>  (934) 
nan

$$$$
CHEMBL213374
     RDKit          3D

  0  0  0  0  0  0  0  0  0  0999 V3000
M  V30 BEGIN CTAB
M  V30 COUNTS 39 42 0 0 0
M  V30 BEGIN ATOM
M  V30 1 C -0.647634 -3.324842 0.864286 0
M  V30 2 C 0.402706 -3.568127 -0.209487 0
M  V30 3 C -0.036045 -3.171843 -1.578728 0
M  V30 4 C 1.670328 -2.923028 0.234358 0
M  V30 5 N 2.808987 -3.574404 0.598120 0
M  V30 6 N 3.708125 -2.666623 0.926762 0
M  V30 7 C 3.140279 -1.459912 0.771097 0
M  V30 8 C 3.761944 -0.253717 1.014600 0
M  V30 9 C 3.047064 0.903567 0.807031 0
M  V30 10 C 1.731640 0.756804 0.360544 0
M  V30 11 C 0.830543 1.886595 0.089614 0
M  V30 12 O 1.236508 2.735049 -0.843832 0
M  V30 13 C 0.347342 3.707451 -1.000539 0
M  V30 14 N -0.668075 3.472342 -0.132683 0
M  V30 15 C -0.397571 2.337227 0.567429 0
M  V30 16 C -1.032731 1.550745 1.605909 0
M  V30 17 C -0.547167 1.298822 2.866721 0
M  V30 18 C -1.309057 0.520681 3.713597 0
M  V30 19 F -0.827714 0.269306 4.964596 0
M  V30 20 C -2.530368 -0.019239 3.368406 0
M  V30 21 F -3.292306 -0.778658 4.170816 0
M  V30 22 C -3.047079 0.222381 2.090552 0
M  V30 23 F -4.238505 -0.271677 1.674624 0
M  V30 24 C -2.270872 1.012636 1.233686 0
M  V30 25 C 1.141824 -0.492297 0.126695 0
M  V30 26 N 1.879485 -1.593468 0.343353 0
M  V30 27 H -0.872685 -4.239837 1.460323 0
M  V30 28 H -0.278170 -2.564838 1.600236 0
M  V30 29 H -1.577914 -3.048439 0.360403 0
M  V30 30 H 0.566864 -4.678844 -0.216060 0
M  V30 31 H -0.315594 -4.061655 -2.219205 0
M  V30 32 H 0.750779 -2.630972 -2.136399 0
M  V30 33 H -0.980119 -2.590355 -1.495082 0
M  V30 34 H 4.782363 -0.154680 1.361136 0
M  V30 35 H 3.409600 1.920406 0.957371 0
M  V30 36 H 0.409201 4.538321 -1.688776 0
M  V30 37 H 0.397164 1.726461 3.107795 0
M  V30 38 H -2.711177 1.178729 0.238866 0
M  V30 39 H 0.145001 -0.610873 -0.212019 0
M  V30 END ATOM
M  V30 BEGIN BOND
M  V30 1 1 1 2
M  V30 2 1 2 3
M  V30 3 1 2 4
M  V30 4 2 4 5
M  V30 5 1 5 6
M  V30 6 2 6 7
M  V30 7 1 7 8
M  V30 8 2 8 9
M  V30 9 1 9 10
M  V30 10 1 10 11
M  V30 11 1 11 12
M  V30 12 1 12 13
M  V30 13 2 13 14
M  V30 14 1 14 15
M  V30 15 1 15 16
M  V30 16 2 16 17
M  V30 17 1 17 18
M  V30 18 1 18 19
M  V30 19 2 18 20
M  V30 20 1 20 21
M  V30 21 1 20 22
M  V30 22 1 22 23
M  V30 23 2 22 24
M  V30 24 2 10 25
M  V30 25 1 25 26
M  V30 26 1 26 4
M  V30 27 1 26 7
M  V30 28 2 15 11
M  V30 29 1 24 16
M  V30 30 1 1 27
M  V30 31 1 1 28
M  V30 32 1 1 29
M  V30 33 1 2 30
M  V30 34 1 3 31
M  V30 35 1 3 32
M  V30 36 1 3 33
M  V30 37 1 8 34
M  V30 38 1 9 35
M  V30 39 1 13 36
M  V30 40 1 17 37
M  V30 41 1 24 38
M  V30 42 1 25 39
M  V30 END BOND
M  V30 END CTAB
M  END
>  <Dataset>  (935) 
ChEMBL_Kinases

>  <Ligand_Instance>  (935) 
nan

>  <PDB_ID>  (935) 
nan

>  <Standardized_SMILES>  (935) 
CC(C)c1nnc2ccc(-c3ocnc3-c3cc(F)c(F)c(F)c3)cn12

>  <Name>  (935) 
nan

>  <Pocket>  (935) 
nan

>  <ATP_Site>  (935) 
nan

>  <Peripheral>  (935) 
nan

>  <Num_H_Atoms_ProtBoundConf>  (935) 
nan

>  <Num_Resolved_Atoms>  (935) 
nan

>  <Num_Not_Resolved_Atoms>  (935) 
nan

$$$$
CHEMBL213364
     RDKit          3D

  0  0  0  0  0  0  0  0  0  0999 V3000
M  V30 BEGIN CTAB
M  V30 COUNTS 41 45 0 0 0
M  V30 BEGIN ATOM
M  V30 1 O 4.694000 -0.817156 -0.794031 0
M  V30 2 C 3.521054 -0.965866 -0.421562 0
M  V30 3 C 3.190369 -1.872704 0.524747 0
M  V30 4 C 3.657917 -2.844219 1.367208 0
M  V30 5 C 2.938035 -3.620233 2.258105 0
M  V30 6 C 1.555218 -3.558016 2.476083 0
M  V30 7 C 1.019443 -2.606335 1.666684 0
M  V30 8 C 1.776646 -1.920845 0.849535 0
M  V30 9 S 0.926756 -0.640858 -0.238560 0
M  V30 10 N 2.518416 -0.216795 -0.955457 0
M  V30 11 C 2.144842 0.781432 -1.847544 0
M  V30 12 C 1.606591 2.083162 -1.399217 0
M  V30 13 C 0.394044 2.124963 -0.538866 0
M  V30 14 C 0.578351 2.011294 0.924072 0
M  V30 15 O -0.563074 1.866307 1.697121 0
M  V30 16 C -1.553468 0.981004 1.780969 0
M  V30 17 C -2.839475 1.492570 1.860041 0
M  V30 18 C -3.997104 0.711807 1.956395 0
M  V30 19 C -3.954263 -0.687353 1.981707 0
M  V30 20 C -2.683400 -1.251713 1.904251 0
M  V30 21 N -2.547129 -2.584892 1.919161 0
M  V30 22 C -1.341376 -3.224008 1.844021 0
M  V30 23 O -0.882808 -4.515349 1.834726 0
M  V30 24 C -0.378525 -2.272434 1.756709 0
M  V30 25 N -0.445403 -0.926410 1.737338 0
M  V30 26 C -1.650260 -0.382040 1.814564 0
M  V30 27 H 4.730701 -2.981402 1.285458 0
M  V30 28 H 3.453120 -4.369691 2.875401 0
M  V30 29 H 0.894092 -4.089059 3.126195 0
M  V30 30 H 1.439934 0.356427 -2.626180 0
M  V30 31 H 3.075232 0.967263 -2.509649 0
M  V30 32 H 2.456608 2.660984 -0.906250 0
M  V30 33 H 1.456534 2.702849 -2.346902 0
M  V30 34 H -0.131725 3.123132 -0.747251 0
M  V30 35 H -0.368651 1.398089 -0.932608 0
M  V30 36 H 0.896476 3.130411 1.216189 0
M  V30 37 H 1.484229 1.505509 1.218261 0
M  V30 38 H -3.099671 2.558830 1.856512 0
M  V30 39 H -5.014623 1.132037 2.018709 0
M  V30 40 H -4.824063 -1.320318 2.055341 0
M  V30 41 H -0.580758 -5.016421 1.013652 0
M  V30 END ATOM
M  V30 BEGIN BOND
M  V30 1 2 1 2
M  V30 2 1 2 3
M  V30 3 2 3 4
M  V30 4 1 4 5
M  V30 5 2 5 6
M  V30 6 1 6 7
M  V30 7 2 7 8
M  V30 8 1 8 9
M  V30 9 1 9 10
M  V30 10 1 10 11
M  V30 11 1 11 12
M  V30 12 1 12 13
M  V30 13 1 13 14
M  V30 14 1 14 15
M  V30 15 1 15 16
M  V30 16 2 16 17
M  V30 17 1 17 18
M  V30 18 2 18 19
M  V30 19 1 19 20
M  V30 20 2 20 21
M  V30 21 1 21 22
M  V30 22 1 22 23
M  V30 23 2 22 24
M  V30 24 1 24 25
M  V30 25 2 25 26
M  V30 26 1 10 2
M  V30 27 1 26 16
M  V30 28 1 8 3
M  V30 29 1 26 20
M  V30 30 1 24 7
M  V30 31 1 4 27
M  V30 32 1 5 28
M  V30 33 1 6 29
M  V30 34 1 11 30
M  V30 35 1 11 31
M  V30 36 1 12 32
M  V30 37 1 12 33
M  V30 38 1 13 34
M  V30 39 1 13 35
M  V30 40 1 14 36
M  V30 41 1 14 37
M  V30 42 1 17 38
M  V30 43 1 18 39
M  V30 44 1 19 40
M  V30 45 1 23 41
M  V30 END BOND
M  V30 END CTAB
M  END
>  <Dataset>  (936) 
ChEMBL_Kinases

>  <Ligand_Instance>  (936) 
nan

>  <PDB_ID>  (936) 
nan

>  <Standardized_SMILES>  (936) 
O=c1c2cccc3c2sn1CCCCOc1cccc2nc(O)c-3nc12

>  <Name>  (936) 
nan

>  <Pocket>  (936) 
nan

>  <ATP_Site>  (936) 
nan

>  <Peripheral>  (936) 
nan

>  <Num_H_Atoms_ProtBoundConf>  (936) 
nan

>  <Num_Resolved_Atoms>  (936) 
nan

>  <Num_Not_Resolved_Atoms>  (936) 
nan

$$$$
CHEMBL213346
     RDKit          3D

  0  0  0  0  0  0  0  0  0  0999 V3000
M  V30 BEGIN CTAB
M  V30 COUNTS 37 41 0 0 0
M  V30 BEGIN ATOM
M  V30 1 O 3.556438 1.090602 1.290483 0
M  V30 2 C 2.849674 0.060965 1.401540 0
M  V30 3 N 3.160579 -1.180264 2.064453 0
M  V30 4 C 2.054346 -2.053907 1.928239 0
M  V30 5 O 2.195563 -3.162742 2.458332 0
M  V30 6 C 1.008903 -1.409742 1.182009 0
M  V30 7 C 1.495373 -0.180283 0.886788 0
M  V30 8 C 0.727750 0.726375 0.156653 0
M  V30 9 C 1.213790 2.058148 -0.181734 0
M  V30 10 C 0.923384 3.048004 0.752328 0
M  V30 11 C 1.343889 4.361905 0.525892 0
M  V30 12 Cl 0.985468 5.636236 1.700300 0
M  V30 13 C 2.050046 4.695587 -0.622003 0
M  V30 14 C 2.325210 3.687299 -1.535891 0
M  V30 15 C 1.917861 2.389586 -1.326756 0
M  V30 16 Cl 2.251077 1.097308 -2.462665 0
M  V30 17 C -0.532214 0.353266 -0.259803 0
M  V30 18 C -0.998446 -0.897957 0.053770 0
M  V30 19 N -2.164869 -1.508646 -0.220305 0
M  V30 20 C -2.119419 -2.759176 0.325771 0
M  V30 21 C -3.107434 -3.725488 0.282279 0
M  V30 22 C -2.912689 -4.950449 0.885539 0
M  V30 23 C -1.696266 -5.177376 1.534275 0
M  V30 24 O -1.493449 -6.407714 2.143468 0
M  V30 25 C -0.764069 -4.165938 1.533410 0
M  V30 26 C -0.908726 -2.943401 0.953959 0
M  V30 27 C -0.228639 -1.780116 0.774611 0
M  V30 28 H 4.106337 -1.269562 2.532217 0
M  V30 29 H 0.387913 2.905593 1.668099 0
M  V30 30 H 2.367655 5.721070 -0.779462 0
M  V30 31 H 2.878762 3.929207 -2.443791 0
M  V30 32 H -1.113442 1.050918 -0.817332 0
M  V30 33 H -2.940808 -1.048810 -0.766511 0
M  V30 34 H -4.041338 -3.529631 -0.224889 0
M  V30 35 H -3.683812 -5.701480 0.850276 0
M  V30 36 H -1.625940 -6.495303 3.152679 0
M  V30 37 H 0.129191 -4.420509 2.046746 0
M  V30 END ATOM
M  V30 BEGIN BOND
M  V30 1 2 1 2
M  V30 2 1 2 3
M  V30 3 1 3 4
M  V30 4 2 4 5
M  V30 5 1 4 6
M  V30 6 2 6 7
M  V30 7 1 7 8
M  V30 8 1 8 9
M  V30 9 2 9 10
M  V30 10 1 10 11
M  V30 11 1 11 12
M  V30 12 2 11 13
M  V30 13 1 13 14
M  V30 14 2 14 15
M  V30 15 1 15 16
M  V30 16 2 8 17
M  V30 17 1 17 18
M  V30 18 1 18 19
M  V30 19 1 19 20
M  V30 20 2 20 21
M  V30 21 1 21 22
M  V30 22 2 22 23
M  V30 23 1 23 24
M  V30 24 1 23 25
M  V30 25 2 25 26
M  V30 26 1 26 27
M  V30 27 1 7 2
M  V30 28 1 15 9
M  V30 29 2 27 18
M  V30 30 1 27 6
M  V30 31 1 26 20
M  V30 32 1 3 28
M  V30 33 1 10 29
M  V30 34 1 13 30
M  V30 35 1 14 31
M  V30 36 1 17 32
M  V30 37 1 19 33
M  V30 38 1 21 34
M  V30 39 1 22 35
M  V30 40 1 24 36
M  V30 41 1 25 37
M  V30 END BOND
M  V30 END CTAB
M  END
>  <Dataset>  (937) 
ChEMBL_Kinases

>  <Ligand_Instance>  (937) 
nan

>  <PDB_ID>  (937) 
nan

>  <Standardized_SMILES>  (937) 
O=C1NC(=O)c2c1c(-c1cc(Cl)ccc1Cl)cc1[nH]c3ccc(O)cc3c21

>  <Name>  (937) 
nan

>  <Pocket>  (937) 
nan

>  <ATP_Site>  (937) 
nan

>  <Peripheral>  (937) 
nan

>  <Num_H_Atoms_ProtBoundConf>  (937) 
nan

>  <Num_Resolved_Atoms>  (937) 
nan

>  <Num_Not_Resolved_Atoms>  (937) 
nan

$$$$
CHEMBL213290
     RDKit          3D

  0  0  0  0  0  0  0  0  0  0999 V3000
M  V30 BEGIN CTAB
M  V30 COUNTS 70 74 0 0 0
M  V30 BEGIN ATOM
M  V30 1 C 1.032540 -1.159008 5.730636 0
M  V30 2 C 1.107233 0.182972 5.098070 0
M  V30 3 C 1.657556 1.248488 5.785008 0
M  V30 4 C 1.738296 2.522473 5.208632 0
M  V30 5 C 1.269958 2.757591 3.932209 0
M  V30 6 C 1.382982 4.103762 3.390296 0
M  V30 7 O 1.906063 4.958023 4.141377 0
M  V30 8 N 0.954646 4.508395 2.105662 0
M  V30 9 C 1.013972 5.775210 1.481219 0
M  V30 10 C 1.524702 6.927975 2.025410 0
M  V30 11 C 1.585785 8.151131 1.429673 0
M  V30 12 C 1.078224 8.232792 0.141482 0
M  V30 13 C 0.553454 7.111201 -0.455915 0
M  V30 14 C 0.023298 7.248425 -1.833956 0
M  V30 15 F 0.690224 6.416985 -2.726813 0
M  V30 16 F -1.339483 6.993243 -1.892446 0
M  V30 17 F 0.204474 8.537956 -2.298364 0
M  V30 18 C 0.523469 5.905635 0.205073 0
M  V30 19 C -0.046935 4.703826 -0.455779 0
M  V30 20 C 0.732900 1.677558 3.286159 0
M  V30 21 C 0.636734 0.411011 3.820665 0
M  V30 22 C 0.040783 -0.675425 3.035563 0
M  V30 23 C -1.146692 -0.334282 2.380502 0
M  V30 24 C -1.807553 -1.288335 1.600485 0
M  V30 25 C -1.292689 -2.569237 1.472971 0
M  V30 26 N -1.889124 -3.523939 0.734740 0
M  V30 27 C -1.361012 -4.762989 0.630842 0
M  V30 28 N -2.076784 -5.710121 -0.183874 0
M  V30 29 C -1.607233 -5.643427 -1.565840 0
M  V30 30 C -2.321712 -6.603236 -2.455810 0
M  V30 31 N -1.839039 -6.502154 -3.801148 0
M  V30 32 C -2.564381 -7.446843 -4.668932 0
M  V30 33 C -2.162965 -7.114046 -6.090036 0
M  V30 34 O -0.801477 -7.328501 -6.289210 0
M  V30 35 C -0.017607 -6.664963 -5.379048 0
M  V30 36 C -0.449903 -6.838426 -3.938250 0
M  V30 37 N -0.216510 -5.064037 1.272217 0
M  V30 38 C 0.449126 -4.172597 2.032852 0
M  V30 39 C -0.110414 -2.892813 2.130981 0
M  V30 40 C 0.546239 -1.954880 2.902434 0
M  V30 41 H 0.158427 -1.755177 5.402038 0
M  V30 42 H 1.991156 -1.689891 5.725451 0
M  V30 43 H 0.828775 -0.948347 6.820390 0
M  V30 44 H 2.014377 1.040756 6.775426 0
M  V30 45 H 2.190853 3.292610 5.838455 0
M  V30 46 H 0.541933 3.699249 1.595276 0
M  V30 47 H 1.930616 6.914786 3.024185 0
M  V30 48 H 1.995296 9.029648 1.893789 0
M  V30 49 H 1.096681 9.181875 -0.391189 0
M  V30 50 H 0.798351 4.006792 -0.647643 0
M  V30 51 H -0.831925 4.243332 0.191087 0
M  V30 52 H -0.473031 4.933852 -1.447420 0
M  V30 53 H 0.355601 1.806328 2.295204 0
M  V30 54 H -1.644008 0.637446 2.407508 0
M  V30 55 H -2.716531 -1.141498 1.057577 0
M  V30 56 H -2.837747 -6.404098 0.030491 0
M  V30 57 H -0.509953 -5.875033 -1.481344 0
M  V30 58 H -1.703777 -4.586451 -1.876948 0
M  V30 59 H -3.405327 -6.546592 -2.363695 0
M  V30 60 H -2.026108 -7.632057 -2.088324 0
M  V30 61 H -2.176013 -8.453184 -4.404695 0
M  V30 62 H -3.655145 -7.350373 -4.572315 0
M  V30 63 H -2.700333 -7.815649 -6.754662 0
M  V30 64 H -2.491861 -6.084193 -6.289977 0
M  V30 65 H 0.131124 -5.583922 -5.580849 0
M  V30 66 H 1.011154 -7.125551 -5.434376 0
M  V30 67 H 0.177659 -6.105510 -3.362365 0
M  V30 68 H -0.205057 -7.872775 -3.660869 0
M  V30 69 H 1.367676 -4.416582 2.546484 0
M  V30 70 H 1.467757 -2.159504 3.432077 0
M  V30 END ATOM
M  V30 BEGIN BOND
M  V30 1 1 1 2
M  V30 2 2 2 3
M  V30 3 1 3 4
M  V30 4 2 4 5
M  V30 5 1 5 6
M  V30 6 2 6 7
M  V30 7 1 6 8
M  V30 8 1 8 9
M  V30 9 2 9 10
M  V30 10 1 10 11
M  V30 11 2 11 12
M  V30 12 1 12 13
M  V30 13 1 13 14
M  V30 14 1 14 15
M  V30 15 1 14 16
M  V30 16 1 14 17
M  V30 17 2 13 18
M  V30 18 1 18 19
M  V30 19 1 5 20
M  V30 20 2 20 21
M  V30 21 1 21 22
M  V30 22 2 22 23
M  V30 23 1 23 24
M  V30 24 2 24 25
M  V30 25 1 25 26
M  V30 26 2 26 27
M  V30 27 1 27 28
M  V30 28 1 28 29
M  V30 29 1 29 30
M  V30 30 1 30 31
M  V30 31 1 31 32
M  V30 32 1 32 33
M  V30 33 1 33 34
M  V30 34 1 34 35
M  V30 35 1 35 36
M  V30 36 1 27 37
M  V30 37 2 37 38
M  V30 38 1 38 39
M  V30 39 2 39 40
M  V30 40 1 21 2
M  V30 41 1 40 22
M  V30 42 1 18 9
M  V30 43 1 39 25
M  V30 44 1 36 31
M  V30 45 1 1 41
M  V30 46 1 1 42
M  V30 47 1 1 43
M  V30 48 1 3 44
M  V30 49 1 4 45
M  V30 50 1 8 46
M  V30 51 1 10 47
M  V30 52 1 11 48
M  V30 53 1 12 49
M  V30 54 1 19 50
M  V30 55 1 19 51
M  V30 56 1 19 52
M  V30 57 1 20 53
M  V30 58 1 23 54
M  V30 59 1 24 55
M  V30 60 1 28 56
M  V30 61 1 29 57
M  V30 62 1 29 58
M  V30 63 1 30 59
M  V30 64 1 30 60
M  V30 65 1 32 61
M  V30 66 1 32 62
M  V30 67 1 33 63
M  V30 68 1 33 64
M  V30 69 1 35 65
M  V30 70 1 35 66
M  V30 71 1 36 67
M  V30 72 1 36 68
M  V30 73 1 38 69
M  V30 74 1 40 70
M  V30 END BOND
M  V30 END CTAB
M  END
>  <Dataset>  (938) 
ChEMBL_Kinases

>  <Ligand_Instance>  (938) 
nan

>  <PDB_ID>  (938) 
nan

>  <Standardized_SMILES>  (938) 
Cc1ccc(C(=O)Nc2cccc(C(F)(F)F)c2C)cc1-c1ccc2nc(NCCN3CCOCC3)ncc2c1

>  <Name>  (938) 
nan

>  <Pocket>  (938) 
nan

>  <ATP_Site>  (938) 
nan

>  <Peripheral>  (938) 
nan

>  <Num_H_Atoms_ProtBoundConf>  (938) 
nan

>  <Num_Resolved_Atoms>  (938) 
nan

>  <Num_Not_Resolved_Atoms>  (938) 
nan

$$$$
CHEMBL213258
     RDKit          3D

  0  0  0  0  0  0  0  0  0  0999 V3000
M  V30 BEGIN CTAB
M  V30 COUNTS 42 45 0 0 0
M  V30 BEGIN ATOM
M  V30 1 C -0.686899 -4.301510 0.069406 0
M  V30 2 C -0.176606 -3.451347 -1.046869 0
M  V30 3 C -0.594593 -3.682481 -2.353153 0
M  V30 4 C -0.148979 -2.920473 -3.424985 0
M  V30 5 C 0.739212 -1.900764 -3.175942 0
M  V30 6 F 1.252058 -1.082682 -4.124284 0
M  V30 7 C 1.181545 -1.634891 -1.895611 0
M  V30 8 C 2.109298 -0.608488 -1.464584 0
M  V30 9 N 3.395884 -0.567274 -1.900193 0
M  V30 10 C 4.019458 0.468303 -1.351733 0
M  V30 11 O 3.164858 1.080548 -0.584124 0
M  V30 12 C 2.000000 0.475463 -0.614224 0
M  V30 13 C 0.728733 0.759629 0.059514 0
M  V30 14 C -0.421913 1.072774 -0.672064 0
M  V30 15 C -1.610007 1.335983 0.016015 0
M  V30 16 C -1.657309 1.289897 1.404910 0
M  V30 17 N -2.604460 1.483948 2.327624 0
M  V30 18 N -2.127981 1.316290 3.545762 0
M  V30 19 C -0.814489 0.998673 3.426337 0
M  V30 20 C 0.141216 0.718105 4.515213 0
M  V30 21 C 0.765616 -0.630471 4.467790 0
M  V30 22 C 1.170890 1.843248 4.612494 0
M  V30 23 N -0.534556 0.984904 2.105302 0
M  V30 24 C 0.625326 0.727289 1.447276 0
M  V30 25 C 0.725343 -2.404687 -0.847439 0
M  V30 26 H -1.765247 -4.466378 -0.007298 0
M  V30 27 H -0.110606 -5.244486 0.152732 0
M  V30 28 H -0.491623 -3.742593 1.019015 0
M  V30 29 H -1.300968 -4.489205 -2.567314 0
M  V30 30 H -0.467524 -3.091848 -4.444200 0
M  V30 31 H 5.044662 0.790525 -1.482105 0
M  V30 32 H -0.393643 1.111189 -1.752855 0
M  V30 33 H -2.497597 1.577207 -0.542533 0
M  V30 34 H -0.435534 0.797759 5.472522 0
M  V30 35 H 0.384433 -1.279132 3.651958 0
M  V30 36 H 0.647215 -1.208914 5.408363 0
M  V30 37 H 1.879063 -0.470693 4.365750 0
M  V30 38 H 0.605615 2.782685 4.417959 0
M  V30 39 H 1.551598 1.900135 5.666483 0
M  V30 40 H 2.033920 1.678798 3.969112 0
M  V30 41 H 1.535389 0.482122 1.951457 0
M  V30 42 H 1.004094 -2.289702 0.210232 0
M  V30 END ATOM
M  V30 BEGIN BOND
M  V30 1 1 1 2
M  V30 2 2 2 3
M  V30 3 1 3 4
M  V30 4 2 4 5
M  V30 5 1 5 6
M  V30 6 1 5 7
M  V30 7 1 7 8
M  V30 8 1 8 9
M  V30 9 2 9 10
M  V30 10 1 10 11
M  V30 11 1 11 12
M  V30 12 1 12 13
M  V30 13 1 13 14
M  V30 14 2 14 15
M  V30 15 1 15 16
M  V30 16 2 16 17
M  V30 17 1 17 18
M  V30 18 2 18 19
M  V30 19 1 19 20
M  V30 20 1 20 21
M  V30 21 1 20 22
M  V30 22 1 19 23
M  V30 23 1 23 24
M  V30 24 2 7 25
M  V30 25 1 25 2
M  V30 26 2 12 8
M  V30 27 2 24 13
M  V30 28 1 23 16
M  V30 29 1 1 26
M  V30 30 1 1 27
M  V30 31 1 1 28
M  V30 32 1 3 29
M  V30 33 1 4 30
M  V30 34 1 10 31
M  V30 35 1 14 32
M  V30 36 1 15 33
M  V30 37 1 20 34
M  V30 38 1 21 35
M  V30 39 1 21 36
M  V30 40 1 21 37
M  V30 41 1 22 38
M  V30 42 1 22 39
M  V30 43 1 22 40
M  V30 44 1 24 41
M  V30 45 1 25 42
M  V30 END BOND
M  V30 END CTAB
M  END
>  <Dataset>  (939) 
ChEMBL_Kinases

>  <Ligand_Instance>  (939) 
nan

>  <PDB_ID>  (939) 
nan

>  <Standardized_SMILES>  (939) 
Cc1ccc(F)c(-c2ncoc2-c2ccc3nnc(C(C)C)n3c2)c1

>  <Name>  (939) 
nan

>  <Pocket>  (939) 
nan

>  <ATP_Site>  (939) 
nan

>  <Peripheral>  (939) 
nan

>  <Num_H_Atoms_ProtBoundConf>  (939) 
nan

>  <Num_Resolved_Atoms>  (939) 
nan

>  <Num_Not_Resolved_Atoms>  (939) 
nan

$$$$
CHEMBL213190
     RDKit          3D

  0  0  0  0  0  0  0  0  0  0999 V3000
M  V30 BEGIN CTAB
M  V30 COUNTS 53 56 0 0 0
M  V30 BEGIN ATOM
M  V30 1 C 2.600652 0.042822 3.809827 0
M  V30 2 N 3.025965 -1.164169 3.118174 0
M  V30 3 C 2.371256 -2.258576 3.855430 0
M  V30 4 C 2.491199 -1.217510 1.772428 0
M  V30 5 C 3.092042 -0.153911 0.887394 0
M  V30 6 N 2.573239 -0.159088 -0.461954 0
M  V30 7 C 1.143309 -0.031018 -0.393551 0
M  V30 8 N 0.461686 1.101158 -0.187751 0
M  V30 9 C -0.877789 1.213460 -0.148259 0
M  V30 10 C -1.411914 2.503934 0.146125 0
M  V30 11 C -2.586860 3.120589 -0.196397 0
M  V30 12 C -2.996650 4.392710 0.126362 0
M  V30 13 C -2.136796 5.155037 0.885735 0
M  V30 14 Cl -2.611608 6.773576 1.318553 0
M  V30 15 C -0.924506 4.656065 1.296578 0
M  V30 16 C -0.598512 3.351320 0.916701 0
M  V30 17 Cl 0.964540 2.824318 1.510171 0
M  V30 18 C -1.537791 0.015295 -0.344166 0
M  V30 19 C -0.863478 -1.164813 -0.554232 0
M  V30 20 N 0.476578 -1.182683 -0.580164 0
M  V30 21 N -1.515081 -2.421441 -0.655367 0
M  V30 22 C -0.866250 -3.688404 -0.878252 0
M  V30 23 C -0.396521 -4.440579 0.178397 0
M  V30 24 Cl -0.586536 -3.835833 1.806247 0
M  V30 25 C 0.221272 -5.663034 0.022273 0
M  V30 26 C 0.360094 -6.130159 -1.278051 0
M  V30 27 C -0.104101 -5.391532 -2.343611 0
M  V30 28 C -0.713801 -4.178942 -2.153984 0
M  V30 29 Cl -1.328079 -3.189673 -3.458944 0
M  V30 30 C -2.923038 -2.533578 -0.535174 0
M  V30 31 O -3.562648 -3.614404 -0.617650 0
M  V30 32 N -3.590834 -1.315893 -0.308820 0
M  V30 33 C -3.004435 0.036301 -0.360204 0
M  V30 34 H 2.593631 -0.193840 4.892994 0
M  V30 35 H 3.269344 0.895024 3.663482 0
M  V30 36 H 1.546345 0.219935 3.526083 0
M  V30 37 H 2.900855 -3.195150 3.705672 0
M  V30 38 H 1.287828 -2.278393 3.542428 0
M  V30 39 H 2.321881 -1.963519 4.931498 0
M  V30 40 H 1.396354 -1.075098 1.745352 0
M  V30 41 H 2.701951 -2.229125 1.374581 0
M  V30 42 H 4.182909 -0.462972 0.766055 0
M  V30 43 H 3.144857 0.831100 1.338861 0
M  V30 44 H 3.113120 -0.242143 -1.372710 0
M  V30 45 H -3.262932 2.557917 -0.804161 0
M  V30 46 H -3.955353 4.758599 -0.212638 0
M  V30 47 H -0.275695 5.281361 1.891355 0
M  V30 48 H 0.589958 -6.254769 0.853445 0
M  V30 49 H 0.828963 -7.077109 -1.512060 0
M  V30 50 H -0.039209 -5.674065 -3.393097 0
M  V30 51 H -4.626706 -1.341794 -0.070668 0
M  V30 52 H -3.283219 0.366414 -1.413279 0
M  V30 53 H -3.493419 0.612300 0.420548 0
M  V30 END ATOM
M  V30 BEGIN BOND
M  V30 1 1 1 2
M  V30 2 1 2 3
M  V30 3 1 2 4
M  V30 4 1 4 5
M  V30 5 1 5 6
M  V30 6 1 6 7
M  V30 7 2 7 8
M  V30 8 1 8 9
M  V30 9 1 9 10
M  V30 10 2 10 11
M  V30 11 1 11 12
M  V30 12 2 12 13
M  V30 13 1 13 14
M  V30 14 1 13 15
M  V30 15 2 15 16
M  V30 16 1 16 17
M  V30 17 2 9 18
M  V30 18 1 18 19
M  V30 19 2 19 20
M  V30 20 1 19 21
M  V30 21 1 21 22
M  V30 22 2 22 23
M  V30 23 1 23 24
M  V30 24 1 23 25
M  V30 25 2 25 26
M  V30 26 1 26 27
M  V30 27 2 27 28
M  V30 28 1 28 29
M  V30 29 1 21 30
M  V30 30 2 30 31
M  V30 31 1 30 32
M  V30 32 1 32 33
M  V30 33 1 20 7
M  V30 34 1 28 22
M  V30 35 1 16 10
M  V30 36 1 33 18
M  V30 37 1 1 34
M  V30 38 1 1 35
M  V30 39 1 1 36
M  V30 40 1 3 37
M  V30 41 1 3 38
M  V30 42 1 3 39
M  V30 43 1 4 40
M  V30 44 1 4 41
M  V30 45 1 5 42
M  V30 46 1 5 43
M  V30 47 1 6 44
M  V30 48 1 11 45
M  V30 49 1 12 46
M  V30 50 1 15 47
M  V30 51 1 25 48
M  V30 52 1 26 49
M  V30 53 1 27 50
M  V30 54 1 32 51
M  V30 55 1 33 52
M  V30 56 1 33 53
M  V30 END BOND
M  V30 END CTAB
M  END
>  <Dataset>  (940) 
ChEMBL_Kinases

>  <Ligand_Instance>  (940) 
nan

>  <PDB_ID>  (940) 
nan

>  <Standardized_SMILES>  (940) 
CN(C)CCNc1nc(-c2ccc(Cl)cc2Cl)c2c(n1)N(c1c(Cl)cccc1Cl)C(=O)NC2

>  <Name>  (940) 
nan

>  <Pocket>  (940) 
nan

>  <ATP_Site>  (940) 
nan

>  <Peripheral>  (940) 
nan

>  <Num_H_Atoms_ProtBoundConf>  (940) 
nan

>  <Num_Resolved_Atoms>  (940) 
nan

>  <Num_Not_Resolved_Atoms>  (940) 
nan

$$$$
CHEMBL213181
     RDKit          3D

  0  0  0  0  0  0  0  0  0  0999 V3000
M  V30 BEGIN CTAB
M  V30 COUNTS 42 44 0 0 0
M  V30 BEGIN ATOM
M  V30 1 C 0.235481 -7.615586 -3.541155 0
M  V30 2 N -0.233476 -6.339243 -3.011852 0
M  V30 3 C 0.809467 -5.448005 -2.650839 0
M  V30 4 N 2.106435 -5.773686 -2.793229 0
M  V30 5 C 3.077771 -4.895055 -2.436946 0
M  V30 6 C 2.808061 -3.640519 -1.917909 0
M  V30 7 C 1.468682 -3.355487 -1.792018 0
M  V30 8 C 1.041422 -1.999724 -1.230254 0
M  V30 9 C -0.165032 -1.482045 -1.009670 0
M  V30 10 C -0.202540 -0.247156 -0.500147 0
M  V30 11 C 0.949633 0.385929 -0.245797 0
M  V30 12 N 1.067914 1.763158 0.322818 0
M  V30 13 C 1.130833 1.929490 1.740560 0
M  V30 14 O 1.061286 0.743611 2.148180 0
M  V30 15 C 1.242452 3.394321 1.948386 0
M  V30 16 C 1.297718 3.653242 3.435229 0
M  V30 17 C 0.100172 3.181776 4.163346 0
M  V30 18 C -0.162723 1.990715 4.803074 0
M  V30 19 C -1.380379 1.776252 5.411164 0
M  V30 20 C -2.392978 2.705835 5.425169 0
M  V30 21 F -3.541977 2.369483 6.058402 0
M  V30 22 C -2.146195 3.901938 4.790421 0
M  V30 23 C -0.933433 4.127303 4.179351 0
M  V30 24 S 2.141693 -0.768304 -0.728875 0
M  V30 25 N 0.530129 -4.219391 -2.142429 0
M  V30 26 H -0.612426 -8.330400 -3.524854 0
M  V30 27 H 0.620822 -7.422566 -4.555357 0
M  V30 28 H 1.055261 -7.970834 -2.864074 0
M  V30 29 H -1.219999 -6.036062 -2.880634 0
M  V30 30 H 4.129112 -5.183774 -2.562568 0
M  V30 31 H 3.562786 -2.932462 -1.630606 0
M  V30 32 H -1.019686 -2.132800 -1.273023 0
M  V30 33 H -1.177811 0.237115 -0.294724 0
M  V30 34 H 1.083846 2.412792 -0.508251 0
M  V30 35 H 2.134547 3.813389 1.438400 0
M  V30 36 H 0.318113 3.885494 1.548746 0
M  V30 37 H 1.475078 4.739222 3.654868 0
M  V30 38 H 2.202198 3.153323 3.894222 0
M  V30 39 H 0.668360 1.304677 4.766149 0
M  V30 40 H -1.450509 0.795153 5.876112 0
M  V30 41 H -2.948073 4.626777 4.806726 0
M  V30 42 H -0.867142 5.109558 3.715602 0
M  V30 END ATOM
M  V30 BEGIN BOND
M  V30 1 1 1 2
M  V30 2 1 2 3
M  V30 3 2 3 4
M  V30 4 1 4 5
M  V30 5 2 5 6
M  V30 6 1 6 7
M  V30 7 1 7 8
M  V30 8 2 8 9
M  V30 9 1 9 10
M  V30 10 2 10 11
M  V30 11 1 11 12
M  V30 12 1 12 13
M  V30 13 2 13 14
M  V30 14 1 13 15
M  V30 15 1 15 16
M  V30 16 1 16 17
M  V30 17 2 17 18
M  V30 18 1 18 19
M  V30 19 2 19 20
M  V30 20 1 20 21
M  V30 21 1 20 22
M  V30 22 2 22 23
M  V30 23 1 11 24
M  V30 24 2 7 25
M  V30 25 1 25 3
M  V30 26 1 24 8
M  V30 27 1 23 17
M  V30 28 1 1 26
M  V30 29 1 1 27
M  V30 30 1 1 28
M  V30 31 1 2 29
M  V30 32 1 5 30
M  V30 33 1 6 31
M  V30 34 1 9 32
M  V30 35 1 10 33
M  V30 36 1 12 34
M  V30 37 1 15 35
M  V30 38 1 15 36
M  V30 39 1 16 37
M  V30 40 1 16 38
M  V30 41 1 18 39
M  V30 42 1 19 40
M  V30 43 1 22 41
M  V30 44 1 23 42
M  V30 END BOND
M  V30 END CTAB
M  END
>  <Dataset>  (941) 
ChEMBL_Kinases

>  <Ligand_Instance>  (941) 
nan

>  <PDB_ID>  (941) 
nan

>  <Standardized_SMILES>  (941) 
CNc1nccc(-c2ccc(NC(=O)CCc3ccc(F)cc3)s2)n1

>  <Name>  (941) 
nan

>  <Pocket>  (941) 
nan

>  <ATP_Site>  (941) 
nan

>  <Peripheral>  (941) 
nan

>  <Num_H_Atoms_ProtBoundConf>  (941) 
nan

>  <Num_Resolved_Atoms>  (941) 
nan

>  <Num_Not_Resolved_Atoms>  (941) 
nan

$$$$
CHEMBL213168
     RDKit          3D

  0  0  0  0  0  0  0  0  0  0999 V3000
M  V30 BEGIN CTAB
M  V30 COUNTS 39 40 0 0 0
M  V30 BEGIN ATOM
M  V30 1 C 0.380972 -3.485107 0.665337 0
M  V30 2 C 0.273103 -2.524201 -0.511696 0
M  V30 3 C 0.687283 -3.207907 -1.753716 0
M  V30 4 O 2.039223 -3.543831 -1.786813 0
M  V30 5 N 0.878084 -1.305237 -0.149848 0
M  V30 6 C 1.232415 -0.395417 -0.982508 0
M  V30 7 N 1.025213 -0.575957 -2.371162 0
M  V30 8 C 1.827672 0.747696 -0.321129 0
M  V30 9 C 2.225554 1.746094 -1.163202 0
M  V30 10 O 2.211893 1.965874 -2.524686 0
M  V30 11 N 2.857000 2.976784 -0.564608 0
M  V30 12 S 2.817410 2.577774 1.158443 0
M  V30 13 C 2.069062 1.013688 1.028183 0
M  V30 14 N 1.720125 0.088925 2.076534 0
M  V30 15 C 0.412031 0.302378 2.599842 0
M  V30 16 C -0.421610 1.296376 2.136752 0
M  V30 17 C -1.697522 1.555171 2.602786 0
M  V30 18 C -2.180055 0.741850 3.626799 0
M  V30 19 C -3.566643 1.066076 4.094066 0
M  V30 20 F -3.528510 2.389071 4.526440 0
M  V30 21 F -4.418128 1.076114 2.992533 0
M  V30 22 F -4.006108 0.241175 5.082807 0
M  V30 23 C -1.390723 -0.270219 4.131149 0
M  V30 24 C -0.113102 -0.473374 3.612446 0
M  V30 25 Cl 0.840580 -1.781077 4.302675 0
M  V30 26 H -0.355660 -4.302429 0.533128 0
M  V30 27 H 1.410104 -3.904777 0.745941 0
M  V30 28 H 0.187939 -2.962550 1.624898 0
M  V30 29 H -0.834817 -2.336203 -0.605392 0
M  V30 30 H 0.173756 -4.222850 -1.720281 0
M  V30 31 H 0.300727 -2.788194 -2.702764 0
M  V30 32 H 2.317376 -3.592044 -2.742910 0
M  V30 33 H 0.193486 -0.357931 -2.945214 0
M  V30 34 H 1.888863 -0.998402 -2.814082 0
M  V30 35 H 3.044160 1.844606 -3.067485 0
M  V30 36 H 2.277798 -0.686984 2.487232 0
M  V30 37 H -0.084223 1.961433 1.331066 0
M  V30 38 H -2.292155 2.353467 2.189200 0
M  V30 39 H -1.815610 -0.870667 4.925355 0
M  V30 END ATOM
M  V30 BEGIN BOND
M  V30 1 1 1 2
M  V30 2 1 2 3
M  V30 3 1 3 4
M  V30 4 1 2 5
M  V30 5 2 5 6
M  V30 6 1 6 7
M  V30 7 1 6 8
M  V30 8 1 8 9
M  V30 9 1 9 10
M  V30 10 2 9 11
M  V30 11 1 11 12
M  V30 12 1 12 13
M  V30 13 1 13 14
M  V30 14 1 14 15
M  V30 15 2 15 16
M  V30 16 1 16 17
M  V30 17 2 17 18
M  V30 18 1 18 19
M  V30 19 1 19 20
M  V30 20 1 19 21
M  V30 21 1 19 22
M  V30 22 1 18 23
M  V30 23 2 23 24
M  V30 24 1 24 25
M  V30 25 2 13 8
M  V30 26 1 24 15
M  V30 27 1 1 26
M  V30 28 1 1 27
M  V30 29 1 1 28
M  V30 30 1 2 29
M  V30 31 1 3 30
M  V30 32 1 3 31
M  V30 33 1 4 32
M  V30 34 1 7 33
M  V30 35 1 7 34
M  V30 36 1 10 35
M  V30 37 1 14 36
M  V30 38 1 16 37
M  V30 39 1 17 38
M  V30 40 1 23 39
M  V30 END BOND
M  V30 END CTAB
M  END
>  <Dataset>  (942) 
ChEMBL_Kinases

>  <Ligand_Instance>  (942) 
nan

>  <PDB_ID>  (942) 
nan

>  <Standardized_SMILES>  (942) 
CC(CO)/N=C(\N)c1c(O)nsc1Nc1ccc(C(F)(F)F)cc1Cl

>  <Name>  (942) 
nan

>  <Pocket>  (942) 
nan

>  <ATP_Site>  (942) 
nan

>  <Peripheral>  (942) 
nan

>  <Num_H_Atoms_ProtBoundConf>  (942) 
nan

>  <Num_Resolved_Atoms>  (942) 
nan

>  <Num_Not_Resolved_Atoms>  (942) 
nan

$$$$
CHEMBL213167
     RDKit          3D

  0  0  0  0  0  0  0  0  0  0999 V3000
M  V30 BEGIN CTAB
M  V30 COUNTS 36 37 0 0 0
M  V30 BEGIN ATOM
M  V30 1 C -0.914000 -3.245585 -0.188164 0
M  V30 2 C 0.442022 -2.549954 -0.186428 0
M  V30 3 C 1.093282 -2.909896 1.150672 0
M  V30 4 O 2.359960 -2.335024 1.220413 0
M  V30 5 N 0.330896 -1.141999 -0.316736 0
M  V30 6 C 1.053778 -0.327958 -0.956064 0
M  V30 7 N 1.983697 -1.244804 -1.482844 0
M  V30 8 C 1.033467 1.098823 -1.157095 0
M  V30 9 C 2.022367 1.603558 -1.935815 0
M  V30 10 O 3.090000 1.022098 -2.608996 0
M  V30 11 N 2.102960 2.934289 -2.188697 0
M  V30 12 S 0.669588 3.502996 -1.246732 0
M  V30 13 C 0.120323 1.932318 -0.628425 0
M  V30 14 N -0.932734 1.597092 0.146309 0
M  V30 15 C -1.039731 1.124429 1.501878 0
M  V30 16 C 0.068943 0.893383 2.313469 0
M  V30 17 C -0.077340 0.440032 3.605605 0
M  V30 18 C -1.365185 0.209931 4.104684 0
M  V30 19 I -1.673054 -0.489773 6.087463 0
M  V30 20 C -2.491171 0.438326 3.299548 0
M  V30 21 C -2.299039 0.892298 2.012210 0
M  V30 22 Cl -3.718806 1.194114 0.983110 0
M  V30 23 H -1.559759 -2.923908 -1.029019 0
M  V30 24 H -1.366663 -3.123821 0.803725 0
M  V30 25 H -0.700584 -4.343219 -0.315377 0
M  V30 26 H 1.038290 -3.052571 -0.972177 0
M  V30 27 H 1.181564 -4.024431 1.214343 0
M  V30 28 H 0.426484 -2.595391 1.949708 0
M  V30 29 H 2.987339 -3.019555 0.881440 0
M  V30 30 H 2.790280 -1.870879 -1.701478 0
M  V30 31 H 1.966706 -1.833577 -2.360204 0
M  V30 32 H 3.068118 0.647412 -3.535880 0
M  V30 33 H -1.807085 1.750532 -0.415398 0
M  V30 34 H 1.047023 1.093806 1.863137 0
M  V30 35 H 0.800282 0.254982 4.240530 0
M  V30 36 H -3.518551 0.275052 3.642269 0
M  V30 END ATOM
M  V30 BEGIN BOND
M  V30 1 1 1 2
M  V30 2 1 2 3
M  V30 3 1 3 4
M  V30 4 1 2 5
M  V30 5 2 5 6
M  V30 6 1 6 7
M  V30 7 1 6 8
M  V30 8 1 8 9
M  V30 9 1 9 10
M  V30 10 2 9 11
M  V30 11 1 11 12
M  V30 12 1 12 13
M  V30 13 1 13 14
M  V30 14 1 14 15
M  V30 15 2 15 16
M  V30 16 1 16 17
M  V30 17 2 17 18
M  V30 18 1 18 19
M  V30 19 1 18 20
M  V30 20 2 20 21
M  V30 21 1 21 22
M  V30 22 2 13 8
M  V30 23 1 21 15
M  V30 24 1 1 23
M  V30 25 1 1 24
M  V30 26 1 1 25
M  V30 27 1 2 26
M  V30 28 1 3 27
M  V30 29 1 3 28
M  V30 30 1 4 29
M  V30 31 1 7 30
M  V30 32 1 7 31
M  V30 33 1 10 32
M  V30 34 1 14 33
M  V30 35 1 16 34
M  V30 36 1 17 35
M  V30 37 1 20 36
M  V30 END BOND
M  V30 END CTAB
M  END
>  <Dataset>  (943) 
ChEMBL_Kinases

>  <Ligand_Instance>  (943) 
nan

>  <PDB_ID>  (943) 
nan

>  <Standardized_SMILES>  (943) 
CC(CO)/N=C(\N)c1c(O)nsc1Nc1ccc(I)cc1Cl

>  <Name>  (943) 
nan

>  <Pocket>  (943) 
nan

>  <ATP_Site>  (943) 
nan

>  <Peripheral>  (943) 
nan

>  <Num_H_Atoms_ProtBoundConf>  (943) 
nan

>  <Num_Resolved_Atoms>  (943) 
nan

>  <Num_Not_Resolved_Atoms>  (943) 
nan

$$$$
CHEMBL213159
     RDKit          3D

  0  0  0  0  0  0  0  0  0  0999 V3000
M  V30 BEGIN CTAB
M  V30 COUNTS 43 47 0 0 0
M  V30 BEGIN ATOM
M  V30 1 C -0.096522 -2.391979 3.345878 0
M  V30 2 C 1.307227 -2.395542 2.838591 0
M  V30 3 C 1.523316 -2.715909 1.418833 0
M  V30 4 N 1.729638 -3.952980 0.930932 0
M  V30 5 N 1.884444 -3.872791 -0.366653 0
M  V30 6 C 1.789249 -2.609354 -0.780485 0
M  V30 7 C 1.860549 -1.940065 -1.962252 0
M  V30 8 C 1.714629 -0.567287 -2.083221 0
M  V30 9 C 1.482561 0.170806 -0.937148 0
M  V30 10 C 1.306273 1.617029 -0.854709 0
M  V30 11 O 2.139383 2.623429 -0.939937 0
M  V30 12 C 1.486517 3.761574 -0.797633 0
M  V30 13 N 0.176059 3.460396 -0.613147 0
M  V30 14 C 0.014547 2.113152 -0.641919 0
M  V30 15 C -1.319136 1.552963 -0.467154 0
M  V30 16 C -1.806169 0.748244 0.535823 0
M  V30 17 C -3.102357 0.290860 0.560347 0
M  V30 18 F -3.494269 -0.496683 1.587455 0
M  V30 19 C -3.925533 0.686339 -0.500916 0
M  V30 20 F -5.193734 0.242259 -0.481592 0
M  V30 21 C -3.487475 1.486915 -1.523167 0
M  V30 22 C -2.177746 1.920193 -1.503051 0
M  V30 23 F -1.859203 2.714946 -2.578797 0
M  V30 24 C 1.419521 -0.570263 0.249464 0
M  V30 25 N 1.564979 -1.905886 0.341035 0
M  V30 26 C 2.169232 -3.285786 3.744710 0
M  V30 27 C 2.282041 -2.081642 4.654275 0
M  V30 28 C 2.136080 -1.243516 3.382032 0
M  V30 29 H -0.242493 -3.040167 4.249999 0
M  V30 30 H -0.777992 -2.765297 2.573637 0
M  V30 31 H -0.395422 -1.367975 3.688037 0
M  V30 32 H 2.040977 -2.502139 -2.868209 0
M  V30 33 H 1.764321 -0.003355 -2.993636 0
M  V30 34 H 1.938872 4.747732 -0.826710 0
M  V30 35 H -1.083133 0.516982 1.291346 0
M  V30 36 H -4.199633 1.740572 -2.300133 0
M  V30 37 H 1.240722 -0.019503 1.183583 0
M  V30 38 H 1.638495 -4.157264 4.128637 0
M  V30 39 H 3.168240 -3.470893 3.277674 0
M  V30 40 H 1.373100 -1.967643 5.257785 0
M  V30 41 H 3.250508 -1.970313 5.181274 0
M  V30 42 H 1.594927 -0.306431 3.570639 0
M  V30 43 H 3.139378 -1.173110 2.917273 0
M  V30 END ATOM
M  V30 BEGIN BOND
M  V30 1 1 1 2
M  V30 2 1 2 3
M  V30 3 2 3 4
M  V30 4 1 4 5
M  V30 5 2 5 6
M  V30 6 1 6 7
M  V30 7 2 7 8
M  V30 8 1 8 9
M  V30 9 1 9 10
M  V30 10 1 10 11
M  V30 11 1 11 12
M  V30 12 2 12 13
M  V30 13 1 13 14
M  V30 14 1 14 15
M  V30 15 2 15 16
M  V30 16 1 16 17
M  V30 17 1 17 18
M  V30 18 2 17 19
M  V30 19 1 19 20
M  V30 20 1 19 21
M  V30 21 2 21 22
M  V30 22 1 22 23
M  V30 23 2 9 24
M  V30 24 1 24 25
M  V30 25 1 2 26
M  V30 26 1 26 27
M  V30 27 1 27 28
M  V30 28 1 28 2
M  V30 29 1 25 3
M  V30 30 1 25 6
M  V30 31 2 14 10
M  V30 32 1 22 15
M  V30 33 1 1 29
M  V30 34 1 1 30
M  V30 35 1 1 31
M  V30 36 1 7 32
M  V30 37 1 8 33
M  V30 38 1 12 34
M  V30 39 1 16 35
M  V30 40 1 21 36
M  V30 41 1 24 37
M  V30 42 1 26 38
M  V30 43 1 26 39
M  V30 44 1 27 40
M  V30 45 1 27 41
M  V30 46 1 28 42
M  V30 47 1 28 43
M  V30 END BOND
M  V30 END CTAB
M  END
>  <Dataset>  (944) 
ChEMBL_Kinases

>  <Ligand_Instance>  (944) 
nan

>  <PDB_ID>  (944) 
nan

>  <Standardized_SMILES>  (944) 
CC1(c2nnc3ccc(-c4ocnc4-c4cc(F)c(F)cc4F)cn23)CCC1

>  <Name>  (944) 
nan

>  <Pocket>  (944) 
nan

>  <ATP_Site>  (944) 
nan

>  <Peripheral>  (944) 
nan

>  <Num_H_Atoms_ProtBoundConf>  (944) 
nan

>  <Num_Resolved_Atoms>  (944) 
nan

>  <Num_Not_Resolved_Atoms>  (944) 
nan

$$$$
CHEMBL213142
     RDKit          3D

  0  0  0  0  0  0  0  0  0  0999 V3000
M  V30 BEGIN CTAB
M  V30 COUNTS 65 69 0 0 0
M  V30 BEGIN ATOM
M  V30 1 C 0.629155 -3.719193 6.250260 0
M  V30 2 N 0.086595 -2.788636 5.272910 0
M  V30 3 C -0.862720 -3.562348 4.471771 0
M  V30 4 C -0.510831 -1.644040 5.867547 0
M  V30 5 C -1.053595 -0.607563 4.928315 0
M  V30 6 N -0.099064 -0.034405 4.052418 0
M  V30 7 C 0.460063 -0.832626 3.032329 0
M  V30 8 C -0.594353 -1.140939 1.996001 0
M  V30 9 N -0.797109 0.086017 1.251721 0
M  V30 10 C -0.490812 0.319792 -0.115507 0
M  V30 11 N -0.632106 1.519671 -0.742247 0
M  V30 12 C -0.325999 1.671794 -2.044484 0
M  V30 13 C -0.575652 3.042054 -2.455373 0
M  V30 14 C 0.292412 3.968958 -2.983935 0
M  V30 15 C -0.048781 5.252137 -3.321475 0
M  V30 16 C -1.344407 5.679065 -3.131074 0
M  V30 17 Cl -1.681433 7.339035 -3.591700 0
M  V30 18 C -2.274538 4.801691 -2.602565 0
M  V30 19 C -1.877457 3.502458 -2.274271 0
M  V30 20 Cl -3.149884 2.496548 -1.615775 0
M  V30 21 C 0.140772 0.608629 -2.782242 0
M  V30 22 C 0.285189 -0.613610 -2.147816 0
M  V30 23 N -0.038069 -0.696276 -0.843836 0
M  V30 24 N 0.738891 -1.732445 -2.904216 0
M  V30 25 C 0.893433 -2.973334 -2.275429 0
M  V30 26 C 2.090141 -3.395427 -1.677138 0
M  V30 27 Cl 3.469553 -2.311562 -1.720963 0
M  V30 28 C 2.152573 -4.655884 -1.068182 0
M  V30 29 C 1.047355 -5.484084 -1.052605 0
M  V30 30 C -0.145863 -5.090777 -1.636287 0
M  V30 31 C -0.216267 -3.831948 -2.247095 0
M  V30 32 Cl -1.734260 -3.317001 -2.995573 0
M  V30 33 C 1.044943 -1.633073 -4.292697 0
M  V30 34 O 1.449820 -2.580748 -5.015314 0
M  V30 35 N 0.871166 -0.352055 -4.886253 0
M  V30 36 C 0.450152 0.884525 -4.206981 0
M  V30 37 C -1.369373 0.994927 2.187492 0
M  V30 38 C -0.645431 1.165475 3.478303 0
M  V30 39 H 0.943117 -3.130350 7.139041 0
M  V30 40 H 1.513052 -4.196311 5.772164 0
M  V30 41 H -0.134437 -4.491551 6.465189 0
M  V30 42 H -1.155472 -4.496101 5.008033 0
M  V30 43 H -0.457116 -3.793610 3.456575 0
M  V30 44 H -1.789876 -2.978187 4.303914 0
M  V30 45 H -1.384110 -2.012431 6.483556 0
M  V30 46 H 0.183027 -1.219820 6.618688 0
M  V30 47 H -1.975017 -0.950477 4.416733 0
M  V30 48 H -1.417592 0.234009 5.587348 0
M  V30 49 H 1.053861 -1.711569 3.347800 0
M  V30 50 H 1.219502 -0.190203 2.500935 0
M  V30 51 H -1.528931 -1.541929 2.415837 0
M  V30 52 H -0.178446 -1.941711 1.342602 0
M  V30 53 H 1.305299 3.646501 -3.124795 0
M  V30 54 H 0.733695 5.897528 -3.735177 0
M  V30 55 H -3.274315 5.168292 -2.467115 0
M  V30 56 H 3.094802 -4.946522 -0.616453 0
M  V30 57 H 1.140305 -6.460821 -0.566532 0
M  V30 58 H -1.029387 -5.739041 -1.630644 0
M  V30 59 H 1.056823 -0.246218 -5.928288 0
M  V30 60 H -0.443654 1.235261 -4.752618 0
M  V30 61 H 1.269604 1.624108 -4.282487 0
M  V30 62 H -1.423208 2.026656 1.726235 0
M  V30 63 H -2.441613 0.738898 2.360242 0
M  V30 64 H 0.157165 1.946967 3.360778 0
M  V30 65 H -1.352350 1.586023 4.245198 0
M  V30 END ATOM
M  V30 BEGIN BOND
M  V30 1 1 1 2
M  V30 2 1 2 3
M  V30 3 1 2 4
M  V30 4 1 4 5
M  V30 5 1 5 6
M  V30 6 1 6 7
M  V30 7 1 7 8
M  V30 8 1 8 9
M  V30 9 1 9 10
M  V30 10 2 10 11
M  V30 11 1 11 12
M  V30 12 1 12 13
M  V30 13 2 13 14
M  V30 14 1 14 15
M  V30 15 2 15 16
M  V30 16 1 16 17
M  V30 17 1 16 18
M  V30 18 2 18 19
M  V30 19 1 19 20
M  V30 20 2 12 21
M  V30 21 1 21 22
M  V30 22 2 22 23
M  V30 23 1 22 24
M  V30 24 1 24 25
M  V30 25 2 25 26
M  V30 26 1 26 27
M  V30 27 1 26 28
M  V30 28 2 28 29
M  V30 29 1 29 30
M  V30 30 2 30 31
M  V30 31 1 31 32
M  V30 32 1 24 33
M  V30 33 2 33 34
M  V30 34 1 33 35
M  V30 35 1 35 36
M  V30 36 1 9 37
M  V30 37 1 37 38
M  V30 38 1 38 6
M  V30 39 1 23 10
M  V30 40 1 31 25
M  V30 41 1 19 13
M  V30 42 1 36 21
M  V30 43 1 1 39
M  V30 44 1 1 40
M  V30 45 1 1 41
M  V30 46 1 3 42
M  V30 47 1 3 43
M  V30 48 1 3 44
M  V30 49 1 4 45
M  V30 50 1 4 46
M  V30 51 1 5 47
M  V30 52 1 5 48
M  V30 53 1 7 49
M  V30 54 1 7 50
M  V30 55 1 8 51
M  V30 56 1 8 52
M  V30 57 1 14 53
M  V30 58 1 15 54
M  V30 59 1 18 55
M  V30 60 1 28 56
M  V30 61 1 29 57
M  V30 62 1 30 58
M  V30 63 1 35 59
M  V30 64 1 36 60
M  V30 65 1 36 61
M  V30 66 1 37 62
M  V30 67 1 37 63
M  V30 68 1 38 64
M  V30 69 1 38 65
M  V30 END BOND
M  V30 END CTAB
M  END
>  <Dataset>  (945) 
ChEMBL_Kinases

>  <Ligand_Instance>  (945) 
nan

>  <PDB_ID>  (945) 
nan

>  <Standardized_SMILES>  (945) 
CN(C)CCN1CCN(c2nc(-c3ccc(Cl)cc3Cl)c3c(n2)N(c2c(Cl)cccc2Cl)C(=O)NC3)CC1

>  <Name>  (945) 
nan

>  <Pocket>  (945) 
nan

>  <ATP_Site>  (945) 
nan

>  <Peripheral>  (945) 
nan

>  <Num_H_Atoms_ProtBoundConf>  (945) 
nan

>  <Num_Resolved_Atoms>  (945) 
nan

>  <Num_Not_Resolved_Atoms>  (945) 
nan

$$$$
CHEMBL213127
     RDKit          3D

  0  0  0  0  0  0  0  0  0  0999 V3000
M  V30 BEGIN CTAB
M  V30 COUNTS 42 44 0 0 0
M  V30 BEGIN ATOM
M  V30 1 C -0.547741 -6.974535 -1.881434 0
M  V30 2 N 0.096013 -6.221125 -2.956090 0
M  V30 3 C 1.204800 -5.492299 -2.440419 0
M  V30 4 N 2.496420 -5.875291 -2.329283 0
M  V30 5 C 3.394622 -5.019322 -1.805987 0
M  V30 6 C 3.083862 -3.731816 -1.357680 0
M  V30 7 C 1.753762 -3.396572 -1.495627 0
M  V30 8 C 1.309598 -2.047010 -1.049810 0
M  V30 9 C 0.138467 -1.459089 -1.054844 0
M  V30 10 C -0.005835 -0.190268 -0.579946 0
M  V30 11 C 1.111816 0.409791 -0.113630 0
M  V30 12 C 1.406983 1.755920 0.481497 0
M  V30 13 O 2.571465 1.997596 0.814795 0
M  V30 14 N 0.266513 2.561744 0.569376 0
M  V30 15 C 0.413141 3.889337 1.127570 0
M  V30 16 C 0.916570 3.788445 2.541449 0
M  V30 17 C 0.027242 3.040032 3.449003 0
M  V30 18 C 0.044808 1.689518 3.728767 0
M  V30 19 C -0.853574 1.114234 4.602807 0
M  V30 20 C -1.814051 1.867062 5.239164 0
M  V30 21 Br -3.041323 1.052811 6.439375 0
M  V30 22 C -1.889102 3.224218 5.005977 0
M  V30 23 C -0.966501 3.758903 4.120549 0
M  V30 24 S 2.397884 -0.867786 -0.359287 0
M  V30 25 N 0.853700 -4.241190 -2.014794 0
M  V30 26 H -0.825244 -6.289135 -1.036866 0
M  V30 27 H 0.114428 -7.788182 -1.538386 0
M  V30 28 H -1.513675 -7.330097 -2.297843 0
M  V30 29 H -0.237542 -6.238093 -3.952909 0
M  V30 30 H 4.416548 -5.369943 -1.736953 0
M  V30 31 H 3.832393 -3.082854 -0.947160 0
M  V30 32 H -0.714309 -2.018254 -1.450923 0
M  V30 33 H -0.921297 0.387053 -0.537160 0
M  V30 34 H -0.690424 2.285966 0.264361 0
M  V30 35 H 1.210146 4.444007 0.559066 0
M  V30 36 H -0.514125 4.467427 1.094895 0
M  V30 37 H 1.012972 4.838458 2.942309 0
M  V30 38 H 1.952505 3.381389 2.580411 0
M  V30 39 H 0.796326 1.117697 3.229119 0
M  V30 40 H -0.770709 0.049582 4.765750 0
M  V30 41 H -2.615741 3.875578 5.469640 0
M  V30 42 H -1.036898 4.843544 3.942864 0
M  V30 END ATOM
M  V30 BEGIN BOND
M  V30 1 1 1 2
M  V30 2 1 2 3
M  V30 3 2 3 4
M  V30 4 1 4 5
M  V30 5 2 5 6
M  V30 6 1 6 7
M  V30 7 1 7 8
M  V30 8 2 8 9
M  V30 9 1 9 10
M  V30 10 2 10 11
M  V30 11 1 11 12
M  V30 12 2 12 13
M  V30 13 1 12 14
M  V30 14 1 14 15
M  V30 15 1 15 16
M  V30 16 1 16 17
M  V30 17 2 17 18
M  V30 18 1 18 19
M  V30 19 2 19 20
M  V30 20 1 20 21
M  V30 21 1 20 22
M  V30 22 2 22 23
M  V30 23 1 11 24
M  V30 24 2 7 25
M  V30 25 1 25 3
M  V30 26 1 24 8
M  V30 27 1 23 17
M  V30 28 1 1 26
M  V30 29 1 1 27
M  V30 30 1 1 28
M  V30 31 1 2 29
M  V30 32 1 5 30
M  V30 33 1 6 31
M  V30 34 1 9 32
M  V30 35 1 10 33
M  V30 36 1 14 34
M  V30 37 1 15 35
M  V30 38 1 15 36
M  V30 39 1 16 37
M  V30 40 1 16 38
M  V30 41 1 18 39
M  V30 42 1 19 40
M  V30 43 1 22 41
M  V30 44 1 23 42
M  V30 END BOND
M  V30 END CTAB
M  END
>  <Dataset>  (946) 
ChEMBL_Kinases

>  <Ligand_Instance>  (946) 
nan

>  <PDB_ID>  (946) 
nan

>  <Standardized_SMILES>  (946) 
CNc1nccc(-c2ccc(C(=O)NCCc3ccc(Br)cc3)s2)n1

>  <Name>  (946) 
nan

>  <Pocket>  (946) 
nan

>  <ATP_Site>  (946) 
nan

>  <Peripheral>  (946) 
nan

>  <Num_H_Atoms_ProtBoundConf>  (946) 
nan

>  <Num_Resolved_Atoms>  (946) 
nan

>  <Num_Not_Resolved_Atoms>  (946) 
nan

$$$$
CHEMBL213117
     RDKit          3D

  0  0  0  0  0  0  0  0  0  0999 V3000
M  V30 BEGIN CTAB
M  V30 COUNTS 41 45 0 0 0
M  V30 BEGIN ATOM
M  V30 1 C 1.950835 -7.262124 1.916766 0
M  V30 2 O 0.809386 -6.805981 1.219776 0
M  V30 3 C 0.608672 -5.435869 1.113758 0
M  V30 4 C -0.507514 -4.994410 0.432131 0
M  V30 5 C -0.760232 -3.645157 0.293838 0
M  V30 6 C 0.074543 -2.691909 0.820578 0
M  V30 7 C -0.055507 -1.243357 0.775608 0
M  V30 8 C 1.115129 -0.637748 0.298348 0
M  V30 9 C 1.182325 0.734796 0.162610 0
M  V30 10 N 2.182011 1.559288 -0.270149 0
M  V30 11 C 1.675595 2.803046 -0.185708 0
M  V30 12 C 2.349355 3.970172 -0.527063 0
M  V30 13 C 1.736308 5.199553 -0.402528 0
M  V30 14 C 0.440499 5.222862 0.069811 0
M  V30 15 O -0.166742 6.457340 0.191795 0
M  V30 16 C -0.176439 4.036087 0.391969 0
M  V30 17 C 0.383250 2.799983 0.287528 0
M  V30 18 C 0.084353 1.490873 0.503154 0
M  V30 19 C -1.053847 0.919135 0.966315 0
M  V30 20 C -1.133209 -0.444317 1.105870 0
M  V30 21 C -2.400259 -0.894397 1.613561 0
M  V30 22 O -2.803447 -2.060194 1.859175 0
M  V30 23 N -3.154435 0.323672 1.794668 0
M  V30 24 C -2.330601 1.406821 1.400727 0
M  V30 25 O -2.839265 2.530284 1.498281 0
M  V30 26 C 1.193050 -3.190772 1.502636 0
M  V30 27 C 1.488939 -4.528807 1.667412 0
M  V30 28 H 2.855608 -6.767803 1.472772 0
M  V30 29 H 2.076217 -8.341996 1.891462 0
M  V30 30 H 1.923113 -6.898459 2.977206 0
M  V30 31 H -1.206598 -5.679735 -0.007130 0
M  V30 32 H -1.612397 -3.278856 -0.236589 0
M  V30 33 H 2.026618 -1.176142 0.008546 0
M  V30 34 H 3.133321 1.255759 -0.593695 0
M  V30 35 H 3.363984 3.969545 -0.898339 0
M  V30 36 H 2.269866 6.094097 -0.670429 0
M  V30 37 H -0.127302 7.021289 1.039006 0
M  V30 38 H -1.170224 4.149996 0.746153 0
M  V30 39 H -4.149822 0.278490 2.167992 0
M  V30 40 H 1.911331 -2.495798 1.953823 0
M  V30 41 H 2.366365 -4.845306 2.203437 0
M  V30 END ATOM
M  V30 BEGIN BOND
M  V30 1 1 1 2
M  V30 2 1 2 3
M  V30 3 2 3 4
M  V30 4 1 4 5
M  V30 5 2 5 6
M  V30 6 1 6 7
M  V30 7 2 7 8
M  V30 8 1 8 9
M  V30 9 1 9 10
M  V30 10 1 10 11
M  V30 11 2 11 12
M  V30 12 1 12 13
M  V30 13 2 13 14
M  V30 14 1 14 15
M  V30 15 1 14 16
M  V30 16 2 16 17
M  V30 17 1 17 18
M  V30 18 1 18 19
M  V30 19 2 19 20
M  V30 20 1 20 21
M  V30 21 2 21 22
M  V30 22 1 21 23
M  V30 23 1 23 24
M  V30 24 2 24 25
M  V30 25 1 6 26
M  V30 26 2 26 27
M  V30 27 1 27 3
M  V30 28 1 20 7
M  V30 29 2 18 9
M  V30 30 1 24 19
M  V30 31 1 17 11
M  V30 32 1 1 28
M  V30 33 1 1 29
M  V30 34 1 1 30
M  V30 35 1 4 31
M  V30 36 1 5 32
M  V30 37 1 8 33
M  V30 38 1 10 34
M  V30 39 1 12 35
M  V30 40 1 13 36
M  V30 41 1 15 37
M  V30 42 1 16 38
M  V30 43 1 23 39
M  V30 44 1 26 40
M  V30 45 1 27 41
M  V30 END BOND
M  V30 END CTAB
M  END
>  <Dataset>  (947) 
ChEMBL_Kinases

>  <Ligand_Instance>  (947) 
nan

>  <PDB_ID>  (947) 
nan

>  <Standardized_SMILES>  (947) 
COc1ccc(-c2cc3[nH]c4ccc(O)cc4c3c3c2C(=O)NC3=O)cc1

>  <Name>  (947) 
nan

>  <Pocket>  (947) 
nan

>  <ATP_Site>  (947) 
nan

>  <Peripheral>  (947) 
nan

>  <Num_H_Atoms_ProtBoundConf>  (947) 
nan

>  <Num_Resolved_Atoms>  (947) 
nan

>  <Num_Not_Resolved_Atoms>  (947) 
nan

$$$$
CHEMBL214587
     RDKit          3D

  0  0  0  0  0  0  0  0  0  0999 V3000
M  V30 BEGIN CTAB
M  V30 COUNTS 56 59 0 0 0
M  V30 BEGIN ATOM
M  V30 1 N 0.346232 1.184792 3.576616 0
M  V30 2 C -0.111876 1.325451 2.253134 0
M  V30 3 N 0.134182 0.418287 1.383359 0
M  V30 4 C 0.867952 -0.786439 1.655915 0
M  V30 5 C 2.354005 -0.638143 1.736836 0
M  V30 6 N 2.968410 -0.183319 0.545321 0
M  V30 7 C 4.421911 -0.118657 0.652478 0
M  V30 8 C 4.891874 -0.094038 -0.798903 0
M  V30 9 O 4.534324 1.103535 -1.335731 0
M  V30 10 C 3.330756 1.634728 -1.072084 0
M  V30 11 C 2.426038 0.965986 -0.096227 0
M  V30 12 C -0.884706 2.402280 1.692063 0
M  V30 13 C -1.200729 3.431156 2.532642 0
M  V30 14 O -0.901421 3.660099 3.867555 0
M  V30 15 N -1.963729 4.585296 2.204533 0
M  V30 16 S -2.300235 4.173216 0.429846 0
M  V30 17 C -1.418091 2.598324 0.380386 0
M  V30 18 N -1.200241 1.673937 -0.624669 0
M  V30 19 C -1.784242 0.411255 -0.912816 0
M  V30 20 C -2.726625 -0.175760 -0.094849 0
M  V30 21 C -3.244679 -1.437155 -0.427369 0
M  V30 22 C -2.806079 -2.096660 -1.585902 0
M  V30 23 O -3.514000 -3.300244 -1.596124 0
M  V30 24 C -3.027379 -4.443571 -0.926430 0
M  V30 25 C -3.979877 -4.739186 0.059839 0
M  V30 26 C -3.809201 -5.814303 0.911000 0
M  V30 27 Cl -4.881693 -6.328576 2.191693 0
M  V30 28 C -2.670096 -6.619034 0.785208 0
M  V30 29 C -1.738313 -6.325915 -0.184654 0
M  V30 30 C -1.926610 -5.252391 -1.020455 0
M  V30 31 Cl -0.850916 -4.761393 -2.301099 0
M  V30 32 C -1.869846 -1.475335 -2.373324 0
M  V30 33 C -1.361587 -0.242092 -2.049197 0
M  V30 34 H -0.416646 0.624791 3.964012 0
M  V30 35 H 1.251052 1.735589 3.486894 0
M  V30 36 H 0.661758 -1.567883 0.878248 0
M  V30 37 H 0.509966 -1.279298 2.606080 0
M  V30 38 H 2.673489 -0.073403 2.648169 0
M  V30 39 H 2.764910 -1.677587 1.928152 0
M  V30 40 H 4.742350 0.806321 1.127779 0
M  V30 41 H 4.805470 -1.049335 1.108131 0
M  V30 42 H 5.995644 -0.207743 -0.859121 0
M  V30 43 H 4.346484 -0.906975 -1.325772 0
M  V30 44 H 2.766628 1.711602 -2.051122 0
M  V30 45 H 3.484382 2.723499 -0.800914 0
M  V30 46 H 1.449149 0.699996 -0.544313 0
M  V30 47 H 2.224546 1.713610 0.708434 0
M  V30 48 H -0.922244 2.989171 4.597242 0
M  V30 49 H -0.449633 2.079758 -1.224432 0
M  V30 50 H -2.986278 0.424486 0.765044 0
M  V30 51 H -3.965434 -1.716444 0.341936 0
M  V30 52 H -4.922289 -4.247295 0.323837 0
M  V30 53 H -2.388008 -7.490406 1.369571 0
M  V30 54 H -0.816534 -6.846959 -0.401218 0
M  V30 55 H -1.653031 -2.099347 -3.220497 0
M  V30 56 H -0.635742 0.111857 -2.761885 0
M  V30 END ATOM
M  V30 BEGIN BOND
M  V30 1 1 1 2
M  V30 2 2 2 3
M  V30 3 1 3 4
M  V30 4 1 4 5
M  V30 5 1 5 6
M  V30 6 1 6 7
M  V30 7 1 7 8
M  V30 8 1 8 9
M  V30 9 1 9 10
M  V30 10 1 10 11
M  V30 11 1 2 12
M  V30 12 1 12 13
M  V30 13 1 13 14
M  V30 14 2 13 15
M  V30 15 1 15 16
M  V30 16 1 16 17
M  V30 17 1 17 18
M  V30 18 1 18 19
M  V30 19 2 19 20
M  V30 20 1 20 21
M  V30 21 2 21 22
M  V30 22 1 22 23
M  V30 23 1 23 24
M  V30 24 2 24 25
M  V30 25 1 25 26
M  V30 26 1 26 27
M  V30 27 2 26 28
M  V30 28 1 28 29
M  V30 29 2 29 30
M  V30 30 1 30 31
M  V30 31 1 22 32
M  V30 32 2 32 33
M  V30 33 1 11 6
M  V30 34 2 17 12
M  V30 35 1 33 19
M  V30 36 1 30 24
M  V30 37 1 1 34
M  V30 38 1 1 35
M  V30 39 1 4 36
M  V30 40 1 4 37
M  V30 41 1 5 38
M  V30 42 1 5 39
M  V30 43 1 7 40
M  V30 44 1 7 41
M  V30 45 1 8 42
M  V30 46 1 8 43
M  V30 47 1 10 44
M  V30 48 1 10 45
M  V30 49 1 11 46
M  V30 50 1 11 47
M  V30 51 1 14 48
M  V30 52 1 18 49
M  V30 53 1 20 50
M  V30 54 1 21 51
M  V30 55 1 25 52
M  V30 56 1 28 53
M  V30 57 1 29 54
M  V30 58 1 32 55
M  V30 59 1 33 56
M  V30 END BOND
M  V30 END CTAB
M  END
>  <Dataset>  (948) 
ChEMBL_Kinases

>  <Ligand_Instance>  (948) 
nan

>  <PDB_ID>  (948) 
nan

>  <Standardized_SMILES>  (948) 
N/C(=N\CCN1CCOCC1)c1c(O)nsc1Nc1ccc(Oc2cc(Cl)ccc2Cl)cc1

>  <Name>  (948) 
nan

>  <Pocket>  (948) 
nan

>  <ATP_Site>  (948) 
nan

>  <Peripheral>  (948) 
nan

>  <Num_H_Atoms_ProtBoundConf>  (948) 
nan

>  <Num_Resolved_Atoms>  (948) 
nan

>  <Num_Not_Resolved_Atoms>  (948) 
nan

$$$$
CHEMBL212668
     RDKit          3D

  0  0  0  0  0  0  0  0  0  0999 V3000
M  V30 BEGIN CTAB
M  V30 COUNTS 85 89 0 0 0
M  V30 BEGIN ATOM
M  V30 1 C -4.286463 -6.003375 -0.255077 0
M  V30 2 O -5.078170 -5.016260 0.385122 0
M  V30 3 C -4.597713 -3.769163 0.720203 0
M  V30 4 C -3.284963 -3.439746 0.428839 0
M  V30 5 C -2.879304 -2.152920 0.803844 0
M  V30 6 C -3.783598 -1.288776 1.432794 0
M  V30 7 N -3.205179 -0.024932 1.745610 0
M  V30 8 C -3.083171 1.203237 1.067707 0
M  V30 9 O -2.546541 2.284953 1.445725 0
M  V30 10 O -3.283773 2.023943 -0.027474 0
M  V30 11 C -2.829966 3.336026 -0.012318 0
M  V30 12 C -3.694581 4.342000 0.395307 0
M  V30 13 C -5.094636 4.026677 0.809526 0
M  V30 14 C -3.209185 5.632388 0.397838 0
M  V30 15 C -1.911269 5.930968 0.011728 0
M  V30 16 C -1.068911 4.915035 -0.389877 0
M  V30 17 C -1.513893 3.587554 -0.410491 0
M  V30 18 C -0.642273 2.464069 -0.835256 0
M  V30 19 C -2.629305 -0.057706 3.043169 0
M  V30 20 C -3.303842 0.284067 4.172837 0
M  V30 21 C -2.606445 0.187195 5.346046 0
M  V30 22 N -1.330665 -0.223237 5.363952 0
M  V30 23 C -0.651826 -0.564213 4.255259 0
M  V30 24 N 0.694278 -1.005153 4.342374 0
M  V30 25 C 1.569920 -1.364179 3.290240 0
M  V30 26 C 1.322851 -1.199238 1.949945 0
M  V30 27 C 2.160375 -1.559109 0.919319 0
M  V30 28 C 3.375195 -2.147686 1.280544 0
M  V30 29 O 4.255460 -2.528259 0.251262 0
M  V30 30 C 3.855184 -2.281287 -1.106540 0
M  V30 31 C 4.927985 -2.777504 -2.036205 0
M  V30 32 N 4.574852 -2.541141 -3.422185 0
M  V30 33 C 5.557244 -3.084756 -4.332158 0
M  V30 34 C 6.712417 -2.166907 -4.545409 0
M  V30 35 N 6.334114 -0.864733 -5.010513 0
M  V30 36 C 7.233422 0.178780 -4.630224 0
M  V30 37 C 4.941878 -0.576024 -4.896122 0
M  V30 38 C 4.282577 -1.162622 -3.687148 0
M  V30 39 C 3.669693 -2.334424 2.608105 0
M  V30 40 C 2.781110 -1.947846 3.576640 0
M  V30 41 N -1.354106 -0.461348 3.118839 0
M  V30 42 C -5.081433 -1.674201 1.697271 0
M  V30 43 O -5.892805 -0.738823 2.323850 0
M  V30 44 C -7.228330 -1.118245 2.603070 0
M  V30 45 C -5.509671 -2.938931 1.338166 0
M  V30 46 H -3.782806 -5.478598 -1.115937 0
M  V30 47 H -3.497946 -6.428076 0.384448 0
M  V30 48 H -4.892649 -6.808518 -0.681069 0
M  V30 49 H -2.639436 -4.149408 -0.056840 0
M  V30 50 H -1.853669 -1.932968 0.561046 0
M  V30 51 H -5.771067 4.757425 0.310754 0
M  V30 52 H -5.383871 3.024428 0.486653 0
M  V30 53 H -5.237732 4.173667 1.909785 0
M  V30 54 H -3.835671 6.458661 0.705314 0
M  V30 55 H -1.501898 6.933601 0.003328 0
M  V30 56 H -0.032540 5.053273 -0.710503 0
M  V30 57 H -1.221749 1.734349 -1.421765 0
M  V30 58 H 0.087732 2.905883 -1.559684 0
M  V30 59 H -0.048265 2.023769 -0.021972 0
M  V30 60 H -4.329082 0.611257 4.126951 0
M  V30 61 H -3.092269 0.448396 6.300235 0
M  V30 62 H 1.091128 -1.071451 5.322718 0
M  V30 63 H 0.406002 -0.750948 1.628398 0
M  V30 64 H 1.895830 -1.396012 -0.127529 0
M  V30 65 H 3.650998 -1.209158 -1.147746 0
M  V30 66 H 2.931953 -2.890495 -1.284554 0
M  V30 67 H 5.928847 -2.408192 -1.775336 0
M  V30 68 H 4.974168 -3.881617 -1.921924 0
M  V30 69 H 5.877469 -4.079872 -4.032506 0
M  V30 70 H 5.035310 -3.180297 -5.321619 0
M  V30 71 H 7.319545 -2.127725 -3.628037 0
M  V30 72 H 7.351143 -2.611806 -5.347080 0
M  V30 73 H 8.194706 -0.030593 -5.185455 0
M  V30 74 H 6.828981 1.147943 -4.937154 0
M  V30 75 H 7.506698 0.218450 -3.572073 0
M  V30 76 H 4.834170 0.527928 -4.854080 0
M  V30 77 H 4.420721 -0.927282 -5.801483 0
M  V30 78 H 4.605590 -0.564549 -2.792262 0
M  V30 79 H 3.181901 -1.051230 -3.747475 0
M  V30 80 H 4.618326 -2.792962 2.860085 0
M  V30 81 H 3.088214 -2.129984 4.597237 0
M  V30 82 H -7.197665 -1.881900 3.415268 0
M  V30 83 H -7.867665 -0.245234 2.886425 0
M  V30 84 H -7.732696 -1.597123 1.732251 0
M  V30 85 H -6.520892 -3.230531 1.547796 0
M  V30 END ATOM
M  V30 BEGIN BOND
M  V30 1 1 1 2
M  V30 2 1 2 3
M  V30 3 2 3 4
M  V30 4 1 4 5
M  V30 5 2 5 6
M  V30 6 1 6 7
M  V30 7 1 7 8
M  V30 8 2 8 9
M  V30 9 1 8 10
M  V30 10 1 10 11
M  V30 11 2 11 12
M  V30 12 1 12 13
M  V30 13 1 12 14
M  V30 14 2 14 15
M  V30 15 1 15 16
M  V30 16 2 16 17
M  V30 17 1 17 18
M  V30 18 1 7 19
M  V30 19 2 19 20
M  V30 20 1 20 21
M  V30 21 2 21 22
M  V30 22 1 22 23
M  V30 23 1 23 24
M  V30 24 1 24 25
M  V30 25 2 25 26
M  V30 26 1 26 27
M  V30 27 2 27 28
M  V30 28 1 28 29
M  V30 29 1 29 30
M  V30 30 1 30 31
M  V30 31 1 31 32
M  V30 32 1 32 33
M  V30 33 1 33 34
M  V30 34 1 34 35
M  V30 35 1 35 36
M  V30 36 1 35 37
M  V30 37 1 37 38
M  V30 38 1 28 39
M  V30 39 2 39 40
M  V30 40 2 23 41
M  V30 41 1 6 42
M  V30 42 1 42 43
M  V30 43 1 43 44
M  V30 44 2 42 45
M  V30 45 1 45 3
M  V30 46 1 17 11
M  V30 47 1 41 19
M  V30 48 1 40 25
M  V30 49 1 38 32
M  V30 50 1 1 46
M  V30 51 1 1 47
M  V30 52 1 1 48
M  V30 53 1 4 49
M  V30 54 1 5 50
M  V30 55 1 13 51
M  V30 56 1 13 52
M  V30 57 1 13 53
M  V30 58 1 14 54
M  V30 59 1 15 55
M  V30 60 1 16 56
M  V30 61 1 18 57
M  V30 62 1 18 58
M  V30 63 1 18 59
M  V30 64 1 20 60
M  V30 65 1 21 61
M  V30 66 1 24 62
M  V30 67 1 26 63
M  V30 68 1 27 64
M  V30 69 1 30 65
M  V30 70 1 30 66
M  V30 71 1 31 67
M  V30 72 1 31 68
M  V30 73 1 33 69
M  V30 74 1 33 70
M  V30 75 1 34 71
M  V30 76 1 34 72
M  V30 77 1 36 73
M  V30 78 1 36 74
M  V30 79 1 36 75
M  V30 80 1 37 76
M  V30 81 1 37 77
M  V30 82 1 38 78
M  V30 83 1 38 79
M  V30 84 1 39 80
M  V30 85 1 40 81
M  V30 86 1 44 82
M  V30 87 1 44 83
M  V30 88 1 44 84
M  V30 89 1 45 85
M  V30 END BOND
M  V30 END CTAB
M  END
>  <Dataset>  (949) 
ChEMBL_Kinases

>  <Ligand_Instance>  (949) 
nan

>  <PDB_ID>  (949) 
nan

>  <Standardized_SMILES>  (949) 
COc1ccc(N(C(=O)Oc2c(C)cccc2C)c2ccnc(Nc3ccc(OCCN4CCN(C)CC4)cc3)n2)c(OC)c1

>  <Name>  (949) 
nan

>  <Pocket>  (949) 
nan

>  <ATP_Site>  (949) 
nan

>  <Peripheral>  (949) 
nan

>  <Num_H_Atoms_ProtBoundConf>  (949) 
nan

>  <Num_Resolved_Atoms>  (949) 
nan

>  <Num_Not_Resolved_Atoms>  (949) 
nan

$$$$
CHEMBL212708
     RDKit          3D

  0  0  0  0  0  0  0  0  0  0999 V3000
M  V30 BEGIN CTAB
M  V30 COUNTS 42 45 0 0 0
M  V30 BEGIN ATOM
M  V30 1 C -0.281682 -3.472924 1.631978 0
M  V30 2 C 0.163760 -3.392919 0.169330 0
M  V30 3 C -0.941953 -2.801299 -0.640008 0
M  V30 4 C 0.324696 -4.844730 -0.307173 0
M  V30 5 C 1.466088 -2.730056 0.045917 0
M  V30 6 N 2.662231 -3.365563 0.068354 0
M  V30 7 N 3.654661 -2.502835 -0.063505 0
M  V30 8 C 3.134198 -1.276849 -0.175976 0
M  V30 9 C 3.752666 -0.053839 -0.331974 0
M  V30 10 C 3.000746 1.085101 -0.425543 0
M  V30 11 C 1.619116 0.896997 -0.351490 0
M  V30 12 C 0.805322 2.115948 -0.451418 0
M  V30 13 O 0.756552 2.950412 -1.461916 0
M  V30 14 C -0.084446 3.942094 -1.211235 0
M  V30 15 N -0.590228 3.723035 0.015139 0
M  V30 16 C -0.061842 2.607100 0.507903 0
M  V30 17 C -0.268838 1.927151 1.788017 0
M  V30 18 C -1.601429 1.531929 1.934050 0
M  V30 19 C -2.035418 0.868160 3.069169 0
M  V30 20 F -3.299566 0.459233 3.276025 0
M  V30 21 C -1.095475 0.609852 4.057796 0
M  V30 22 C 0.233138 1.005000 3.909937 0
M  V30 23 C 0.645679 1.657687 2.786652 0
M  V30 24 F 1.892895 2.095463 2.511639 0
M  V30 25 C 1.040114 -0.344866 -0.195124 0
M  V30 26 N 1.803066 -1.449760 -0.105614 0
M  V30 27 H -0.460046 -4.519049 1.952610 0
M  V30 28 H 0.483580 -3.032042 2.299403 0
M  V30 29 H -1.275691 -2.958440 1.776076 0
M  V30 30 H -1.625022 -2.180126 0.010779 0
M  V30 31 H -0.633476 -2.257749 -1.544008 0
M  V30 32 H -1.636719 -3.618757 -0.998851 0
M  V30 33 H 0.805114 -4.802651 -1.325172 0
M  V30 34 H 1.042766 -5.397763 0.327700 0
M  V30 35 H -0.639201 -5.336299 -0.462613 0
M  V30 36 H 4.838997 0.046021 -0.384862 0
M  V30 37 H 3.447273 2.052798 -0.547449 0
M  V30 38 H -0.358115 4.790795 -1.823599 0
M  V30 39 H -2.401184 1.692392 1.213387 0
M  V30 40 H -1.387147 0.092996 4.964393 0
M  V30 41 H 0.985451 0.814602 4.668186 0
M  V30 42 H -0.015738 -0.418796 -0.145195 0
M  V30 END ATOM
M  V30 BEGIN BOND
M  V30 1 1 1 2
M  V30 2 1 2 3
M  V30 3 1 2 4
M  V30 4 1 2 5
M  V30 5 2 5 6
M  V30 6 1 6 7
M  V30 7 2 7 8
M  V30 8 1 8 9
M  V30 9 2 9 10
M  V30 10 1 10 11
M  V30 11 1 11 12
M  V30 12 1 12 13
M  V30 13 1 13 14
M  V30 14 2 14 15
M  V30 15 1 15 16
M  V30 16 1 16 17
M  V30 17 2 17 18
M  V30 18 1 18 19
M  V30 19 1 19 20
M  V30 20 2 19 21
M  V30 21 1 21 22
M  V30 22 2 22 23
M  V30 23 1 23 24
M  V30 24 2 11 25
M  V30 25 1 25 26
M  V30 26 1 26 5
M  V30 27 1 26 8
M  V30 28 2 16 12
M  V30 29 1 23 17
M  V30 30 1 1 27
M  V30 31 1 1 28
M  V30 32 1 1 29
M  V30 33 1 3 30
M  V30 34 1 3 31
M  V30 35 1 3 32
M  V30 36 1 4 33
M  V30 37 1 4 34
M  V30 38 1 4 35
M  V30 39 1 9 36
M  V30 40 1 10 37
M  V30 41 1 14 38
M  V30 42 1 18 39
M  V30 43 1 21 40
M  V30 44 1 22 41
M  V30 45 1 25 42
M  V30 END BOND
M  V30 END CTAB
M  END
>  <Dataset>  (950) 
ChEMBL_Kinases

>  <Ligand_Instance>  (950) 
nan

>  <PDB_ID>  (950) 
nan

>  <Standardized_SMILES>  (950) 
CC(C)(C)c1nnc2ccc(-c3ocnc3-c3cc(F)ccc3F)cn12

>  <Name>  (950) 
nan

>  <Pocket>  (950) 
nan

>  <ATP_Site>  (950) 
nan

>  <Peripheral>  (950) 
nan

>  <Num_H_Atoms_ProtBoundConf>  (950) 
nan

>  <Num_Resolved_Atoms>  (950) 
nan

>  <Num_Not_Resolved_Atoms>  (950) 
nan

$$$$
CHEMBL212721
     RDKit          3D

  0  0  0  0  0  0  0  0  0  0999 V3000
M  V30 BEGIN CTAB
M  V30 COUNTS 76 79 0 0 0
M  V30 BEGIN ATOM
M  V30 1 C 1.112208 5.372274 -3.573532 0
M  V30 2 O 0.276248 4.650320 -2.718394 0
M  V30 3 C 0.307403 3.264518 -2.766180 0
M  V30 4 C 1.073637 2.466491 -3.565027 0
M  V30 5 C 0.974348 1.089072 -3.479103 0
M  V30 6 C 0.090447 0.531120 -2.575137 0
M  V30 7 N 0.069294 -0.886318 -2.569115 0
M  V30 8 C -0.838870 -1.525530 -3.458820 0
M  V30 9 O -1.426001 -2.498155 -4.024055 0
M  V30 10 O -1.698621 -0.864451 -4.324044 0
M  V30 11 C -2.565721 -1.550163 -5.175429 0
M  V30 12 C -3.821194 -1.931563 -4.694750 0
M  V30 13 C -4.259540 -1.631963 -3.306645 0
M  V30 14 C -4.666843 -2.608765 -5.550378 0
M  V30 15 C -4.285544 -2.908323 -6.861853 0
M  V30 16 C -3.050217 -2.538084 -7.348978 0
M  V30 17 C -2.225881 -1.863207 -6.473592 0
M  V30 18 C -0.881961 -1.444217 -6.963105 0
M  V30 19 C 0.861567 -1.713005 -1.763978 0
M  V30 20 C 0.716677 -3.080164 -1.866508 0
M  V30 21 C 1.507634 -3.914299 -1.065554 0
M  V30 22 N 2.403881 -3.360590 -0.201543 0
M  V30 23 C 2.526168 -2.006454 -0.121005 0
M  V30 24 N 3.504187 -1.606435 0.823712 0
M  V30 25 C 3.212002 -1.363892 2.194929 0
M  V30 26 C 1.899033 -1.517543 2.567805 0
M  V30 27 C 1.615213 -1.287258 3.889060 0
M  V30 28 C 2.491967 -0.920532 4.881036 0
M  V30 29 O 2.538095 -0.636012 6.170872 0
M  V30 30 C 1.699246 -0.541661 7.237609 0
M  V30 31 C 0.606409 0.483781 7.202436 0
M  V30 32 N -0.337434 0.332929 6.146673 0
M  V30 33 C -1.127760 -0.873397 6.433514 0
M  V30 34 C -1.219630 1.479352 6.095175 0
M  V30 35 C 3.821734 -0.782129 4.422953 0
M  V30 36 C 4.200416 -0.999442 3.084554 0
M  V30 37 N 1.765127 -1.207415 -0.891377 0
M  V30 38 C -0.692196 1.321616 -1.759212 0
M  V30 39 O -1.572623 0.689153 -0.858977 0
M  V30 40 C -2.399610 1.447266 0.003274 0
M  V30 41 C -0.587527 2.714664 -1.850584 0
M  V30 42 H 2.141116 5.496729 -3.228533 0
M  V30 43 H 1.133862 4.895185 -4.583200 0
M  V30 44 H 0.655722 6.390725 -3.749871 0
M  V30 45 H 1.737660 2.981151 -4.242623 0
M  V30 46 H 1.592450 0.515115 -4.123415 0
M  V30 47 H -3.646519 -0.822946 -2.852098 0
M  V30 48 H -4.166163 -2.545587 -2.662142 0
M  V30 49 H -5.341962 -1.389693 -3.284552 0
M  V30 50 H -5.644569 -2.933615 -5.253412 0
M  V30 51 H -4.956360 -3.448208 -7.547835 0
M  V30 52 H -2.791407 -2.787968 -8.367475 0
M  V30 53 H -0.938185 -1.252010 -8.067217 0
M  V30 54 H -0.122274 -2.242911 -6.825630 0
M  V30 55 H -0.523122 -0.515806 -6.469984 0
M  V30 56 H 0.028373 -3.586959 -2.527438 0
M  V30 57 H 1.415504 -4.994197 -1.124611 0
M  V30 58 H 4.440114 -1.523316 0.360350 0
M  V30 59 H 1.064363 -1.795894 1.952317 0
M  V30 60 H 0.621437 -1.393936 4.273223 0
M  V30 61 H 2.266796 -0.332929 8.213820 0
M  V30 62 H 1.251864 -1.570610 7.506066 0
M  V30 63 H 1.123459 1.474942 7.093960 0
M  V30 64 H 0.101891 0.543619 8.212706 0
M  V30 65 H -2.008843 -0.941186 5.774881 0
M  V30 66 H -0.486411 -1.758286 6.370722 0
M  V30 67 H -1.481347 -0.770382 7.489977 0
M  V30 68 H -1.004243 2.189385 6.942160 0
M  V30 69 H -2.253316 1.140738 6.159770 0
M  V30 70 H -1.017585 2.100910 5.176338 0
M  V30 71 H 4.742559 -0.504091 4.961150 0
M  V30 72 H 5.179623 -0.918307 2.649938 0
M  V30 73 H -3.212724 1.985251 -0.511576 0
M  V30 74 H -1.744785 2.152150 0.566277 0
M  V30 75 H -2.879402 0.732325 0.705493 0
M  V30 76 H -1.237861 3.264178 -1.174177 0
M  V30 END ATOM
M  V30 BEGIN BOND
M  V30 1 1 1 2
M  V30 2 1 2 3
M  V30 3 2 3 4
M  V30 4 1 4 5
M  V30 5 2 5 6
M  V30 6 1 6 7
M  V30 7 1 7 8
M  V30 8 2 8 9
M  V30 9 1 8 10
M  V30 10 1 10 11
M  V30 11 2 11 12
M  V30 12 1 12 13
M  V30 13 1 12 14
M  V30 14 2 14 15
M  V30 15 1 15 16
M  V30 16 2 16 17
M  V30 17 1 17 18
M  V30 18 1 7 19
M  V30 19 2 19 20
M  V30 20 1 20 21
M  V30 21 2 21 22
M  V30 22 1 22 23
M  V30 23 1 23 24
M  V30 24 1 24 25
M  V30 25 2 25 26
M  V30 26 1 26 27
M  V30 27 2 27 28
M  V30 28 1 28 29
M  V30 29 1 29 30
M  V30 30 1 30 31
M  V30 31 1 31 32
M  V30 32 1 32 33
M  V30 33 1 32 34
M  V30 34 1 28 35
M  V30 35 2 35 36
M  V30 36 2 23 37
M  V30 37 1 6 38
M  V30 38 1 38 39
M  V30 39 1 39 40
M  V30 40 2 38 41
M  V30 41 1 41 3
M  V30 42 1 17 11
M  V30 43 1 37 19
M  V30 44 1 36 25
M  V30 45 1 1 42
M  V30 46 1 1 43
M  V30 47 1 1 44
M  V30 48 1 4 45
M  V30 49 1 5 46
M  V30 50 1 13 47
M  V30 51 1 13 48
M  V30 52 1 13 49
M  V30 53 1 14 50
M  V30 54 1 15 51
M  V30 55 1 16 52
M  V30 56 1 18 53
M  V30 57 1 18 54
M  V30 58 1 18 55
M  V30 59 1 20 56
M  V30 60 1 21 57
M  V30 61 1 24 58
M  V30 62 1 26 59
M  V30 63 1 27 60
M  V30 64 1 30 61
M  V30 65 1 30 62
M  V30 66 1 31 63
M  V30 67 1 31 64
M  V30 68 1 33 65
M  V30 69 1 33 66
M  V30 70 1 33 67
M  V30 71 1 34 68
M  V30 72 1 34 69
M  V30 73 1 34 70
M  V30 74 1 35 71
M  V30 75 1 36 72
M  V30 76 1 40 73
M  V30 77 1 40 74
M  V30 78 1 40 75
M  V30 79 1 41 76
M  V30 END BOND
M  V30 END CTAB
M  END
>  <Dataset>  (951) 
ChEMBL_Kinases

>  <Ligand_Instance>  (951) 
nan

>  <PDB_ID>  (951) 
nan

>  <Standardized_SMILES>  (951) 
COc1ccc(N(C(=O)Oc2c(C)cccc2C)c2ccnc(Nc3ccc(OCCN(C)C)cc3)n2)c(OC)c1

>  <Name>  (951) 
nan

>  <Pocket>  (951) 
nan

>  <ATP_Site>  (951) 
nan

>  <Peripheral>  (951) 
nan

>  <Num_H_Atoms_ProtBoundConf>  (951) 
nan

>  <Num_Resolved_Atoms>  (951) 
nan

>  <Num_Not_Resolved_Atoms>  (951) 
nan

$$$$
CHEMBL212753
     RDKit          3D

  0  0  0  0  0  0  0  0  0  0999 V3000
M  V30 BEGIN CTAB
M  V30 COUNTS 41 44 0 0 0
M  V30 BEGIN ATOM
M  V30 1 C 0.315119 -0.853690 5.217892 0
M  V30 2 S 1.424534 0.275441 4.344615 0
M  V30 3 C 1.232352 0.088404 2.587747 0
M  V30 4 N 1.930771 0.781112 1.655822 0
M  V30 5 C 1.756453 0.608377 0.334996 0
M  V30 6 C 2.589549 1.458925 -0.505185 0
M  V30 7 C 3.523405 1.116731 -1.432320 0
M  V30 8 C 4.224343 2.079336 -2.129478 0
M  V30 9 C 3.939344 3.415569 -1.849397 0
M  V30 10 C 3.001709 3.832373 -0.918358 0
M  V30 11 C 2.328883 2.812681 -0.247699 0
M  V30 12 Cl 1.141961 3.416349 0.918409 0
M  V30 13 C 0.833918 -0.304325 -0.151690 0
M  V30 14 C 0.146870 -0.983130 0.832057 0
M  V30 15 N 0.322343 -0.811819 2.146626 0
M  V30 16 N -0.826703 -1.908445 0.365890 0
M  V30 17 C -1.607435 -2.644407 1.327529 0
M  V30 18 C -1.435387 -3.875448 1.910309 0
M  V30 19 Cl 0.006318 -4.688642 1.356110 0
M  V30 20 C -2.374586 -4.305496 2.817357 0
M  V30 21 C -3.479132 -3.551501 3.164460 0
M  V30 22 C -3.652189 -2.306353 2.574094 0
M  V30 23 C -2.709103 -1.844168 1.645774 0
M  V30 24 Cl -3.115789 -0.262801 1.030958 0
M  V30 25 C -1.121115 -2.163477 -0.991039 0
M  V30 26 O -1.985655 -2.983624 -1.381575 0
M  V30 27 N -0.378584 -1.432104 -1.929501 0
M  V30 28 C 0.674585 -0.465897 -1.604094 0
M  V30 29 H -0.503704 -0.340980 5.731837 0
M  V30 30 H -0.163068 -1.598621 4.514614 0
M  V30 31 H 0.910739 -1.496608 5.908680 0
M  V30 32 H 3.668731 0.076830 -1.564060 0
M  V30 33 H 4.960610 1.785746 -2.855105 0
M  V30 34 H 4.486888 4.176941 -2.394310 0
M  V30 35 H 2.846147 4.876199 -0.763344 0
M  V30 36 H -2.159262 -5.291962 3.225907 0
M  V30 37 H -4.173410 -3.937011 3.876354 0
M  V30 38 H -4.536473 -1.772223 2.894468 0
M  V30 39 H -0.541830 -1.537797 -2.963296 0
M  V30 40 H 1.604753 -0.987047 -1.988569 0
M  V30 41 H 0.445937 0.450510 -2.158404 0
M  V30 END ATOM
M  V30 BEGIN BOND
M  V30 1 1 1 2
M  V30 2 1 2 3
M  V30 3 2 3 4
M  V30 4 1 4 5
M  V30 5 1 5 6
M  V30 6 2 6 7
M  V30 7 1 7 8
M  V30 8 2 8 9
M  V30 9 1 9 10
M  V30 10 2 10 11
M  V30 11 1 11 12
M  V30 12 2 5 13
M  V30 13 1 13 14
M  V30 14 2 14 15
M  V30 15 1 14 16
M  V30 16 1 16 17
M  V30 17 2 17 18
M  V30 18 1 18 19
M  V30 19 1 18 20
M  V30 20 2 20 21
M  V30 21 1 21 22
M  V30 22 2 22 23
M  V30 23 1 23 24
M  V30 24 1 16 25
M  V30 25 2 25 26
M  V30 26 1 25 27
M  V30 27 1 27 28
M  V30 28 1 15 3
M  V30 29 1 23 17
M  V30 30 1 11 6
M  V30 31 1 28 13
M  V30 32 1 1 29
M  V30 33 1 1 30
M  V30 34 1 1 31
M  V30 35 1 7 32
M  V30 36 1 8 33
M  V30 37 1 9 34
M  V30 38 1 10 35
M  V30 39 1 20 36
M  V30 40 1 21 37
M  V30 41 1 22 38
M  V30 42 1 27 39
M  V30 43 1 28 40
M  V30 44 1 28 41
M  V30 END BOND
M  V30 END CTAB
M  END
>  <Dataset>  (952) 
ChEMBL_Kinases

>  <Ligand_Instance>  (952) 
nan

>  <PDB_ID>  (952) 
nan

>  <Standardized_SMILES>  (952) 
CSc1nc(-c2ccccc2Cl)c2c(n1)N(c1c(Cl)cccc1Cl)C(=O)NC2

>  <Name>  (952) 
nan

>  <Pocket>  (952) 
nan

>  <ATP_Site>  (952) 
nan

>  <Peripheral>  (952) 
nan

>  <Num_H_Atoms_ProtBoundConf>  (952) 
nan

>  <Num_Resolved_Atoms>  (952) 
nan

>  <Num_Not_Resolved_Atoms>  (952) 
nan

$$$$
CHEMBL212795
     RDKit          3D

  0  0  0  0  0  0  0  0  0  0999 V3000
M  V30 BEGIN CTAB
M  V30 COUNTS 36 39 0 0 0
M  V30 BEGIN ATOM
M  V30 1 F 1.473890 -2.652527 3.483517 0
M  V30 2 C 0.974961 -3.849774 2.997129 0
M  V30 3 F -0.142323 -4.139221 3.784985 0
M  V30 4 F 1.844954 -4.900348 3.172262 0
M  V30 5 C 0.469497 -3.720332 1.594111 0
M  V30 6 C 1.471814 -3.295020 0.608552 0
M  V30 7 N 2.269661 -4.067508 -0.114560 0
M  V30 8 N 3.034119 -3.304506 -0.890948 0
M  V30 9 C 2.707409 -2.016787 -0.648774 0
M  V30 10 C 3.182189 -0.808813 -1.171920 0
M  V30 11 C 2.636011 0.373344 -0.713256 0
M  V30 12 C 1.640747 0.373577 0.242485 0
M  V30 13 C 1.130803 1.684152 0.657623 0
M  V30 14 O 1.871873 2.627406 1.205179 0
M  V30 15 C 1.098632 3.682646 1.457702 0
M  V30 16 N -0.177701 3.429944 1.068894 0
M  V30 17 C -0.153862 2.178313 0.568685 0
M  V30 18 C -1.269334 1.419953 0.013421 0
M  V30 19 C -1.446484 0.928561 -1.261707 0
M  V30 20 C -2.593184 0.230529 -1.571588 0
M  V30 21 C -3.556058 0.027660 -0.605754 0
M  V30 22 C -3.411719 0.505269 0.680133 0
M  V30 23 C -2.250170 1.208946 0.983384 0
M  V30 24 C 1.184456 -0.834487 0.747855 0
M  V30 25 N 1.722831 -1.990374 0.295132 0
M  V30 26 H 0.135474 -4.756683 1.294693 0
M  V30 27 H -0.411528 -3.050881 1.590493 0
M  V30 28 H 3.961013 -0.900377 -1.914662 0
M  V30 29 H 3.043651 1.287717 -1.155626 0
M  V30 30 H 1.442706 4.613158 1.910843 0
M  V30 31 H -0.605250 1.165631 -1.914117 0
M  V30 32 H -2.621927 -0.105564 -2.598427 0
M  V30 33 H -4.421241 -0.529839 -0.938316 0
M  V30 34 H -4.200186 0.323352 1.420208 0
M  V30 35 H -2.225229 1.546192 2.020636 0
M  V30 36 H 0.403171 -0.810179 1.496718 0
M  V30 END ATOM
M  V30 BEGIN BOND
M  V30 1 1 1 2
M  V30 2 1 2 3
M  V30 3 1 2 4
M  V30 4 1 2 5
M  V30 5 1 5 6
M  V30 6 2 6 7
M  V30 7 1 7 8
M  V30 8 2 8 9
M  V30 9 1 9 10
M  V30 10 2 10 11
M  V30 11 1 11 12
M  V30 12 1 12 13
M  V30 13 1 13 14
M  V30 14 1 14 15
M  V30 15 2 15 16
M  V30 16 1 16 17
M  V30 17 1 17 18
M  V30 18 2 18 19
M  V30 19 1 19 20
M  V30 20 2 20 21
M  V30 21 1 21 22
M  V30 22 2 22 23
M  V30 23 2 12 24
M  V30 24 1 24 25
M  V30 25 1 25 6
M  V30 26 1 25 9
M  V30 27 2 17 13
M  V30 28 1 23 18
M  V30 29 1 5 26
M  V30 30 1 5 27
M  V30 31 1 10 28
M  V30 32 1 11 29
M  V30 33 1 15 30
M  V30 34 1 19 31
M  V30 35 1 20 32
M  V30 36 1 21 33
M  V30 37 1 22 34
M  V30 38 1 23 35
M  V30 39 1 24 36
M  V30 END BOND
M  V30 END CTAB
M  END
>  <Dataset>  (953) 
ChEMBL_Kinases

>  <Ligand_Instance>  (953) 
nan

>  <PDB_ID>  (953) 
nan

>  <Standardized_SMILES>  (953) 
FC(F)(F)Cc1nnc2ccc(-c3ocnc3-c3ccccc3)cn12

>  <Name>  (953) 
nan

>  <Pocket>  (953) 
nan

>  <ATP_Site>  (953) 
nan

>  <Peripheral>  (953) 
nan

>  <Num_H_Atoms_ProtBoundConf>  (953) 
nan

>  <Num_Resolved_Atoms>  (953) 
nan

>  <Num_Not_Resolved_Atoms>  (953) 
nan

$$$$
CHEMBL212798
     RDKit          3D

  0  0  0  0  0  0  0  0  0  0999 V3000
M  V30 BEGIN CTAB
M  V30 COUNTS 37 41 0 0 0
M  V30 BEGIN ATOM
M  V30 1 O 3.715846 0.626301 1.901261 0
M  V30 2 C 2.849878 -0.273519 1.907774 0
M  V30 3 N 2.898570 -1.520877 2.627410 0
M  V30 4 C 1.711583 -2.241002 2.349901 0
M  V30 5 O 1.613562 -3.343248 2.905320 0
M  V30 6 C 0.877050 -1.497209 1.461450 0
M  V30 7 C 1.569259 -0.338963 1.214299 0
M  V30 8 C 1.051351 0.627862 0.376509 0
M  V30 9 C 1.603603 1.922569 0.002482 0
M  V30 10 C 1.654872 2.193883 -1.370746 0
M  V30 11 C 2.127361 3.357046 -1.941898 0
M  V30 12 C 2.583187 4.321650 -1.069312 0
M  V30 13 F 3.067345 5.499148 -1.529513 0
M  V30 14 C 2.555358 4.106859 0.291238 0
M  V30 15 C 2.076548 2.935291 0.810254 0
M  V30 16 C -0.196732 0.396176 -0.214866 0
M  V30 17 C -0.882434 -0.760564 0.034850 0
M  V30 18 N -2.085304 -1.220855 -0.402515 0
M  V30 19 C -2.256371 -2.426142 0.171637 0
M  V30 20 C -3.351061 -3.249658 -0.000372 0
M  V30 21 C -3.415879 -4.468382 0.642764 0
M  V30 22 C -2.347699 -4.832521 1.462681 0
M  V30 23 O -2.412554 -6.059430 2.110377 0
M  V30 24 C -1.294690 -3.958766 1.582575 0
M  V30 25 C -1.182832 -2.748039 0.971028 0
M  V30 26 C -0.332751 -1.699737 0.876428 0
M  V30 27 H 3.746363 -1.739135 3.231967 0
M  V30 28 H 1.299330 1.445388 -2.086718 0
M  V30 29 H 2.137852 3.498639 -3.000735 0
M  V30 30 H 2.898953 4.826207 1.019589 0
M  V30 31 H 2.030576 2.735324 1.861297 0
M  V30 32 H -0.693229 1.103125 -0.896195 0
M  V30 33 H -2.738658 -0.707328 -1.066354 0
M  V30 34 H -4.188954 -2.989444 -0.629326 0
M  V30 35 H -4.277377 -5.105224 0.501113 0
M  V30 36 H -2.285113 -6.056487 3.113381 0
M  V30 37 H -0.529160 -4.315364 2.223938 0
M  V30 END ATOM
M  V30 BEGIN BOND
M  V30 1 2 1 2
M  V30 2 1 2 3
M  V30 3 1 3 4
M  V30 4 2 4 5
M  V30 5 1 4 6
M  V30 6 2 6 7
M  V30 7 1 7 8
M  V30 8 1 8 9
M  V30 9 2 9 10
M  V30 10 1 10 11
M  V30 11 2 11 12
M  V30 12 1 12 13
M  V30 13 1 12 14
M  V30 14 2 14 15
M  V30 15 2 8 16
M  V30 16 1 16 17
M  V30 17 1 17 18
M  V30 18 1 18 19
M  V30 19 2 19 20
M  V30 20 1 20 21
M  V30 21 2 21 22
M  V30 22 1 22 23
M  V30 23 1 22 24
M  V30 24 2 24 25
M  V30 25 1 25 26
M  V30 26 1 7 2
M  V30 27 1 15 9
M  V30 28 2 26 17
M  V30 29 1 26 6
M  V30 30 1 25 19
M  V30 31 1 3 27
M  V30 32 1 10 28
M  V30 33 1 11 29
M  V30 34 1 14 30
M  V30 35 1 15 31
M  V30 36 1 16 32
M  V30 37 1 18 33
M  V30 38 1 20 34
M  V30 39 1 21 35
M  V30 40 1 23 36
M  V30 41 1 24 37
M  V30 END BOND
M  V30 END CTAB
M  END
>  <Dataset>  (954) 
ChEMBL_Kinases

>  <Ligand_Instance>  (954) 
nan

>  <PDB_ID>  (954) 
nan

>  <Standardized_SMILES>  (954) 
O=C1NC(=O)c2c1c(-c1ccc(F)cc1)cc1[nH]c3ccc(O)cc3c21

>  <Name>  (954) 
nan

>  <Pocket>  (954) 
nan

>  <ATP_Site>  (954) 
nan

>  <Peripheral>  (954) 
nan

>  <Num_H_Atoms_ProtBoundConf>  (954) 
nan

>  <Num_Resolved_Atoms>  (954) 
nan

>  <Num_Not_Resolved_Atoms>  (954) 
nan

$$$$
CHEMBL212803
     RDKit          3D

  0  0  0  0  0  0  0  0  0  0999 V3000
M  V30 BEGIN CTAB
M  V30 COUNTS 61 66 0 0 0
M  V30 BEGIN ATOM
M  V30 1 C -1.904550 5.103082 -0.679018 0
M  V30 2 N -0.578948 4.766881 -0.275009 0
M  V30 3 C 0.037913 3.701988 -0.991721 0
M  V30 4 C 1.371660 3.553210 -0.293653 0
M  V30 5 C 1.021301 3.887077 1.139141 0
M  V30 6 C -0.447143 4.317698 1.092255 0
M  V30 7 C -1.363397 3.176615 1.338097 0
M  V30 8 C -1.350525 2.071394 0.349543 0
M  V30 9 N -0.600019 0.947581 0.929073 0
M  V30 10 C -0.465771 -0.297457 0.215468 0
M  V30 11 N 0.239394 -1.312423 0.745467 0
M  V30 12 C 0.407940 -2.511093 0.144348 0
M  V30 13 C 1.226906 -3.425945 0.927608 0
M  V30 14 C 0.972023 -4.682044 1.428698 0
M  V30 15 C 1.911201 -5.365500 2.163113 0
M  V30 16 C 3.149633 -4.865643 2.451376 0
M  V30 17 C 3.435671 -3.601770 1.960242 0
M  V30 18 C 2.495560 -2.901702 1.217205 0
M  V30 19 Cl 3.030598 -1.307714 0.673507 0
M  V30 20 C -0.177798 -2.710224 -1.089170 0
M  V30 21 C -0.892710 -1.650318 -1.603741 0
M  V30 22 N -1.046676 -0.467196 -0.986938 0
M  V30 23 N -1.497479 -1.802811 -2.881425 0
M  V30 24 C -2.263421 -0.768851 -3.506258 0
M  V30 25 C -1.876445 0.254983 -4.343142 0
M  V30 26 Cl -0.156691 0.264380 -4.667680 0
M  V30 27 C -2.805245 1.137764 -4.830911 0
M  V30 28 C -4.144129 1.030619 -4.502835 0
M  V30 29 C -4.550398 -0.002472 -3.655545 0
M  V30 30 C -3.604478 -0.900802 -3.159355 0
M  V30 31 Cl -4.299052 -2.122698 -2.119071 0
M  V30 32 C -1.388931 -3.001843 -3.641914 0
M  V30 33 O -1.885204 -3.213745 -4.758581 0
M  V30 34 N -0.624152 -4.023238 -3.008652 0
M  V30 35 C 0.030500 -4.020452 -1.702037 0
M  V30 36 C -0.707289 2.398278 -0.959619 0
M  V30 37 H -2.360131 4.394385 -1.384272 0
M  V30 38 H -1.825986 6.075032 -1.235115 0
M  V30 39 H -2.520720 5.302964 0.213792 0
M  V30 40 H 0.223187 3.963632 -2.074453 0
M  V30 41 H 1.779579 2.526448 -0.389657 0
M  V30 42 H 2.064961 4.319883 -0.698670 0
M  V30 43 H 1.189985 3.007631 1.772720 0
M  V30 44 H 1.662653 4.743196 1.472019 0
M  V30 45 H -0.678006 5.106540 1.820280 0
M  V30 46 H -1.162297 2.807978 2.387731 0
M  V30 47 H -2.399897 3.615377 1.418874 0
M  V30 48 H -2.381375 1.684883 0.200491 0
M  V30 49 H -0.150628 1.023833 1.865207 0
M  V30 50 H -0.009975 -5.040876 1.191809 0
M  V30 51 H 1.582723 -6.328481 2.489852 0
M  V30 52 H 3.830835 -5.452307 3.028439 0
M  V30 53 H 4.416748 -3.202227 2.186662 0
M  V30 54 H -2.413126 1.919033 -5.487302 0
M  V30 55 H -4.855408 1.726017 -4.891101 0
M  V30 56 H -5.609278 -0.032614 -3.436872 0
M  V30 57 H -0.484827 -4.926372 -3.518910 0
M  V30 58 H -0.404602 -4.858465 -1.115830 0
M  V30 59 H 1.096531 -4.243518 -1.922236 0
M  V30 60 H 0.010957 1.617210 -1.271687 0
M  V30 61 H -1.485217 2.445424 -1.751513 0
M  V30 END ATOM
M  V30 BEGIN BOND
M  V30 1 1 1 2
M  V30 2 1 2 3
M  V30 3 1 3 4
M  V30 4 1 4 5
M  V30 5 1 5 6
M  V30 6 1 6 7
M  V30 7 1 7 8
M  V30 8 1 8 9
M  V30 9 1 9 10
M  V30 10 2 10 11
M  V30 11 1 11 12
M  V30 12 1 12 13
M  V30 13 2 13 14
M  V30 14 1 14 15
M  V30 15 2 15 16
M  V30 16 1 16 17
M  V30 17 2 17 18
M  V30 18 1 18 19
M  V30 19 2 12 20
M  V30 20 1 20 21
M  V30 21 2 21 22
M  V30 22 1 21 23
M  V30 23 1 23 24
M  V30 24 2 24 25
M  V30 25 1 25 26
M  V30 26 1 25 27
M  V30 27 2 27 28
M  V30 28 1 28 29
M  V30 29 2 29 30
M  V30 30 1 30 31
M  V30 31 1 23 32
M  V30 32 2 32 33
M  V30 33 1 32 34
M  V30 34 1 34 35
M  V30 35 1 8 36
M  V30 36 1 6 2
M  V30 37 1 22 10
M  V30 38 1 30 24
M  V30 39 1 36 3
M  V30 40 1 18 13
M  V30 41 1 35 20
M  V30 42 1 1 37
M  V30 43 1 1 38
M  V30 44 1 1 39
M  V30 45 1 3 40
M  V30 46 1 4 41
M  V30 47 1 4 42
M  V30 48 1 5 43
M  V30 49 1 5 44
M  V30 50 1 6 45
M  V30 51 1 7 46
M  V30 52 1 7 47
M  V30 53 1 8 48
M  V30 54 1 9 49
M  V30 55 1 14 50
M  V30 56 1 15 51
M  V30 57 1 16 52
M  V30 58 1 17 53
M  V30 59 1 27 54
M  V30 60 1 28 55
M  V30 61 1 29 56
M  V30 62 1 34 57
M  V30 63 1 35 58
M  V30 64 1 35 59
M  V30 65 1 36 60
M  V30 66 1 36 61
M  V30 END BOND
M  V30 END CTAB
M  END
>  <Dataset>  (955) 
ChEMBL_Kinases

>  <Ligand_Instance>  (955) 
nan

>  <PDB_ID>  (955) 
nan

>  <Standardized_SMILES>  (955) 
CN1C2CCC1CC(Nc1nc(-c3ccccc3Cl)c3c(n1)N(c1c(Cl)cccc1Cl)C(=O)NC3)C2

>  <Name>  (955) 
nan

>  <Pocket>  (955) 
nan

>  <ATP_Site>  (955) 
nan

>  <Peripheral>  (955) 
nan

>  <Num_H_Atoms_ProtBoundConf>  (955) 
nan

>  <Num_Resolved_Atoms>  (955) 
nan

>  <Num_Not_Resolved_Atoms>  (955) 
nan

$$$$
CHEMBL213100
     RDKit          3D

  0  0  0  0  0  0  0  0  0  0999 V3000
M  V30 BEGIN CTAB
M  V30 COUNTS 78 82 0 0 0
M  V30 BEGIN ATOM
M  V30 1 C 2.038981 -3.679173 7.161974 0
M  V30 2 O 2.567822 -3.588366 5.868850 0
M  V30 3 C 2.526741 -2.471848 5.055935 0
M  V30 4 C 1.926943 -1.305141 5.503824 0
M  V30 5 C 1.883177 -0.174203 4.681979 0
M  V30 6 C 2.443438 -0.218178 3.410628 0
M  V30 7 N 2.415117 0.896068 2.491090 0
M  V30 8 C 3.307446 1.980311 2.248335 0
M  V30 9 O 4.281732 1.881210 3.069885 0
M  V30 10 O 2.784894 2.739550 1.210995 0
M  V30 11 C 3.391868 3.882586 0.711015 0
M  V30 12 C 4.508033 3.763049 -0.125685 0
M  V30 13 C 5.086978 2.449097 -0.505670 0
M  V30 14 C 5.116103 4.920405 -0.627995 0
M  V30 15 C 4.572344 6.136980 -0.265245 0
M  V30 16 C 3.476385 6.275098 0.554578 0
M  V30 17 C 2.863930 5.124030 1.060094 0
M  V30 18 C 1.673194 5.226981 1.942016 0
M  V30 19 C 1.145843 0.515816 1.912114 0
M  V30 20 C 0.019408 1.090598 2.506223 0
M  V30 21 C -1.240351 0.747811 1.999523 0
M  V30 22 N -1.265193 -0.096987 0.994929 0
M  V30 23 C -0.227277 -0.671791 0.393503 0
M  V30 24 N -0.266016 -1.597064 -0.679951 0
M  V30 25 C -1.424318 -2.131145 -1.283813 0
M  V30 26 C -2.735790 -1.912667 -0.933164 0
M  V30 27 C -3.872611 -2.429271 -1.510094 0
M  V30 28 C -3.678347 -3.276558 -2.577139 0
M  V30 29 N -4.784717 -3.881109 -3.247371 0
M  V30 30 C -6.157144 -3.851683 -2.790657 0
M  V30 31 C -6.938080 -2.952289 -3.723477 0
M  V30 32 N -6.509194 -3.154919 -5.093780 0
M  V30 33 C -5.725313 -2.051744 -5.552161 0
M  V30 34 C -5.904192 -4.453304 -5.280048 0
M  V30 35 C -4.590650 -4.590435 -4.498620 0
M  V30 36 C -2.399548 -3.559618 -3.005072 0
M  V30 37 C -1.305433 -3.001445 -2.374236 0
M  V30 38 N 0.960436 -0.322090 0.901713 0
M  V30 39 C 3.042001 -1.422384 3.000113 0
M  V30 40 O 3.571486 -1.366821 1.731413 0
M  V30 41 C 4.194039 -2.560540 1.221255 0
M  V30 42 C 3.097194 -2.566185 3.803193 0
M  V30 43 H 2.271893 -2.764926 7.752922 0
M  V30 44 H 2.465907 -4.562400 7.698161 0
M  V30 45 H 0.927178 -3.757621 7.185815 0
M  V30 46 H 1.473873 -1.217079 6.484774 0
M  V30 47 H 1.424777 0.746783 5.009397 0
M  V30 48 H 4.358018 1.644999 -0.626179 0
M  V30 49 H 5.548844 2.588859 -1.525555 0
M  V30 50 H 5.934842 2.141140 0.141818 0
M  V30 51 H 5.980563 4.848145 -1.276955 0
M  V30 52 H 5.016072 7.059939 -0.633414 0
M  V30 53 H 3.055019 7.246313 0.830896 0
M  V30 54 H 0.906149 5.785169 1.343027 0
M  V30 55 H 1.260451 4.188425 2.067721 0
M  V30 56 H 1.871894 5.731810 2.893371 0
M  V30 57 H 0.043232 1.793251 3.345037 0
M  V30 58 H -2.145872 1.178898 2.440442 0
M  V30 59 H 0.656467 -1.920631 -1.070505 0
M  V30 60 H -2.924074 -1.253380 -0.097287 0
M  V30 61 H -4.853761 -2.173070 -1.136194 0
M  V30 62 H -6.236567 -3.507033 -1.737339 0
M  V30 63 H -6.519775 -4.907081 -2.871347 0
M  V30 64 H -6.771312 -1.900087 -3.412184 0
M  V30 65 H -8.032953 -3.150143 -3.681460 0
M  V30 66 H -6.397082 -1.339375 -6.106427 0
M  V30 67 H -5.292175 -1.470341 -4.691003 0
M  V30 68 H -4.965955 -2.379726 -6.259450 0
M  V30 69 H -6.613685 -5.205407 -4.863686 0
M  V30 70 H -5.731511 -4.608890 -6.367179 0
M  V30 71 H -3.751114 -4.182791 -5.098087 0
M  V30 72 H -4.471264 -5.663809 -4.254304 0
M  V30 73 H -2.168043 -4.220436 -3.834741 0
M  V30 74 H -0.300909 -3.241235 -2.736197 0
M  V30 75 H 4.940338 -2.943511 1.936425 0
M  V30 76 H 4.698348 -2.306987 0.242657 0
M  V30 77 H 3.427083 -3.311146 0.954820 0
M  V30 78 H 3.578601 -3.459727 3.413126 0
M  V30 END ATOM
M  V30 BEGIN BOND
M  V30 1 1 1 2
M  V30 2 1 2 3
M  V30 3 2 3 4
M  V30 4 1 4 5
M  V30 5 2 5 6
M  V30 6 1 6 7
M  V30 7 1 7 8
M  V30 8 2 8 9
M  V30 9 1 8 10
M  V30 10 1 10 11
M  V30 11 2 11 12
M  V30 12 1 12 13
M  V30 13 1 12 14
M  V30 14 2 14 15
M  V30 15 1 15 16
M  V30 16 2 16 17
M  V30 17 1 17 18
M  V30 18 1 7 19
M  V30 19 2 19 20
M  V30 20 1 20 21
M  V30 21 2 21 22
M  V30 22 1 22 23
M  V30 23 1 23 24
M  V30 24 1 24 25
M  V30 25 2 25 26
M  V30 26 1 26 27
M  V30 27 2 27 28
M  V30 28 1 28 29
M  V30 29 1 29 30
M  V30 30 1 30 31
M  V30 31 1 31 32
M  V30 32 1 32 33
M  V30 33 1 32 34
M  V30 34 1 34 35
M  V30 35 1 28 36
M  V30 36 2 36 37
M  V30 37 2 23 38
M  V30 38 1 6 39
M  V30 39 1 39 40
M  V30 40 1 40 41
M  V30 41 2 39 42
M  V30 42 1 42 3
M  V30 43 1 17 11
M  V30 44 1 38 19
M  V30 45 1 37 25
M  V30 46 1 35 29
M  V30 47 1 1 43
M  V30 48 1 1 44
M  V30 49 1 1 45
M  V30 50 1 4 46
M  V30 51 1 5 47
M  V30 52 1 13 48
M  V30 53 1 13 49
M  V30 54 1 13 50
M  V30 55 1 14 51
M  V30 56 1 15 52
M  V30 57 1 16 53
M  V30 58 1 18 54
M  V30 59 1 18 55
M  V30 60 1 18 56
M  V30 61 1 20 57
M  V30 62 1 21 58
M  V30 63 1 24 59
M  V30 64 1 26 60
M  V30 65 1 27 61
M  V30 66 1 30 62
M  V30 67 1 30 63
M  V30 68 1 31 64
M  V30 69 1 31 65
M  V30 70 1 33 66
M  V30 71 1 33 67
M  V30 72 1 33 68
M  V30 73 1 34 69
M  V30 74 1 34 70
M  V30 75 1 35 71
M  V30 76 1 35 72
M  V30 77 1 36 73
M  V30 78 1 37 74
M  V30 79 1 41 75
M  V30 80 1 41 76
M  V30 81 1 41 77
M  V30 82 1 42 78
M  V30 END BOND
M  V30 END CTAB
M  END
>  <Dataset>  (956) 
ChEMBL_Kinases

>  <Ligand_Instance>  (956) 
nan

>  <PDB_ID>  (956) 
nan

>  <Standardized_SMILES>  (956) 
COc1ccc(N(C(=O)Oc2c(C)cccc2C)c2ccnc(Nc3ccc(N4CCN(C)CC4)cc3)n2)c(OC)c1

>  <Name>  (956) 
nan

>  <Pocket>  (956) 
nan

>  <ATP_Site>  (956) 
nan

>  <Peripheral>  (956) 
nan

>  <Num_H_Atoms_ProtBoundConf>  (956) 
nan

>  <Num_Resolved_Atoms>  (956) 
nan

>  <Num_Not_Resolved_Atoms>  (956) 
nan

$$$$
CHEMBL212849
     RDKit          3D

  0  0  0  0  0  0  0  0  0  0999 V3000
M  V30 BEGIN CTAB
M  V30 COUNTS 41 44 0 0 0
M  V30 BEGIN ATOM
M  V30 1 C -0.596130 -4.804231 1.633602 0
M  V30 2 C -0.828688 -3.464015 0.934008 0
M  V30 3 C -2.059903 -3.512074 0.049831 0
M  V30 4 N 0.300860 -3.139255 0.044770 0
M  V30 5 C 1.588551 -2.928963 0.589868 0
M  V30 6 N 2.483324 -3.781669 1.116610 0
M  V30 7 N 3.529965 -3.048175 1.453531 0
M  V30 8 C 3.321314 -1.745218 1.152415 0
M  V30 9 C 4.099112 -0.621629 1.306387 0
M  V30 10 C 3.657248 0.612278 0.912212 0
M  V30 11 C 2.384482 0.710032 0.344843 0
M  V30 12 C 1.859407 2.008571 -0.082714 0
M  V30 13 O 2.576561 2.760212 -0.873974 0
M  V30 14 C 1.954417 3.890261 -1.150655 0
M  V30 15 N 0.750628 3.892794 -0.506547 0
M  V30 16 C 0.696188 2.720999 0.155649 0
M  V30 17 C -0.362168 2.175724 0.990534 0
M  V30 18 C -0.317629 1.735896 2.296742 0
M  V30 19 C -1.483843 1.272257 2.853847 0
M  V30 20 C -2.666259 1.247364 2.130675 0
M  V30 21 F -3.735502 0.766101 2.799337 0
M  V30 22 C -2.755065 1.683963 0.810945 0
M  V30 23 C -1.563936 2.145481 0.273807 0
M  V30 24 C 1.671913 -0.448414 0.224434 0
M  V30 25 N 2.089926 -1.683591 0.607428 0
M  V30 26 H -1.541941 -5.308678 1.866580 0
M  V30 27 H -0.020887 -5.447308 0.910846 0
M  V30 28 H 0.062835 -4.650458 2.524939 0
M  V30 29 H -0.924742 -2.701642 1.748521 0
M  V30 30 H -2.229528 -2.465969 -0.315254 0
M  V30 31 H -1.793751 -4.172059 -0.816480 0
M  V30 32 H -2.910782 -3.908007 0.618609 0
M  V30 33 H 0.239406 -3.047073 -0.973259 0
M  V30 34 H 5.091936 -0.613082 1.733681 0
M  V30 35 H 4.255618 1.529514 1.012224 0
M  V30 36 H 2.165922 4.767751 -1.735370 0
M  V30 37 H 0.672607 1.817976 2.712832 0
M  V30 38 H -1.373270 0.938385 3.884589 0
M  V30 39 H -3.700995 1.640279 0.298172 0
M  V30 40 H -1.719189 2.470844 -0.765206 0
M  V30 41 H 0.684825 -0.391224 -0.217928 0
M  V30 END ATOM
M  V30 BEGIN BOND
M  V30 1 1 1 2
M  V30 2 1 2 3
M  V30 3 1 2 4
M  V30 4 1 4 5
M  V30 5 2 5 6
M  V30 6 1 6 7
M  V30 7 2 7 8
M  V30 8 1 8 9
M  V30 9 2 9 10
M  V30 10 1 10 11
M  V30 11 1 11 12
M  V30 12 1 12 13
M  V30 13 1 13 14
M  V30 14 2 14 15
M  V30 15 1 15 16
M  V30 16 1 16 17
M  V30 17 2 17 18
M  V30 18 1 18 19
M  V30 19 2 19 20
M  V30 20 1 20 21
M  V30 21 1 20 22
M  V30 22 2 22 23
M  V30 23 2 11 24
M  V30 24 1 24 25
M  V30 25 1 25 5
M  V30 26 1 25 8
M  V30 27 2 16 12
M  V30 28 1 23 17
M  V30 29 1 1 26
M  V30 30 1 1 27
M  V30 31 1 1 28
M  V30 32 1 2 29
M  V30 33 1 3 30
M  V30 34 1 3 31
M  V30 35 1 3 32
M  V30 36 1 4 33
M  V30 37 1 9 34
M  V30 38 1 10 35
M  V30 39 1 14 36
M  V30 40 1 18 37
M  V30 41 1 19 38
M  V30 42 1 22 39
M  V30 43 1 23 40
M  V30 44 1 24 41
M  V30 END BOND
M  V30 END CTAB
M  END
>  <Dataset>  (957) 
ChEMBL_Kinases

>  <Ligand_Instance>  (957) 
nan

>  <PDB_ID>  (957) 
nan

>  <Standardized_SMILES>  (957) 
CC(C)Nc1nnc2ccc(-c3ocnc3-c3ccc(F)cc3)cn12

>  <Name>  (957) 
nan

>  <Pocket>  (957) 
nan

>  <ATP_Site>  (957) 
nan

>  <Peripheral>  (957) 
nan

>  <Num_H_Atoms_ProtBoundConf>  (957) 
nan

>  <Num_Resolved_Atoms>  (957) 
nan

>  <Num_Not_Resolved_Atoms>  (957) 
nan

$$$$
CHEMBL212898
     RDKit          3D

  0  0  0  0  0  0  0  0  0  0999 V3000
M  V30 BEGIN CTAB
M  V30 COUNTS 37 41 0 0 0
M  V30 BEGIN ATOM
M  V30 1 F -1.412388 -4.597868 3.283942 0
M  V30 2 C -0.335097 -3.951295 2.737456 0
M  V30 3 C 0.155736 -4.405417 1.524780 0
M  V30 4 C 1.242633 -3.751138 0.976258 0
M  V30 5 C 1.793010 -2.677532 1.654035 0
M  V30 6 C 2.932498 -2.005566 1.066046 0
M  V30 7 N 4.215177 -2.281472 0.707864 0
M  V30 8 C 4.768421 -1.161562 0.191189 0
M  V30 9 O 3.864713 -0.216528 0.224039 0
M  V30 10 C 2.728444 -0.679394 0.748008 0
M  V30 11 C 1.705622 0.366282 0.791598 0
M  V30 12 C 1.922728 1.517452 1.561942 0
M  V30 13 C 0.942420 2.517538 1.597379 0
M  V30 14 C -0.200007 2.305564 0.857794 0
M  V30 15 N -1.277108 3.125987 0.737396 0
M  V30 16 N -2.137039 2.501838 -0.083608 0
M  V30 17 C -1.586734 1.326002 -0.450720 0
M  V30 18 C -2.208925 0.330819 -1.353704 0
M  V30 19 C -3.696961 0.258748 -1.496020 0
M  V30 20 C -2.952266 0.932295 -2.589641 0
M  V30 21 N -0.378712 1.193170 0.130380 0
M  V30 22 C 0.548817 0.202048 0.071477 0
M  V30 23 C 1.285940 -2.232002 2.876344 0
M  V30 24 F 1.879574 -1.166077 3.489901 0
M  V30 25 C 0.198347 -2.890431 3.420440 0
M  V30 26 H -0.291082 -5.246736 1.013545 0
M  V30 27 H 1.651110 -4.078380 0.032084 0
M  V30 28 H 5.790784 -1.151732 -0.161476 0
M  V30 29 H 2.853951 1.643042 2.138189 0
M  V30 30 H 1.172437 3.380981 2.211735 0
M  V30 31 H -1.670641 -0.612018 -1.548931 0
M  V30 32 H -4.314550 0.963614 -0.880257 0
M  V30 33 H -4.189492 -0.695359 -1.716138 0
M  V30 34 H -2.916408 2.055489 -2.653051 0
M  V30 35 H -2.707662 0.440262 -3.539708 0
M  V30 36 H 0.411766 -0.681156 -0.503304 0
M  V30 37 H -0.191407 -2.535894 4.375708 0
M  V30 END ATOM
M  V30 BEGIN BOND
M  V30 1 1 1 2
M  V30 2 2 2 3
M  V30 3 1 3 4
M  V30 4 2 4 5
M  V30 5 1 5 6
M  V30 6 1 6 7
M  V30 7 2 7 8
M  V30 8 1 8 9
M  V30 9 1 9 10
M  V30 10 1 10 11
M  V30 11 1 11 12
M  V30 12 2 12 13
M  V30 13 1 13 14
M  V30 14 2 14 15
M  V30 15 1 15 16
M  V30 16 2 16 17
M  V30 17 1 17 18
M  V30 18 1 18 19
M  V30 19 1 19 20
M  V30 20 1 17 21
M  V30 21 1 21 22
M  V30 22 1 5 23
M  V30 23 1 23 24
M  V30 24 2 23 25
M  V30 25 1 25 2
M  V30 26 2 10 6
M  V30 27 2 22 11
M  V30 28 1 21 14
M  V30 29 1 20 18
M  V30 30 1 3 26
M  V30 31 1 4 27
M  V30 32 1 8 28
M  V30 33 1 12 29
M  V30 34 1 13 30
M  V30 35 1 18 31
M  V30 36 1 19 32
M  V30 37 1 19 33
M  V30 38 1 20 34
M  V30 39 1 20 35
M  V30 40 1 22 36
M  V30 41 1 25 37
M  V30 END BOND
M  V30 END CTAB
M  END
>  <Dataset>  (958) 
ChEMBL_Kinases

>  <Ligand_Instance>  (958) 
nan

>  <PDB_ID>  (958) 
nan

>  <Standardized_SMILES>  (958) 
Fc1ccc(-c2ncoc2-c2ccc3nnc(C4CC4)n3c2)c(F)c1

>  <Name>  (958) 
nan

>  <Pocket>  (958) 
nan

>  <ATP_Site>  (958) 
nan

>  <Peripheral>  (958) 
nan

>  <Num_H_Atoms_ProtBoundConf>  (958) 
nan

>  <Num_Resolved_Atoms>  (958) 
nan

>  <Num_Not_Resolved_Atoms>  (958) 
nan

$$$$
CHEMBL212937
     RDKit          3D

  0  0  0  0  0  0  0  0  0  0999 V3000
M  V30 BEGIN CTAB
M  V30 COUNTS 43 46 0 0 0
M  V30 BEGIN ATOM
M  V30 1 C -1.936583 2.966994 -0.746617 0
M  V30 2 S -1.481230 1.425037 -1.493682 0
M  V30 3 O -2.679519 0.585536 -1.818188 0
M  V30 4 O -0.745535 1.744616 -2.773416 0
M  V30 5 C -0.369364 0.511962 -0.497039 0
M  V30 6 N 0.951436 0.644970 -0.604386 0
M  V30 7 C 1.845735 -0.041595 0.146833 0
M  V30 8 C 3.232704 0.283219 -0.149585 0
M  V30 9 C 4.258772 -0.523741 -0.577036 0
M  V30 10 C 5.528637 -0.076379 -0.834207 0
M  V30 11 C 5.751623 1.274664 -0.640867 0
M  V30 12 C 4.783582 2.154624 -0.215955 0
M  V30 13 C 3.521734 1.639078 0.026590 0
M  V30 14 Cl 2.344686 2.844334 0.570052 0
M  V30 15 C 1.386928 -0.937611 1.086447 0
M  V30 16 C 0.022714 -1.079146 1.201709 0
M  V30 17 N -0.824035 -0.376084 0.433365 0
M  V30 18 N -0.540584 -1.968374 2.155624 0
M  V30 19 C -1.957803 -2.179779 2.329236 0
M  V30 20 C -2.869600 -1.546983 3.141139 0
M  V30 21 Cl -2.176454 -0.289994 4.106195 0
M  V30 22 C -4.179450 -1.963093 3.101828 0
M  V30 23 C -4.598787 -2.988858 2.277459 0
M  V30 24 C -3.680211 -3.629660 1.456417 0
M  V30 25 C -2.356377 -3.220070 1.485949 0
M  V30 26 Cl -1.331696 -4.134038 0.389890 0
M  V30 27 C 0.269239 -2.746409 3.031750 0
M  V30 28 O -0.111334 -3.559949 3.908330 0
M  V30 29 N 1.662927 -2.536346 2.847208 0
M  V30 30 C 2.363996 -1.670765 1.900653 0
M  V30 31 H -3.023376 3.134191 -0.857468 0
M  V30 32 H -1.431654 3.828891 -1.223029 0
M  V30 33 H -1.612140 2.926455 0.309948 0
M  V30 34 H 4.000558 -1.547068 -0.710971 0
M  V30 35 H 6.260859 -0.798155 -1.166876 0
M  V30 36 H 6.784140 1.590907 -0.859084 0
M  V30 37 H 5.054878 3.192416 -0.094510 0
M  V30 38 H -4.853489 -1.412333 3.777851 0
M  V30 39 H -5.633624 -3.285660 2.276409 0
M  V30 40 H -4.069268 -4.433731 0.826004 0
M  V30 41 H 2.363785 -3.043231 3.442494 0
M  V30 42 H 3.141279 -2.204866 1.360577 0
M  V30 43 H 2.906865 -0.933360 2.561749 0
M  V30 END ATOM
M  V30 BEGIN BOND
M  V30 1 1 1 2
M  V30 2 2 2 3
M  V30 3 2 2 4
M  V30 4 1 2 5
M  V30 5 2 5 6
M  V30 6 1 6 7
M  V30 7 1 7 8
M  V30 8 2 8 9
M  V30 9 1 9 10
M  V30 10 2 10 11
M  V30 11 1 11 12
M  V30 12 2 12 13
M  V30 13 1 13 14
M  V30 14 2 7 15
M  V30 15 1 15 16
M  V30 16 2 16 17
M  V30 17 1 16 18
M  V30 18 1 18 19
M  V30 19 2 19 20
M  V30 20 1 20 21
M  V30 21 1 20 22
M  V30 22 2 22 23
M  V30 23 1 23 24
M  V30 24 2 24 25
M  V30 25 1 25 26
M  V30 26 1 18 27
M  V30 27 2 27 28
M  V30 28 1 27 29
M  V30 29 1 29 30
M  V30 30 1 17 5
M  V30 31 1 25 19
M  V30 32 1 13 8
M  V30 33 1 30 15
M  V30 34 1 1 31
M  V30 35 1 1 32
M  V30 36 1 1 33
M  V30 37 1 9 34
M  V30 38 1 10 35
M  V30 39 1 11 36
M  V30 40 1 12 37
M  V30 41 1 22 38
M  V30 42 1 23 39
M  V30 43 1 24 40
M  V30 44 1 29 41
M  V30 45 1 30 42
M  V30 46 1 30 43
M  V30 END BOND
M  V30 END CTAB
M  END
>  <Dataset>  (959) 
ChEMBL_Kinases

>  <Ligand_Instance>  (959) 
nan

>  <PDB_ID>  (959) 
nan

>  <Standardized_SMILES>  (959) 
CS(=O)(=O)c1nc(-c2ccccc2Cl)c2c(n1)N(c1c(Cl)cccc1Cl)C(=O)NC2

>  <Name>  (959) 
nan

>  <Pocket>  (959) 
nan

>  <ATP_Site>  (959) 
nan

>  <Peripheral>  (959) 
nan

>  <Num_H_Atoms_ProtBoundConf>  (959) 
nan

>  <Num_Resolved_Atoms>  (959) 
nan

>  <Num_Not_Resolved_Atoms>  (959) 
nan

$$$$
CHEMBL212953
     RDKit          3D

  0  0  0  0  0  0  0  0  0  0999 V3000
M  V30 BEGIN CTAB
M  V30 COUNTS 72 75 0 0 0
M  V30 BEGIN ATOM
M  V30 1 C 1.306544 -4.084334 3.249532 0
M  V30 2 C 1.164956 -2.784053 2.465800 0
M  V30 3 N 2.338251 -1.963699 2.590480 0
M  V30 4 C 2.470692 -1.446559 3.929502 0
M  V30 5 C 3.668882 -0.568475 4.134206 0
M  V30 6 C 2.372997 -0.885192 1.649960 0
M  V30 7 C 2.586246 -1.256106 0.246945 0
M  V30 8 O 2.570619 -0.196657 -0.476584 0
M  V30 9 N 2.795402 -2.473738 -0.447879 0
M  V30 10 C 2.951252 -2.303948 -1.845743 0
M  V30 11 C 4.191600 -2.160916 -2.421855 0
M  V30 12 C 4.230427 -1.991322 -3.784948 0
M  V30 13 C 3.142699 -1.951562 -4.628460 0
M  V30 14 C 3.197446 -1.769962 -6.097045 0
M  V30 15 F 2.291836 -2.654168 -6.647372 0
M  V30 16 F 2.810422 -0.489612 -6.460635 0
M  V30 17 F 4.464456 -2.075434 -6.534364 0
M  V30 18 C 1.912706 -2.102587 -3.980454 0
M  V30 19 C 1.776489 -2.280043 -2.598190 0
M  V30 20 N 0.459055 -2.407454 -2.086671 0
M  V30 21 C -0.533976 -3.379132 -1.827682 0
M  V30 22 O -0.303351 -4.560699 -2.094019 0
M  V30 23 C -1.798525 -2.945540 -1.254082 0
M  V30 24 C -2.726474 -3.955812 -1.141497 0
M  V30 25 C -3.973559 -3.639274 -0.597185 0
M  V30 26 C -4.250386 -2.349131 -0.190078 0
M  V30 27 C -5.562036 -1.987499 0.386253 0
M  V30 28 C -3.328231 -1.331480 -0.298224 0
M  V30 29 C -3.516863 0.064571 0.099412 0
M  V30 30 C -4.591256 0.869435 -0.196333 0
M  V30 31 C -4.637196 2.179752 0.252461 0
M  V30 32 C -3.566761 2.653863 1.008382 0
M  V30 33 N -3.642391 3.950151 1.436052 0
M  V30 34 C -2.617392 4.462100 2.182294 0
M  V30 35 N -2.658617 5.814177 2.628780 0
M  V30 36 C -1.857340 6.535258 1.660461 0
M  V30 37 N -1.549248 3.703776 2.493018 0
M  V30 38 C -1.459253 2.413902 2.075103 0
M  V30 39 C -2.483218 1.854710 1.311656 0
M  V30 40 C -2.444550 0.549114 0.860340 0
M  V30 41 C -2.091529 -1.670148 -0.844076 0
M  V30 42 H 0.644514 -4.858370 2.792314 0
M  V30 43 H 2.346550 -4.435882 3.104107 0
M  V30 44 H 1.014333 -3.990625 4.296088 0
M  V30 45 H 0.877861 -3.056513 1.440075 0
M  V30 46 H 0.256483 -2.222921 2.863719 0
M  V30 47 H 1.543409 -0.857276 4.183890 0
M  V30 48 H 2.518409 -2.250064 4.693473 0
M  V30 49 H 4.500531 -0.912177 3.515885 0
M  V30 50 H 4.000827 -0.636510 5.207908 0
M  V30 51 H 3.420345 0.505278 3.969618 0
M  V30 52 H 1.442825 -0.260731 1.786242 0
M  V30 53 H 3.195924 -0.147900 1.903842 0
M  V30 54 H 2.810839 -3.280845 0.178347 0
M  V30 55 H 5.076297 -2.184205 -1.804937 0
M  V30 56 H 5.208442 -1.881221 -4.220887 0
M  V30 57 H 1.036163 -2.074432 -4.630828 0
M  V30 58 H 0.368048 -1.386804 -1.903915 0
M  V30 59 H -2.558470 -4.981920 -1.445836 0
M  V30 60 H -4.745504 -4.392768 -0.483182 0
M  V30 61 H -5.984804 -2.831563 0.999923 0
M  V30 62 H -5.503401 -1.127093 1.078969 0
M  V30 63 H -6.344344 -1.772660 -0.390948 0
M  V30 64 H -5.371171 0.420359 -0.783743 0
M  V30 65 H -5.499783 2.776313 0.000318 0
M  V30 66 H -3.131433 6.259400 3.449399 0
M  V30 67 H -0.754709 6.380699 1.866927 0
M  V30 68 H -2.085323 6.342751 0.616547 0
M  V30 69 H -2.012355 7.623813 1.848115 0
M  V30 70 H -0.605012 1.829377 2.330243 0
M  V30 71 H -1.552985 0.007290 1.149717 0
M  V30 72 H -1.341060 -0.907203 -0.948018 0
M  V30 END ATOM
M  V30 BEGIN BOND
M  V30 1 1 1 2
M  V30 2 1 2 3
M  V30 3 1 3 4
M  V30 4 1 4 5
M  V30 5 1 3 6
M  V30 6 1 6 7
M  V30 7 2 7 8
M  V30 8 1 7 9
M  V30 9 1 9 10
M  V30 10 2 10 11
M  V30 11 1 11 12
M  V30 12 2 12 13
M  V30 13 1 13 14
M  V30 14 1 14 15
M  V30 15 1 14 16
M  V30 16 1 14 17
M  V30 17 1 13 18
M  V30 18 2 18 19
M  V30 19 1 19 20
M  V30 20 1 20 21
M  V30 21 2 21 22
M  V30 22 1 21 23
M  V30 23 2 23 24
M  V30 24 1 24 25
M  V30 25 2 25 26
M  V30 26 1 26 27
M  V30 27 1 26 28
M  V30 28 1 28 29
M  V30 29 2 29 30
M  V30 30 1 30 31
M  V30 31 2 31 32
M  V30 32 1 32 33
M  V30 33 2 33 34
M  V30 34 1 34 35
M  V30 35 1 35 36
M  V30 36 1 34 37
M  V30 37 2 37 38
M  V30 38 1 38 39
M  V30 39 2 39 40
M  V30 40 2 28 41
M  V30 41 1 19 10
M  V30 42 1 41 23
M  V30 43 1 40 29
M  V30 44 1 39 32
M  V30 45 1 1 42
M  V30 46 1 1 43
M  V30 47 1 1 44
M  V30 48 1 2 45
M  V30 49 1 2 46
M  V30 50 1 4 47
M  V30 51 1 4 48
M  V30 52 1 5 49
M  V30 53 1 5 50
M  V30 54 1 5 51
M  V30 55 1 6 52
M  V30 56 1 6 53
M  V30 57 1 9 54
M  V30 58 1 11 55
M  V30 59 1 12 56
M  V30 60 1 18 57
M  V30 61 1 20 58
M  V30 62 1 24 59
M  V30 63 1 25 60
M  V30 64 1 27 61
M  V30 65 1 27 62
M  V30 66 1 27 63
M  V30 67 1 30 64
M  V30 68 1 31 65
M  V30 69 1 35 66
M  V30 70 1 36 67
M  V30 71 1 36 68
M  V30 72 1 36 69
M  V30 73 1 38 70
M  V30 74 1 40 71
M  V30 75 1 41 72
M  V30 END BOND
M  V30 END CTAB
M  END
>  <Dataset>  (960) 
ChEMBL_Kinases

>  <Ligand_Instance>  (960) 
nan

>  <PDB_ID>  (960) 
nan

>  <Standardized_SMILES>  (960) 
CCN(CC)CC(=O)Nc1ccc(C(F)(F)F)cc1NC(=O)c1ccc(C)c(-c2ccc3nc(NC)ncc3c2)c1

>  <Name>  (960) 
nan

>  <Pocket>  (960) 
nan

>  <ATP_Site>  (960) 
nan

>  <Peripheral>  (960) 
nan

>  <Num_H_Atoms_ProtBoundConf>  (960) 
nan

>  <Num_Resolved_Atoms>  (960) 
nan

>  <Num_Not_Resolved_Atoms>  (960) 
nan

$$$$
CHEMBL212964
     RDKit          3D

  0  0  0  0  0  0  0  0  0  0999 V3000
M  V30 BEGIN CTAB
M  V30 COUNTS 51 54 0 0 0
M  V30 BEGIN ATOM
M  V30 1 C 3.760508 -7.271136 3.515105 0
M  V30 2 N 2.703779 -6.387762 3.981463 0
M  V30 3 C 2.286318 -5.375006 3.073521 0
M  V30 4 N 2.850053 -4.141437 3.031155 0
M  V30 5 C 2.461451 -3.184599 2.179194 0
M  V30 6 C 1.447585 -3.430603 1.293606 0
M  V30 7 C 0.994506 -2.495009 0.388057 0
M  V30 8 C -0.040021 -2.731489 -0.522632 0
M  V30 9 C -0.347738 -1.603210 -1.375388 0
M  V30 10 C -0.460124 -0.370920 -0.799415 0
M  V30 11 C -0.752123 0.768203 -1.519903 0
M  V30 12 C -0.893085 2.125472 -1.001020 0
M  V30 13 O -1.162366 3.139040 -1.701514 0
M  V30 14 N -0.722929 2.362921 0.381976 0
M  V30 15 C -0.804943 3.570917 1.131767 0
M  V30 16 C 0.356985 4.332963 1.302869 0
M  V30 17 C 0.320043 5.526917 2.033247 0
M  V30 18 C -0.906763 5.884363 2.554492 0
M  V30 19 C -2.071498 5.159754 2.406696 0
M  V30 20 C -3.350710 5.651429 3.022167 0
M  V30 21 F -3.383758 7.020565 3.059831 0
M  V30 22 F -3.452860 5.168680 4.330911 0
M  V30 23 F -4.392154 5.098098 2.334487 0
M  V30 24 C -2.021800 3.982771 1.683397 0
M  V30 25 C -0.938082 0.640627 -2.895676 0
M  V30 26 C -0.836258 -0.586122 -3.536274 0
M  V30 27 C -0.542500 -1.662751 -2.737111 0
M  V30 28 C -0.428611 -2.977825 -3.408253 0
M  V30 29 C -0.612115 -3.986934 -0.477781 0
M  V30 30 C -0.162918 -4.926029 0.425551 0
M  V30 31 C 0.857329 -4.678364 1.316592 0
M  V30 32 N 1.281656 -5.604014 2.188774 0
M  V30 33 H 4.119799 -7.933446 4.352773 0
M  V30 34 H 3.385094 -7.971407 2.712955 0
M  V30 35 H 4.621546 -6.665282 3.149878 0
M  V30 36 H 2.169561 -6.345467 4.882408 0
M  V30 37 H 2.923819 -2.202373 2.158815 0
M  V30 38 H 1.518446 -1.549280 0.446517 0
M  V30 39 H -0.323793 -0.226844 0.263572 0
M  V30 40 H -0.497727 1.628406 1.089177 0
M  V30 41 H 1.298085 3.999177 0.866990 0
M  V30 42 H 1.214983 6.106109 2.160351 0
M  V30 43 H -0.990752 6.811068 3.135178 0
M  V30 44 H -2.901663 3.395994 1.547935 0
M  V30 45 H -1.171429 1.497591 -3.528628 0
M  V30 46 H -0.979467 -0.694818 -4.606908 0
M  V30 47 H -1.423448 -3.495883 -3.511152 0
M  V30 48 H 0.029159 -2.865616 -4.435820 0
M  V30 49 H 0.268183 -3.625091 -2.839289 0
M  V30 50 H -1.405712 -4.119983 -1.198166 0
M  V30 51 H -0.643843 -5.889072 0.418181 0
M  V30 END ATOM
M  V30 BEGIN BOND
M  V30 1 1 1 2
M  V30 2 1 2 3
M  V30 3 2 3 4
M  V30 4 1 4 5
M  V30 5 2 5 6
M  V30 6 1 6 7
M  V30 7 2 7 8
M  V30 8 1 8 9
M  V30 9 2 9 10
M  V30 10 1 10 11
M  V30 11 1 11 12
M  V30 12 2 12 13
M  V30 13 1 12 14
M  V30 14 1 14 15
M  V30 15 2 15 16
M  V30 16 1 16 17
M  V30 17 2 17 18
M  V30 18 1 18 19
M  V30 19 1 19 20
M  V30 20 1 20 21
M  V30 21 1 20 22
M  V30 22 1 20 23
M  V30 23 2 19 24
M  V30 24 2 11 25
M  V30 25 1 25 26
M  V30 26 2 26 27
M  V30 27 1 27 28
M  V30 28 1 8 29
M  V30 29 2 29 30
M  V30 30 1 30 31
M  V30 31 2 31 32
M  V30 32 1 32 3
M  V30 33 1 31 6
M  V30 34 1 27 9
M  V30 35 1 24 15
M  V30 36 1 1 33
M  V30 37 1 1 34
M  V30 38 1 1 35
M  V30 39 1 2 36
M  V30 40 1 5 37
M  V30 41 1 7 38
M  V30 42 1 10 39
M  V30 43 1 14 40
M  V30 44 1 16 41
M  V30 45 1 17 42
M  V30 46 1 18 43
M  V30 47 1 24 44
M  V30 48 1 25 45
M  V30 49 1 26 46
M  V30 50 1 28 47
M  V30 51 1 28 48
M  V30 52 1 28 49
M  V30 53 1 29 50
M  V30 54 1 30 51
M  V30 END BOND
M  V30 END CTAB
M  END
>  <Dataset>  (961) 
ChEMBL_Kinases

>  <Ligand_Instance>  (961) 
nan

>  <PDB_ID>  (961) 
nan

>  <Standardized_SMILES>  (961) 
CNc1ncc2cc(-c3cc(C(=O)Nc4cccc(C(F)(F)F)c4)ccc3C)ccc2n1

>  <Name>  (961) 
nan

>  <Pocket>  (961) 
nan

>  <ATP_Site>  (961) 
nan

>  <Peripheral>  (961) 
nan

>  <Num_H_Atoms_ProtBoundConf>  (961) 
nan

>  <Num_Resolved_Atoms>  (961) 
nan

>  <Num_Not_Resolved_Atoms>  (961) 
nan

$$$$
CHEMBL212968
     RDKit          3D

  0  0  0  0  0  0  0  0  0  0999 V3000
M  V30 BEGIN CTAB
M  V30 COUNTS 42 45 0 0 0
M  V30 BEGIN ATOM
M  V30 1 C 2.652769 -4.434944 1.225025 0
M  V30 2 C 1.875905 -3.113714 1.356029 0
M  V30 3 C 0.497225 -3.414359 0.801211 0
M  V30 4 C 1.854163 -2.755954 2.798915 0
M  V30 5 C 2.546042 -2.154304 0.467274 0
M  V30 6 N 3.584596 -2.466555 -0.353415 0
M  V30 7 N 3.942106 -1.350234 -1.007504 0
M  V30 8 C 3.150882 -0.337336 -0.617361 0
M  V30 9 C 3.121575 0.997950 -0.994016 0
M  V30 10 C 2.149847 1.775048 -0.369188 0
M  V30 11 C 1.272278 1.234650 0.569645 0
M  V30 12 C 0.347523 2.242164 1.081549 0
M  V30 13 O 0.786994 3.333750 1.707393 0
M  V30 14 C -0.224485 4.090573 2.075572 0
M  V30 15 N -1.378237 3.513619 1.698860 0
M  V30 16 C -1.026157 2.358836 1.077681 0
M  V30 17 C -1.862662 1.327504 0.467425 0
M  V30 18 C -1.904805 0.920471 -0.852511 0
M  V30 19 C -2.778874 -0.085566 -1.223606 0
M  V30 20 F -2.735389 -0.403072 -2.537827 0
M  V30 21 C -3.609776 -0.690702 -0.301397 0
M  V30 22 F -4.430728 -1.665956 -0.759953 0
M  V30 23 C -3.583746 -0.299189 1.021668 0
M  V30 24 C -2.708406 0.710558 1.401822 0
M  V30 25 F -2.756430 1.024588 2.722897 0
M  V30 26 C 1.349741 -0.097228 0.902521 0
M  V30 27 N 2.288507 -0.848565 0.298436 0
M  V30 28 H 2.952439 -4.602172 0.190145 0
M  V30 29 H 3.492335 -4.448372 1.960780 0
M  V30 30 H 1.935613 -5.203145 1.629865 0
M  V30 31 H 0.580580 -3.648258 -0.275026 0
M  V30 32 H -0.134562 -2.526439 0.917769 0
M  V30 33 H 0.072755 -4.287465 1.307482 0
M  V30 34 H 0.813154 -2.395449 3.035138 0
M  V30 35 H 2.599417 -1.973320 3.086609 0
M  V30 36 H 2.044719 -3.614888 3.477146 0
M  V30 37 H 3.817081 1.386302 -1.725738 0
M  V30 38 H 2.165519 2.816082 -0.696945 0
M  V30 39 H -0.070447 5.030415 2.603189 0
M  V30 40 H -1.212129 1.466902 -1.467825 0
M  V30 41 H -4.252783 -0.802543 1.705282 0
M  V30 42 H 0.640741 -0.402226 1.626695 0
M  V30 END ATOM
M  V30 BEGIN BOND
M  V30 1 1 1 2
M  V30 2 1 2 3
M  V30 3 1 2 4
M  V30 4 1 2 5
M  V30 5 2 5 6
M  V30 6 1 6 7
M  V30 7 2 7 8
M  V30 8 1 8 9
M  V30 9 2 9 10
M  V30 10 1 10 11
M  V30 11 1 11 12
M  V30 12 1 12 13
M  V30 13 1 13 14
M  V30 14 2 14 15
M  V30 15 1 15 16
M  V30 16 1 16 17
M  V30 17 2 17 18
M  V30 18 1 18 19
M  V30 19 1 19 20
M  V30 20 2 19 21
M  V30 21 1 21 22
M  V30 22 1 21 23
M  V30 23 2 23 24
M  V30 24 1 24 25
M  V30 25 2 11 26
M  V30 26 1 26 27
M  V30 27 1 27 5
M  V30 28 1 27 8
M  V30 29 2 16 12
M  V30 30 1 24 17
M  V30 31 1 1 28
M  V30 32 1 1 29
M  V30 33 1 1 30
M  V30 34 1 3 31
M  V30 35 1 3 32
M  V30 36 1 3 33
M  V30 37 1 4 34
M  V30 38 1 4 35
M  V30 39 1 4 36
M  V30 40 1 9 37
M  V30 41 1 10 38
M  V30 42 1 14 39
M  V30 43 1 18 40
M  V30 44 1 23 41
M  V30 45 1 26 42
M  V30 END BOND
M  V30 END CTAB
M  END
>  <Dataset>  (962) 
ChEMBL_Kinases

>  <Ligand_Instance>  (962) 
nan

>  <PDB_ID>  (962) 
nan

>  <Standardized_SMILES>  (962) 
CC(C)(C)c1nnc2ccc(-c3ocnc3-c3cc(F)c(F)cc3F)cn12

>  <Name>  (962) 
nan

>  <Pocket>  (962) 
nan

>  <ATP_Site>  (962) 
nan

>  <Peripheral>  (962) 
nan

>  <Num_H_Atoms_ProtBoundConf>  (962) 
nan

>  <Num_Resolved_Atoms>  (962) 
nan

>  <Num_Not_Resolved_Atoms>  (962) 
nan

$$$$
CHEMBL213002
     RDKit          3D

  0  0  0  0  0  0  0  0  0  0999 V3000
M  V30 BEGIN CTAB
M  V30 COUNTS 43 47 0 0 0
M  V30 BEGIN ATOM
M  V30 1 F 1.841376 -4.970172 3.078585 0
M  V30 2 C 1.933389 -4.229679 1.945609 0
M  V30 3 C 3.020037 -3.365325 1.763142 0
M  V30 4 C 3.057424 -2.633298 0.576828 0
M  V30 5 C 2.055923 -2.751338 -0.394693 0
M  V30 6 C 2.343414 -1.875744 -1.529298 0
M  V30 7 N 2.608173 -2.255110 -2.808674 0
M  V30 8 C 2.820902 -1.131686 -3.528738 0
M  V30 9 O 2.694459 -0.074778 -2.728978 0
M  V30 10 C 2.405361 -0.493828 -1.512073 0
M  V30 11 C 2.190036 0.374168 -0.354459 0
M  V30 12 C 3.244193 1.129927 0.115082 0
M  V30 13 C 3.030499 1.945074 1.203099 0
M  V30 14 C 1.771182 1.949962 1.750486 0
M  V30 15 N 1.337388 2.658153 2.804455 0
M  V30 16 N 0.083011 2.394586 3.021910 0
M  V30 17 C -0.388898 1.485315 2.111149 0
M  V30 18 N -1.697660 0.894165 1.954637 0
M  V30 19 C -2.111315 -0.015222 0.908826 0
M  V30 20 C -3.631564 -0.230641 1.002426 0
M  V30 21 O -3.968470 -0.407032 2.342822 0
M  V30 22 C -3.942104 0.889093 2.904034 0
M  V30 23 C -2.538564 1.366333 3.036437 0
M  V30 24 N 0.697061 1.246636 1.352411 0
M  V30 25 C 0.978485 0.475862 0.290725 0
M  V30 26 C 0.996341 -3.611307 -0.187417 0
M  V30 27 C 0.961679 -4.326173 0.972839 0
M  V30 28 H 3.776682 -3.295299 2.529574 0
M  V30 29 H 3.937830 -1.990554 0.525083 0
M  V30 30 H 3.046027 -1.277520 -4.577554 0
M  V30 31 H 4.220135 1.098058 -0.344790 0
M  V30 32 H 3.824071 2.557417 1.610756 0
M  V30 33 H -1.989250 0.440729 -0.102557 0
M  V30 34 H -1.598452 -0.975138 1.039693 0
M  V30 35 H -3.856299 -1.123096 0.410649 0
M  V30 36 H -4.118213 0.687592 0.601951 0
M  V30 37 H -4.514417 1.578142 2.232418 0
M  V30 38 H -4.461916 0.785786 3.874096 0
M  V30 39 H -2.150649 0.962109 4.014620 0
M  V30 40 H -2.557883 2.482922 3.051317 0
M  V30 41 H 0.223879 -0.151829 -0.143848 0
M  V30 42 H 0.296124 -3.608069 -1.010438 0
M  V30 43 H 0.105542 -4.988572 1.086649 0
M  V30 END ATOM
M  V30 BEGIN BOND
M  V30 1 1 1 2
M  V30 2 2 2 3
M  V30 3 1 3 4
M  V30 4 2 4 5
M  V30 5 1 5 6
M  V30 6 1 6 7
M  V30 7 2 7 8
M  V30 8 1 8 9
M  V30 9 1 9 10
M  V30 10 1 10 11
M  V30 11 1 11 12
M  V30 12 2 12 13
M  V30 13 1 13 14
M  V30 14 2 14 15
M  V30 15 1 15 16
M  V30 16 2 16 17
M  V30 17 1 17 18
M  V30 18 1 18 19
M  V30 19 1 19 20
M  V30 20 1 20 21
M  V30 21 1 21 22
M  V30 22 1 22 23
M  V30 23 1 17 24
M  V30 24 1 24 25
M  V30 25 1 5 26
M  V30 26 2 26 27
M  V30 27 1 27 2
M  V30 28 2 10 6
M  V30 29 2 25 11
M  V30 30 1 24 14
M  V30 31 1 23 18
M  V30 32 1 3 28
M  V30 33 1 4 29
M  V30 34 1 8 30
M  V30 35 1 12 31
M  V30 36 1 13 32
M  V30 37 1 19 33
M  V30 38 1 19 34
M  V30 39 1 20 35
M  V30 40 1 20 36
M  V30 41 1 22 37
M  V30 42 1 22 38
M  V30 43 1 23 39
M  V30 44 1 23 40
M  V30 45 1 25 41
M  V30 46 1 26 42
M  V30 47 1 27 43
M  V30 END BOND
M  V30 END CTAB
M  END
>  <Dataset>  (963) 
ChEMBL_Kinases

>  <Ligand_Instance>  (963) 
nan

>  <PDB_ID>  (963) 
nan

>  <Standardized_SMILES>  (963) 
Fc1ccc(-c2ncoc2-c2ccc3nnc(N4CCOCC4)n3c2)cc1

>  <Name>  (963) 
nan

>  <Pocket>  (963) 
nan

>  <ATP_Site>  (963) 
nan

>  <Peripheral>  (963) 
nan

>  <Num_H_Atoms_ProtBoundConf>  (963) 
nan

>  <Num_Resolved_Atoms>  (963) 
nan

>  <Num_Not_Resolved_Atoms>  (963) 
nan

$$$$
CHEMBL213055
     RDKit          3D

  0  0  0  0  0  0  0  0  0  0999 V3000
M  V30 BEGIN CTAB
M  V30 COUNTS 33 36 0 0 0
M  V30 BEGIN ATOM
M  V30 1 F 3.492280 -3.455786 3.245072 0
M  V30 2 C 2.235648 -3.155014 2.734386 0
M  V30 3 F 1.340823 -4.079864 3.266916 0
M  V30 4 C 2.230007 -3.207793 1.239152 0
M  V30 5 N 2.560015 -4.258614 0.489284 0
M  V30 6 N 2.444244 -3.964715 -0.796472 0
M  V30 7 C 2.023919 -2.678070 -0.913367 0
M  V30 8 C 1.736142 -1.843073 -1.991442 0
M  V30 9 C 1.318631 -0.545996 -1.681772 0
M  V30 10 C 1.189429 -0.087490 -0.396942 0
M  V30 11 C 0.747069 1.291772 -0.223614 0
M  V30 12 O 1.373088 2.408769 -0.491722 0
M  V30 13 C 0.601476 3.439187 -0.177411 0
M  V30 14 N -0.590554 2.996220 0.321454 0
M  V30 15 C -0.498173 1.656929 0.291785 0
M  V30 16 C -1.620248 0.835856 0.762927 0
M  V30 17 C -1.685980 -0.019003 1.843995 0
M  V30 18 C -2.857741 -0.704056 2.101711 0
M  V30 19 C -3.994473 -0.566840 1.305978 0
M  V30 20 C -3.930108 0.288025 0.225048 0
M  V30 21 C -2.751856 0.985736 -0.046557 0
M  V30 22 C 1.497366 -0.986670 0.604488 0
M  V30 23 N 1.900168 -2.236146 0.360925 0
M  V30 24 H 1.928153 -2.142284 3.089492 0
M  V30 25 H 1.843993 -2.222683 -3.007539 0
M  V30 26 H 1.112246 0.040357 -2.588337 0
M  V30 27 H 1.065234 4.408857 -0.376716 0
M  V30 28 H -0.776732 -0.064836 2.401139 0
M  V30 29 H -2.845404 -1.371765 2.980815 0
M  V30 30 H -4.909169 -1.127584 1.544955 0
M  V30 31 H -4.835164 0.377822 -0.381495 0
M  V30 32 H -2.804434 1.632257 -0.918598 0
M  V30 33 H 1.401082 -0.625580 1.617569 0
M  V30 END ATOM
M  V30 BEGIN BOND
M  V30 1 1 1 2
M  V30 2 1 2 3
M  V30 3 1 2 4
M  V30 4 2 4 5
M  V30 5 1 5 6
M  V30 6 2 6 7
M  V30 7 1 7 8
M  V30 8 2 8 9
M  V30 9 1 9 10
M  V30 10 1 10 11
M  V30 11 1 11 12
M  V30 12 1 12 13
M  V30 13 2 13 14
M  V30 14 1 14 15
M  V30 15 1 15 16
M  V30 16 2 16 17
M  V30 17 1 17 18
M  V30 18 2 18 19
M  V30 19 1 19 20
M  V30 20 2 20 21
M  V30 21 2 10 22
M  V30 22 1 22 23
M  V30 23 1 23 4
M  V30 24 1 23 7
M  V30 25 2 15 11
M  V30 26 1 21 16
M  V30 27 1 2 24
M  V30 28 1 8 25
M  V30 29 1 9 26
M  V30 30 1 13 27
M  V30 31 1 17 28
M  V30 32 1 18 29
M  V30 33 1 19 30
M  V30 34 1 20 31
M  V30 35 1 21 32
M  V30 36 1 22 33
M  V30 END BOND
M  V30 END CTAB
M  END
>  <Dataset>  (964) 
ChEMBL_Kinases

>  <Ligand_Instance>  (964) 
nan

>  <PDB_ID>  (964) 
nan

>  <Standardized_SMILES>  (964) 
FC(F)c1nnc2ccc(-c3ocnc3-c3ccccc3)cn12

>  <Name>  (964) 
nan

>  <Pocket>  (964) 
nan

>  <ATP_Site>  (964) 
nan

>  <Peripheral>  (964) 
nan

>  <Num_H_Atoms_ProtBoundConf>  (964) 
nan

>  <Num_Resolved_Atoms>  (964) 
nan

>  <Num_Not_Resolved_Atoms>  (964) 
nan

$$$$
CHEMBL212821
     RDKit          3D

  0  0  0  0  0  0  0  0  0  0999 V3000
M  V30 BEGIN CTAB
M  V30 COUNTS 39 42 0 0 0
M  V30 BEGIN ATOM
M  V30 1 N 1.196879 -4.002359 0.780478 0
M  V30 2 C 1.053377 -2.582074 0.733925 0
M  V30 3 N 2.098136 -1.738937 0.523210 0
M  V30 4 C 1.931478 -0.388739 0.482046 0
M  V30 5 C 3.152540 0.370634 0.260509 0
M  V30 6 C 3.339935 1.210016 -0.815572 0
M  V30 7 C 4.514185 1.926703 -1.038182 0
M  V30 8 C 5.562202 1.814370 -0.157706 0
M  V30 9 C 5.375164 0.984134 0.904298 0
M  V30 10 C 4.224045 0.271698 1.135977 0
M  V30 11 Cl 4.089366 -0.776013 2.544424 0
M  V30 12 C 0.680881 0.156713 0.656971 0
M  V30 13 C -0.343702 -0.740987 0.867445 0
M  V30 14 N -0.193996 -2.078723 0.909934 0
M  V30 15 N -1.691888 -0.296875 1.074242 0
M  V30 16 C -2.787753 -1.206311 1.293316 0
M  V30 17 C -3.218891 -1.645054 2.544626 0
M  V30 18 Cl -2.359761 -1.035837 3.926459 0
M  V30 19 C -4.281998 -2.520108 2.607046 0
M  V30 20 C -4.951518 -2.991656 1.485359 0
M  V30 21 C -4.513207 -2.547308 0.244105 0
M  V30 22 C -3.441134 -1.662726 0.148901 0
M  V30 23 Cl -2.934056 -1.138254 -1.441922 0
M  V30 24 C -2.028607 1.091430 1.072173 0
M  V30 25 O -3.171682 1.533764 1.244004 0
M  V30 26 N -0.926144 1.948703 0.852735 0
M  V30 27 C 0.481666 1.607010 0.629458 0
M  V30 28 H 1.346817 -4.655741 -0.033249 0
M  V30 29 H 1.148129 -4.441838 1.720671 0
M  V30 30 H 2.592023 1.360517 -1.569926 0
M  V30 31 H 4.633605 2.584971 -1.900909 0
M  V30 32 H 6.464013 2.369427 -0.335044 0
M  V30 33 H 6.196867 0.883237 1.610323 0
M  V30 34 H -4.594915 -2.844092 3.592992 0
M  V30 35 H -5.784781 -3.684925 1.632747 0
M  V30 36 H -5.045628 -2.924564 -0.609159 0
M  V30 37 H -1.091506 2.991848 0.839756 0
M  V30 38 H 0.992077 2.008681 1.554960 0
M  V30 39 H 0.874746 2.148463 -0.225305 0
M  V30 END ATOM
M  V30 BEGIN BOND
M  V30 1 1 1 2
M  V30 2 2 2 3
M  V30 3 1 3 4
M  V30 4 1 4 5
M  V30 5 2 5 6
M  V30 6 1 6 7
M  V30 7 2 7 8
M  V30 8 1 8 9
M  V30 9 2 9 10
M  V30 10 1 10 11
M  V30 11 2 4 12
M  V30 12 1 12 13
M  V30 13 2 13 14
M  V30 14 1 13 15
M  V30 15 1 15 16
M  V30 16 2 16 17
M  V30 17 1 17 18
M  V30 18 1 17 19
M  V30 19 2 19 20
M  V30 20 1 20 21
M  V30 21 2 21 22
M  V30 22 1 22 23
M  V30 23 1 15 24
M  V30 24 2 24 25
M  V30 25 1 24 26
M  V30 26 1 26 27
M  V30 27 1 14 2
M  V30 28 1 22 16
M  V30 29 1 10 5
M  V30 30 1 27 12
M  V30 31 1 1 28
M  V30 32 1 1 29
M  V30 33 1 6 30
M  V30 34 1 7 31
M  V30 35 1 8 32
M  V30 36 1 9 33
M  V30 37 1 19 34
M  V30 38 1 20 35
M  V30 39 1 21 36
M  V30 40 1 26 37
M  V30 41 1 27 38
M  V30 42 1 27 39
M  V30 END BOND
M  V30 END CTAB
M  END
>  <Dataset>  (965) 
ChEMBL_Kinases

>  <Ligand_Instance>  (965) 
nan

>  <PDB_ID>  (965) 
nan

>  <Standardized_SMILES>  (965) 
Nc1nc(-c2ccccc2Cl)c2c(n1)N(c1c(Cl)cccc1Cl)C(=O)NC2

>  <Name>  (965) 
nan

>  <Pocket>  (965) 
nan

>  <ATP_Site>  (965) 
nan

>  <Peripheral>  (965) 
nan

>  <Num_H_Atoms_ProtBoundConf>  (965) 
nan

>  <Num_Resolved_Atoms>  (965) 
nan

>  <Num_Not_Resolved_Atoms>  (965) 
nan

$$$$
CHEMBL214556
     RDKit          3D

  0  0  0  0  0  0  0  0  0  0999 V3000
M  V30 BEGIN CTAB
M  V30 COUNTS 69 73 0 0 0
M  V30 BEGIN ATOM
M  V30 1 C 1.592868 -1.353708 5.286348 0
M  V30 2 C 1.727096 -0.085243 4.511768 0
M  V30 3 C 2.189781 1.048299 5.141390 0
M  V30 4 C 2.327322 2.254278 4.442888 0
M  V30 5 C 1.985342 2.259849 3.115655 0
M  V30 6 C 2.137866 3.532397 2.432638 0
M  V30 7 O 2.482425 4.547939 3.088556 0
M  V30 8 N 1.900844 3.629098 1.037625 0
M  V30 9 C 1.938847 4.648388 0.053217 0
M  V30 10 C 3.109100 4.960269 -0.642732 0
M  V30 11 C 3.060463 5.958238 -1.586863 0
M  V30 12 C 1.881768 6.621674 -1.827072 0
M  V30 13 C 0.701628 6.333216 -1.149883 0
M  V30 14 C -0.553071 7.091869 -1.464114 0
M  V30 15 F -1.541397 6.234306 -1.914844 0
M  V30 16 F -1.024259 7.735837 -0.332017 0
M  V30 17 F -0.259406 8.052292 -2.403883 0
M  V30 18 C 0.750062 5.340259 -0.210584 0
M  V30 19 C -0.466251 4.968697 0.549750 0
M  V30 20 C 1.526284 1.107357 2.518541 0
M  V30 21 C 1.378574 -0.099589 3.180651 0
M  V30 22 C 0.883633 -1.255871 2.464622 0
M  V30 23 C -0.248308 -0.950578 1.703666 0
M  V30 24 C -0.883213 -1.937122 0.938080 0
M  V30 25 C -0.310403 -3.175808 1.005777 0
M  V30 26 N -0.900514 -4.134309 0.284387 0
M  V30 27 C -0.471623 -5.397857 0.237985 0
M  V30 28 N -0.911993 -6.604267 -0.412186 0
M  V30 29 C -0.614284 -6.705840 -1.805309 0
M  V30 30 C -1.495259 -5.804167 -2.603906 0
M  V30 31 N -2.876243 -6.049318 -2.575753 0
M  V30 32 C -3.647758 -5.851893 -1.427185 0
M  V30 33 C -4.941924 -5.128631 -1.850325 0
M  V30 34 C -4.629701 -4.549337 -3.200471 0
M  V30 35 C -3.532939 -5.439762 -3.700110 0
M  V30 36 N 0.614293 -5.700212 0.962961 0
M  V30 37 C 1.273337 -4.804528 1.718439 0
M  V30 38 C 0.797215 -3.513643 1.738103 0
M  V30 39 C 1.395216 -2.534045 2.473966 0
M  V30 40 H 2.542450 -1.894517 5.387618 0
M  V30 41 H 0.741470 -1.983595 4.931117 0
M  V30 42 H 1.288411 -1.023543 6.323094 0
M  V30 43 H 2.455994 1.032824 6.187267 0
M  V30 44 H 2.694668 3.103956 4.997656 0
M  V30 45 H 1.617024 2.835735 0.433804 0
M  V30 46 H 4.016714 4.396596 -0.407651 0
M  V30 47 H 3.965002 6.203109 -2.127877 0
M  V30 48 H 1.896707 7.383886 -2.566354 0
M  V30 49 H -1.048954 5.825429 0.927344 0
M  V30 50 H -1.142370 4.397850 -0.151543 0
M  V30 51 H -0.214835 4.260522 1.383321 0
M  V30 52 H 1.260369 1.126130 1.470579 0
M  V30 53 H -0.713333 0.047010 1.644978 0
M  V30 54 H -1.759431 -1.686143 0.353631 0
M  V30 55 H -1.414526 -7.415417 -0.025873 0
M  V30 56 H -0.563962 -7.740165 -2.204484 0
M  V30 57 H 0.437824 -6.315044 -1.942181 0
M  V30 58 H -1.176031 -5.825303 -3.691200 0
M  V30 59 H -1.302665 -4.743981 -2.295084 0
M  V30 60 H -4.022783 -6.858686 -1.055556 0
M  V30 61 H -3.208931 -5.350041 -0.564879 0
M  V30 62 H -5.788985 -5.806525 -1.954308 0
M  V30 63 H -5.178743 -4.293298 -1.163102 0
M  V30 64 H -5.516232 -4.553289 -3.869562 0
M  V30 65 H -4.263930 -3.503912 -3.149757 0
M  V30 66 H -2.841778 -4.801828 -4.319307 0
M  V30 67 H -3.909031 -6.197829 -4.430810 0
M  V30 68 H 2.147672 -4.977028 2.323243 0
M  V30 69 H 2.265636 -2.697216 3.080424 0
M  V30 END ATOM
M  V30 BEGIN BOND
M  V30 1 1 1 2
M  V30 2 2 2 3
M  V30 3 1 3 4
M  V30 4 2 4 5
M  V30 5 1 5 6
M  V30 6 2 6 7
M  V30 7 1 6 8
M  V30 8 1 8 9
M  V30 9 2 9 10
M  V30 10 1 10 11
M  V30 11 2 11 12
M  V30 12 1 12 13
M  V30 13 1 13 14
M  V30 14 1 14 15
M  V30 15 1 14 16
M  V30 16 1 14 17
M  V30 17 2 13 18
M  V30 18 1 18 19
M  V30 19 1 5 20
M  V30 20 2 20 21
M  V30 21 1 21 22
M  V30 22 2 22 23
M  V30 23 1 23 24
M  V30 24 2 24 25
M  V30 25 1 25 26
M  V30 26 2 26 27
M  V30 27 1 27 28
M  V30 28 1 28 29
M  V30 29 1 29 30
M  V30 30 1 30 31
M  V30 31 1 31 32
M  V30 32 1 32 33
M  V30 33 1 33 34
M  V30 34 1 34 35
M  V30 35 1 27 36
M  V30 36 2 36 37
M  V30 37 1 37 38
M  V30 38 2 38 39
M  V30 39 1 21 2
M  V30 40 1 39 22
M  V30 41 1 18 9
M  V30 42 1 38 25
M  V30 43 1 35 31
M  V30 44 1 1 40
M  V30 45 1 1 41
M  V30 46 1 1 42
M  V30 47 1 3 43
M  V30 48 1 4 44
M  V30 49 1 8 45
M  V30 50 1 10 46
M  V30 51 1 11 47
M  V30 52 1 12 48
M  V30 53 1 19 49
M  V30 54 1 19 50
M  V30 55 1 19 51
M  V30 56 1 20 52
M  V30 57 1 23 53
M  V30 58 1 24 54
M  V30 59 1 28 55
M  V30 60 1 29 56
M  V30 61 1 29 57
M  V30 62 1 30 58
M  V30 63 1 30 59
M  V30 64 1 32 60
M  V30 65 1 32 61
M  V30 66 1 33 62
M  V30 67 1 33 63
M  V30 68 1 34 64
M  V30 69 1 34 65
M  V30 70 1 35 66
M  V30 71 1 35 67
M  V30 72 1 37 68
M  V30 73 1 39 69
M  V30 END BOND
M  V30 END CTAB
M  END
>  <Dataset>  (966) 
ChEMBL_Kinases

>  <Ligand_Instance>  (966) 
nan

>  <PDB_ID>  (966) 
nan

>  <Standardized_SMILES>  (966) 
Cc1ccc(C(=O)Nc2cccc(C(F)(F)F)c2C)cc1-c1ccc2nc(NCCN3CCCC3)ncc2c1

>  <Name>  (966) 
nan

>  <Pocket>  (966) 
nan

>  <ATP_Site>  (966) 
nan

>  <Peripheral>  (966) 
nan

>  <Num_H_Atoms_ProtBoundConf>  (966) 
nan

>  <Num_Resolved_Atoms>  (966) 
nan

>  <Num_Not_Resolved_Atoms>  (966) 
nan

$$$$
CHEMBL214530
     RDKit          3D

  0  0  0  0  0  0  0  0  0  0999 V3000
M  V30 BEGIN CTAB
M  V30 COUNTS 73 77 0 0 0
M  V30 BEGIN ATOM
M  V30 1 C 4.470209 -3.788967 0.416831 0
M  V30 2 C 4.154891 -2.752435 -0.572641 0
M  V30 3 C 5.145997 -2.187529 -1.348182 0
M  V30 4 C 4.818230 -1.205482 -2.280340 0
M  V30 5 C 3.530295 -0.752499 -2.479701 0
M  V30 6 C 3.331995 0.280674 -3.489482 0
M  V30 7 O 4.327234 0.690513 -4.114709 0
M  V30 8 N 2.026831 0.791118 -3.735511 0
M  V30 9 C 1.554317 1.768719 -4.631021 0
M  V30 10 C 1.136713 1.461917 -5.905248 0
M  V30 11 C 0.673459 2.429116 -6.778826 0
M  V30 12 C 0.663152 3.725071 -6.272121 0
M  V30 13 C 1.068821 4.114582 -4.996562 0
M  V30 14 C 1.013540 5.514468 -4.570847 0
M  V30 15 F 0.221043 5.764273 -3.484700 0
M  V30 16 F 2.300436 5.930019 -4.242343 0
M  V30 17 F 0.656787 6.293887 -5.667417 0
M  V30 18 C 1.512840 3.099100 -4.195740 0
M  V30 19 C 1.961667 3.415449 -2.832456 0
M  V30 20 C 2.562548 -1.319541 -1.706837 0
M  V30 21 C 2.886576 -2.298151 -0.777356 0
M  V30 22 C 1.756479 -2.823490 -0.012058 0
M  V30 23 C 0.606091 -3.143735 -0.744142 0
M  V30 24 C -0.549682 -3.654881 -0.140733 0
M  V30 25 C -0.501013 -3.830566 1.228451 0
M  V30 26 N -1.612361 -4.322010 1.810570 0
M  V30 27 C -1.598378 -4.507704 3.162346 0
M  V30 28 N -2.624576 -5.006637 4.010676 0
M  V30 29 C -3.486761 -3.917285 4.492777 0
M  V30 30 C -4.143555 -3.211746 3.345092 0
M  V30 31 C -5.035922 -2.090005 3.769496 0
M  V30 32 N -4.351176 -1.050024 4.508335 0
M  V30 33 C -5.340270 -0.063063 4.835728 0
M  V30 34 C -4.840962 1.350203 4.648087 0
M  V30 35 O -3.522317 1.415622 5.124891 0
M  V30 36 C -2.751824 0.800566 4.139893 0
M  V30 37 C -3.227459 -0.561734 3.760268 0
M  V30 38 N -0.493450 -4.203458 3.889299 0
M  V30 39 C 0.632582 -3.708814 3.322670 0
M  V30 40 C 0.626523 -3.518574 1.959537 0
M  V30 41 C 1.761253 -3.015152 1.355526 0
M  V30 42 H 3.645287 -4.508354 0.589000 0
M  V30 43 H 4.908134 -3.348369 1.310308 0
M  V30 44 H 5.291345 -4.415710 -0.036978 0
M  V30 45 H 6.165902 -2.522935 -1.213752 0
M  V30 46 H 5.673300 -0.827120 -2.838555 0
M  V30 47 H 1.172091 0.470261 -3.230186 0
M  V30 48 H 1.158162 0.433886 -6.271022 0
M  V30 49 H 0.336855 2.246853 -7.779066 0
M  V30 50 H 0.301288 4.526584 -6.935144 0
M  V30 51 H 2.736326 4.207105 -2.790438 0
M  V30 52 H 2.400215 2.543826 -2.301670 0
M  V30 53 H 1.045391 3.662336 -2.236466 0
M  V30 54 H 1.546933 -0.978425 -1.847893 0
M  V30 55 H 0.597657 -2.993134 -1.832050 0
M  V30 56 H -1.395691 -3.877153 -0.773644 0
M  V30 57 H -2.698651 -6.034833 4.223522 0
M  V30 58 H -2.904962 -3.255544 5.141188 0
M  V30 59 H -4.260338 -4.406589 5.147559 0
M  V30 60 H -4.801329 -3.964134 2.843508 0
M  V30 61 H -3.372645 -2.931328 2.602263 0
M  V30 62 H -5.811571 -2.502663 4.427380 0
M  V30 63 H -5.483935 -1.621435 2.871857 0
M  V30 64 H -6.290762 -0.158143 4.276959 0
M  V30 65 H -5.611071 -0.144318 5.919225 0
M  V30 66 H -4.813139 1.574398 3.562559 0
M  V30 67 H -5.465671 2.076052 5.185139 0
M  V30 68 H -1.695404 0.825773 4.490303 0
M  V30 69 H -2.770676 1.515491 3.267575 0
M  V30 70 H -2.365278 -1.253586 3.932262 0
M  V30 71 H -3.497032 -0.533649 2.671447 0
M  V30 72 H 1.522995 -3.460209 3.883609 0
M  V30 73 H 2.656204 -2.762376 1.902833 0
M  V30 END ATOM
M  V30 BEGIN BOND
M  V30 1 1 1 2
M  V30 2 2 2 3
M  V30 3 1 3 4
M  V30 4 2 4 5
M  V30 5 1 5 6
M  V30 6 2 6 7
M  V30 7 1 6 8
M  V30 8 1 8 9
M  V30 9 2 9 10
M  V30 10 1 10 11
M  V30 11 2 11 12
M  V30 12 1 12 13
M  V30 13 1 13 14
M  V30 14 1 14 15
M  V30 15 1 14 16
M  V30 16 1 14 17
M  V30 17 2 13 18
M  V30 18 1 18 19
M  V30 19 1 5 20
M  V30 20 2 20 21
M  V30 21 1 21 22
M  V30 22 2 22 23
M  V30 23 1 23 24
M  V30 24 2 24 25
M  V30 25 1 25 26
M  V30 26 2 26 27
M  V30 27 1 27 28
M  V30 28 1 28 29
M  V30 29 1 29 30
M  V30 30 1 30 31
M  V30 31 1 31 32
M  V30 32 1 32 33
M  V30 33 1 33 34
M  V30 34 1 34 35
M  V30 35 1 35 36
M  V30 36 1 36 37
M  V30 37 1 27 38
M  V30 38 2 38 39
M  V30 39 1 39 40
M  V30 40 2 40 41
M  V30 41 1 21 2
M  V30 42 1 41 22
M  V30 43 1 18 9
M  V30 44 1 40 25
M  V30 45 1 37 32
M  V30 46 1 1 42
M  V30 47 1 1 43
M  V30 48 1 1 44
M  V30 49 1 3 45
M  V30 50 1 4 46
M  V30 51 1 8 47
M  V30 52 1 10 48
M  V30 53 1 11 49
M  V30 54 1 12 50
M  V30 55 1 19 51
M  V30 56 1 19 52
M  V30 57 1 19 53
M  V30 58 1 20 54
M  V30 59 1 23 55
M  V30 60 1 24 56
M  V30 61 1 28 57
M  V30 62 1 29 58
M  V30 63 1 29 59
M  V30 64 1 30 60
M  V30 65 1 30 61
M  V30 66 1 31 62
M  V30 67 1 31 63
M  V30 68 1 33 64
M  V30 69 1 33 65
M  V30 70 1 34 66
M  V30 71 1 34 67
M  V30 72 1 36 68
M  V30 73 1 36 69
M  V30 74 1 37 70
M  V30 75 1 37 71
M  V30 76 1 39 72
M  V30 77 1 41 73
M  V30 END BOND
M  V30 END CTAB
M  END
>  <Dataset>  (967) 
ChEMBL_Kinases

>  <Ligand_Instance>  (967) 
nan

>  <PDB_ID>  (967) 
nan

>  <Standardized_SMILES>  (967) 
Cc1ccc(C(=O)Nc2cccc(C(F)(F)F)c2C)cc1-c1ccc2nc(NCCCN3CCOCC3)ncc2c1

>  <Name>  (967) 
nan

>  <Pocket>  (967) 
nan

>  <ATP_Site>  (967) 
nan

>  <Peripheral>  (967) 
nan

>  <Num_H_Atoms_ProtBoundConf>  (967) 
nan

>  <Num_Resolved_Atoms>  (967) 
nan

>  <Num_Not_Resolved_Atoms>  (967) 
nan

$$$$
CHEMBL214495
     RDKit          3D

  0  0  0  0  0  0  0  0  0  0999 V3000
M  V30 BEGIN CTAB
M  V30 COUNTS 66 70 0 0 0
M  V30 BEGIN ATOM
M  V30 1 C 5.205990 -0.380743 7.087109 0
M  V30 2 N 5.550648 0.001914 5.730433 0
M  V30 3 C 4.533739 0.338547 4.795196 0
M  V30 4 N 3.240241 0.306473 5.155595 0
M  V30 5 C 2.277004 0.623592 4.275019 0
M  V30 6 C 2.554708 0.990510 2.984974 0
M  V30 7 C 1.636755 1.330560 2.020198 0
M  V30 8 C 2.004682 1.693594 0.726195 0
M  V30 9 C 0.946985 2.042316 -0.243527 0
M  V30 10 C -0.094265 1.136076 -0.211189 0
M  V30 11 C -1.176026 1.296051 -1.047591 0
M  V30 12 C -2.370808 0.469342 -1.178472 0
M  V30 13 O -3.340054 0.678406 -1.957369 0
M  V30 14 N -2.502705 -0.678171 -0.385015 0
M  V30 15 C -3.368361 -1.746370 -0.121565 0
M  V30 16 C -4.355274 -1.620647 0.851157 0
M  V30 17 C -5.227363 -2.646821 1.150249 0
M  V30 18 C -6.302872 -2.606100 2.165128 0
M  V30 19 F -6.264040 -3.760599 2.932196 0
M  V30 20 F -6.207287 -1.544901 3.009631 0
M  V30 21 F -7.539380 -2.631753 1.521475 0
M  V30 22 C -5.081337 -3.819200 0.437445 0
M  V30 23 C -4.111129 -4.010870 -0.552526 0
M  V30 24 C -3.253960 -2.933438 -0.812456 0
M  V30 25 N -2.280542 -3.172875 -1.827950 0
M  V30 26 C -2.016717 -2.557731 -3.107589 0
M  V30 27 C -0.581055 -2.262982 -3.378111 0
M  V30 28 C 0.394244 -3.020736 -2.527874 0
M  V30 29 C -0.206300 -4.401515 -2.305886 0
M  V30 30 C -1.416421 -4.282814 -1.406835 0
M  V30 31 C -1.161312 2.387785 -1.900546 0
M  V30 32 C -0.129268 3.308718 -1.950870 0
M  V30 33 C 0.940732 3.122317 -1.101051 0
M  V30 34 C 2.123544 4.017244 -1.028492 0
M  V30 35 C 3.345844 1.699993 0.442859 0
M  V30 36 C 4.297072 1.364876 1.384770 0
M  V30 37 C 3.911926 1.008330 2.660057 0
M  V30 38 N 4.869497 0.691805 3.538933 0
M  V30 39 H 4.933167 -1.439953 7.100238 0
M  V30 40 H 4.295769 0.200985 7.362984 0
M  V30 41 H 6.036865 -0.156586 7.804780 0
M  V30 42 H 6.553928 0.028233 5.443738 0
M  V30 43 H 1.211989 0.606867 4.542857 0
M  V30 44 H 0.604847 1.291071 2.353533 0
M  V30 45 H -0.160153 0.269860 0.428933 0
M  V30 46 H -1.766293 -0.964057 0.305804 0
M  V30 47 H -4.483012 -0.704822 1.420224 0
M  V30 48 H -5.730313 -4.660554 0.621925 0
M  V30 49 H -4.044242 -4.958973 -1.081848 0
M  V30 50 H -2.578657 -1.618883 -3.233595 0
M  V30 51 H -2.435639 -3.263212 -3.872975 0
M  V30 52 H -0.371281 -2.558737 -4.445651 0
M  V30 53 H -0.333213 -1.170991 -3.339248 0
M  V30 54 H 1.331615 -3.179316 -3.107649 0
M  V30 55 H 0.606034 -2.507830 -1.576206 0
M  V30 56 H -0.495431 -4.794483 -3.296934 0
M  V30 57 H 0.499535 -5.097239 -1.830485 0
M  V30 58 H -1.089269 -4.152957 -0.348197 0
M  V30 59 H -1.954986 -5.254797 -1.450643 0
M  V30 60 H -1.969651 2.614557 -2.610286 0
M  V30 61 H -0.117491 4.150593 -2.609084 0
M  V30 62 H 2.566563 4.043440 -0.017664 0
M  V30 63 H 1.733514 5.057251 -1.195946 0
M  V30 64 H 2.858862 3.845861 -1.812781 0
M  V30 65 H 3.660205 1.974381 -0.538471 0
M  V30 66 H 5.346386 1.395806 1.076176 0
M  V30 END ATOM
M  V30 BEGIN BOND
M  V30 1 1 1 2
M  V30 2 1 2 3
M  V30 3 2 3 4
M  V30 4 1 4 5
M  V30 5 2 5 6
M  V30 6 1 6 7
M  V30 7 2 7 8
M  V30 8 1 8 9
M  V30 9 2 9 10
M  V30 10 1 10 11
M  V30 11 1 11 12
M  V30 12 2 12 13
M  V30 13 1 12 14
M  V30 14 1 14 15
M  V30 15 2 15 16
M  V30 16 1 16 17
M  V30 17 1 17 18
M  V30 18 1 18 19
M  V30 19 1 18 20
M  V30 20 1 18 21
M  V30 21 2 17 22
M  V30 22 1 22 23
M  V30 23 2 23 24
M  V30 24 1 24 25
M  V30 25 1 25 26
M  V30 26 1 26 27
M  V30 27 1 27 28
M  V30 28 1 28 29
M  V30 29 1 29 30
M  V30 30 2 11 31
M  V30 31 1 31 32
M  V30 32 2 32 33
M  V30 33 1 33 34
M  V30 34 1 8 35
M  V30 35 2 35 36
M  V30 36 1 36 37
M  V30 37 2 37 38
M  V30 38 1 38 3
M  V30 39 1 37 6
M  V30 40 1 33 9
M  V30 41 1 24 15
M  V30 42 1 30 25
M  V30 43 1 1 39
M  V30 44 1 1 40
M  V30 45 1 1 41
M  V30 46 1 2 42
M  V30 47 1 5 43
M  V30 48 1 7 44
M  V30 49 1 10 45
M  V30 50 1 14 46
M  V30 51 1 16 47
M  V30 52 1 22 48
M  V30 53 1 23 49
M  V30 54 1 26 50
M  V30 55 1 26 51
M  V30 56 1 27 52
M  V30 57 1 27 53
M  V30 58 1 28 54
M  V30 59 1 28 55
M  V30 60 1 29 56
M  V30 61 1 29 57
M  V30 62 1 30 58
M  V30 63 1 30 59
M  V30 64 1 31 60
M  V30 65 1 32 61
M  V30 66 1 34 62
M  V30 67 1 34 63
M  V30 68 1 34 64
M  V30 69 1 35 65
M  V30 70 1 36 66
M  V30 END BOND
M  V30 END CTAB
M  END
>  <Dataset>  (968) 
ChEMBL_Kinases

>  <Ligand_Instance>  (968) 
nan

>  <PDB_ID>  (968) 
nan

>  <Standardized_SMILES>  (968) 
CNc1ncc2cc(-c3cc(C(=O)Nc4cc(C(F)(F)F)ccc4N4CCCCC4)ccc3C)ccc2n1

>  <Name>  (968) 
nan

>  <Pocket>  (968) 
nan

>  <ATP_Site>  (968) 
nan

>  <Peripheral>  (968) 
nan

>  <Num_H_Atoms_ProtBoundConf>  (968) 
nan

>  <Num_Resolved_Atoms>  (968) 
nan

>  <Num_Not_Resolved_Atoms>  (968) 
nan

$$$$
CHEMBL214425
     RDKit          3D

  0  0  0  0  0  0  0  0  0  0999 V3000
M  V30 BEGIN CTAB
M  V30 COUNTS 47 49 0 0 0
M  V30 BEGIN ATOM
M  V30 1 C 2.620240 -1.244765 -1.559983 0
M  V30 2 C 3.867018 -0.421851 -1.318914 0
M  V30 3 C 4.454813 -0.063718 -2.660923 0
M  V30 4 O 4.873571 -1.247914 -3.280888 0
M  V30 5 N 3.416846 0.802821 -0.623915 0
M  V30 6 C 2.865195 0.621831 0.523117 0
M  V30 7 N 2.668918 -0.627029 1.139760 0
M  V30 8 C 2.387384 1.696044 1.334406 0
M  V30 9 C 2.511062 2.977694 0.897997 0
M  V30 10 O 3.059828 3.479418 -0.305913 0
M  V30 11 N 2.128713 4.203172 1.513319 0
M  V30 12 S 1.442589 3.404285 3.043259 0
M  V30 13 C 1.763684 1.783266 2.608530 0
M  V30 14 N 1.490561 0.551118 3.309027 0
M  V30 15 C 0.138516 0.046123 3.260995 0
M  V30 16 C -0.225076 -1.202025 3.717942 0
M  V30 17 C -1.518261 -1.672809 3.689979 0
M  V30 18 C -2.526347 -0.851788 3.173349 0
M  V30 19 O -3.864850 -1.178497 3.079165 0
M  V30 20 C -4.389752 -1.772013 1.946519 0
M  V30 21 C -3.533129 -2.040462 0.870596 0
M  V30 22 C -4.033875 -2.632042 -0.269163 0
M  V30 23 F -3.268983 -2.927979 -1.366198 0
M  V30 24 C -5.364221 -2.959300 -0.356082 0
M  V30 25 C -6.201566 -2.689608 0.713354 0
M  V30 26 C -5.730046 -2.089937 1.886691 0
M  V30 27 Cl -6.770225 -1.735562 3.256804 0
M  V30 28 C -2.210365 0.420207 2.697444 0
M  V30 29 C -0.876795 0.836085 2.755054 0
M  V30 30 H 1.718721 -0.791311 -1.090541 0
M  V30 31 H 2.735464 -2.291929 -1.203791 0
M  V30 32 H 2.377302 -1.304197 -2.644323 0
M  V30 33 H 4.627249 -0.955904 -0.714934 0
M  V30 34 H 3.792531 0.548070 -3.282990 0
M  V30 35 H 5.371404 0.546103 -2.485684 0
M  V30 36 H 4.674468 -2.046201 -2.766072 0
M  V30 37 H 3.559731 -1.065840 1.485729 0
M  V30 38 H 1.896059 -1.304945 1.382535 0
M  V30 39 H 2.825116 3.046178 -1.191157 0
M  V30 40 H 2.156619 -0.058127 3.870514 0
M  V30 41 H 0.548241 -1.857933 4.125328 0
M  V30 42 H -1.816543 -2.635324 4.039951 0
M  V30 43 H -2.475249 -1.819774 0.850703 0
M  V30 44 H -5.787698 -3.426580 -1.240168 0
M  V30 45 H -7.248644 -2.947395 0.646040 0
M  V30 46 H -2.929709 1.118319 2.282081 0
M  V30 47 H -0.610423 1.837750 2.383045 0
M  V30 END ATOM
M  V30 BEGIN BOND
M  V30 1 1 1 2
M  V30 2 1 2 3
M  V30 3 1 3 4
M  V30 4 1 2 5
M  V30 5 2 5 6
M  V30 6 1 6 7
M  V30 7 1 6 8
M  V30 8 1 8 9
M  V30 9 1 9 10
M  V30 10 2 9 11
M  V30 11 1 11 12
M  V30 12 1 12 13
M  V30 13 1 13 14
M  V30 14 1 14 15
M  V30 15 2 15 16
M  V30 16 1 16 17
M  V30 17 2 17 18
M  V30 18 1 18 19
M  V30 19 1 19 20
M  V30 20 2 20 21
M  V30 21 1 21 22
M  V30 22 1 22 23
M  V30 23 2 22 24
M  V30 24 1 24 25
M  V30 25 2 25 26
M  V30 26 1 26 27
M  V30 27 1 18 28
M  V30 28 2 28 29
M  V30 29 2 13 8
M  V30 30 1 29 15
M  V30 31 1 26 20
M  V30 32 1 1 30
M  V30 33 1 1 31
M  V30 34 1 1 32
M  V30 35 1 2 33
M  V30 36 1 3 34
M  V30 37 1 3 35
M  V30 38 1 4 36
M  V30 39 1 7 37
M  V30 40 1 7 38
M  V30 41 1 10 39
M  V30 42 1 14 40
M  V30 43 1 16 41
M  V30 44 1 17 42
M  V30 45 1 21 43
M  V30 46 1 24 44
M  V30 47 1 25 45
M  V30 48 1 28 46
M  V30 49 1 29 47
M  V30 END BOND
M  V30 END CTAB
M  END
>  <Dataset>  (969) 
ChEMBL_Kinases

>  <Ligand_Instance>  (969) 
nan

>  <PDB_ID>  (969) 
nan

>  <Standardized_SMILES>  (969) 
CC(CO)/N=C(\N)c1c(O)nsc1Nc1ccc(Oc2cc(F)ccc2Cl)cc1

>  <Name>  (969) 
nan

>  <Pocket>  (969) 
nan

>  <ATP_Site>  (969) 
nan

>  <Peripheral>  (969) 
nan

>  <Num_H_Atoms_ProtBoundConf>  (969) 
nan

>  <Num_Resolved_Atoms>  (969) 
nan

>  <Num_Not_Resolved_Atoms>  (969) 
nan

$$$$
CHEMBL2144069
     RDKit          3D

  0  0  0  0  0  0  0  0  0  0999 V3000
M  V30 BEGIN CTAB
M  V30 COUNTS 59 62 0 0 0
M  V30 BEGIN ATOM
M  V30 1 C 1.126103 -4.398605 2.861740 0
M  V30 2 C 0.642383 -3.015113 2.621545 0
M  V30 3 C 1.515432 -2.049888 3.089226 0
M  V30 4 C 1.182063 -0.707539 2.930377 0
M  V30 5 C -0.008779 -0.387681 2.311336 0
M  V30 6 N -0.277595 1.024526 2.185130 0
M  V30 7 C 0.269330 1.447336 0.940132 0
M  V30 8 O 0.828226 0.528958 0.281921 0
M  V30 9 C 0.232367 2.803833 0.394706 0
M  V30 10 C 0.824628 2.954583 -0.841547 0
M  V30 11 C 0.843555 4.215806 -1.449722 0
M  V30 12 C 0.246966 5.232134 -0.733118 0
M  V30 13 C -0.350075 5.069822 0.517937 0
M  V30 14 C -0.959721 6.245001 1.192353 0
M  V30 15 C -0.806113 7.476618 0.331061 0
M  V30 16 C -2.387118 6.019985 1.608772 0
M  V30 17 C -0.183940 6.502147 2.429309 0
M  V30 18 N 0.408864 6.699965 3.410013 0
M  V30 19 C -0.357091 3.828954 1.093282 0
M  V30 20 C -0.887388 -1.341640 1.840887 0
M  V30 21 C -0.552671 -2.670061 2.000503 0
M  V30 22 N -1.375632 -3.724435 1.559724 0
M  V30 23 C -1.223491 -4.787507 0.644416 0
M  V30 24 C -2.242720 -5.702298 0.478564 0
M  V30 25 C -2.012391 -6.707488 -0.437072 0
M  V30 26 C -0.854317 -6.853475 -1.180881 0
M  V30 27 N -0.682030 -7.855410 -2.062220 0
M  V30 28 C 0.479847 -7.947581 -2.765604 0
M  V30 29 N 1.482627 -7.055231 -2.608478 0
M  V30 30 C 2.733871 -7.097375 -3.320676 0
M  V30 31 C 1.292077 -6.056822 -1.719987 0
M  V30 32 O 2.222106 -5.199828 -1.551113 0
M  V30 33 C 0.132977 -5.915429 -0.979483 0
M  V30 34 C -0.041635 -4.887926 -0.076618 0
M  V30 35 H 1.912758 -4.680630 2.132201 0
M  V30 36 H 0.328884 -5.156445 2.786670 0
M  V30 37 H 1.579824 -4.518938 3.871872 0
M  V30 38 H 2.455020 -2.242313 3.578332 0
M  V30 39 H 1.855876 0.065655 3.291852 0
M  V30 40 H -0.753653 1.778354 2.757784 0
M  V30 41 H 1.289861 2.158755 -1.399165 0
M  V30 42 H 1.287282 4.402876 -2.409224 0
M  V30 43 H 0.261439 6.207266 -1.202944 0
M  V30 44 H -1.309936 7.383991 -0.649757 0
M  V30 45 H 0.243377 7.816630 0.269630 0
M  V30 46 H -1.330522 8.300894 0.895250 0
M  V30 47 H -2.723149 6.941693 2.104162 0
M  V30 48 H -2.392540 5.231641 2.384261 0
M  V30 49 H -3.060477 5.830988 0.763919 0
M  V30 50 H -0.810171 3.689687 2.049398 0
M  V30 51 H -1.806332 -1.056217 1.363823 0
M  V30 52 H -2.276832 -3.602128 2.088798 0
M  V30 53 H -3.180726 -5.650987 1.028314 0
M  V30 54 H -2.783967 -7.462249 -0.611328 0
M  V30 55 H 0.658113 -8.736733 -3.483184 0
M  V30 56 H 2.549513 -7.572686 -4.293330 0
M  V30 57 H 3.562496 -7.559806 -2.746490 0
M  V30 58 H 3.068029 -6.049490 -3.553791 0
M  V30 59 H 0.783989 -4.223078 -0.003917 0
M  V30 END ATOM
M  V30 BEGIN BOND
M  V30 1 1 1 2
M  V30 2 2 2 3
M  V30 3 1 3 4
M  V30 4 2 4 5
M  V30 5 1 5 6
M  V30 6 1 6 7
M  V30 7 2 7 8
M  V30 8 1 7 9
M  V30 9 2 9 10
M  V30 10 1 10 11
M  V30 11 2 11 12
M  V30 12 1 12 13
M  V30 13 1 13 14
M  V30 14 1 14 15
M  V30 15 1 14 16
M  V30 16 1 14 17
M  V30 17 3 17 18
M  V30 18 2 13 19
M  V30 19 1 5 20
M  V30 20 2 20 21
M  V30 21 1 21 22
M  V30 22 1 22 23
M  V30 23 2 23 24
M  V30 24 1 24 25
M  V30 25 2 25 26
M  V30 26 1 26 27
M  V30 27 2 27 28
M  V30 28 1 28 29
M  V30 29 1 29 30
M  V30 30 1 29 31
M  V30 31 2 31 32
M  V30 32 1 31 33
M  V30 33 2 33 34
M  V30 34 1 21 2
M  V30 35 1 34 23
M  V30 36 1 19 9
M  V30 37 1 33 26
M  V30 38 1 1 35
M  V30 39 1 1 36
M  V30 40 1 1 37
M  V30 41 1 3 38
M  V30 42 1 4 39
M  V30 43 1 6 40
M  V30 44 1 10 41
M  V30 45 1 11 42
M  V30 46 1 12 43
M  V30 47 1 15 44
M  V30 48 1 15 45
M  V30 49 1 15 46
M  V30 50 1 16 47
M  V30 51 1 16 48
M  V30 52 1 16 49
M  V30 53 1 19 50
M  V30 54 1 20 51
M  V30 55 1 22 52
M  V30 56 1 24 53
M  V30 57 1 25 54
M  V30 58 1 28 55
M  V30 59 1 30 56
M  V30 60 1 30 57
M  V30 61 1 30 58
M  V30 62 1 34 59
M  V30 END BOND
M  V30 END CTAB
M  END
>  <Dataset>  (970) 
ChEMBL_Kinases

>  <Ligand_Instance>  (970) 
nan

>  <PDB_ID>  (970) 
nan

>  <Standardized_SMILES>  (970) 
Cc1ccc(NC(=O)c2cccc(C(C)(C)C#N)c2)cc1Nc1ccc2ncn(C)c(=O)c2c1

>  <Name>  (970) 
nan

>  <Pocket>  (970) 
nan

>  <ATP_Site>  (970) 
nan

>  <Peripheral>  (970) 
nan

>  <Num_H_Atoms_ProtBoundConf>  (970) 
nan

>  <Num_Resolved_Atoms>  (970) 
nan

>  <Num_Not_Resolved_Atoms>  (970) 
nan

$$$$
CHEMBL2143507
     RDKit          3D

  0  0  0  0  0  0  0  0  0  0999 V3000
M  V30 BEGIN CTAB
M  V30 COUNTS 44 45 0 0 0
M  V30 BEGIN ATOM
M  V30 1 C -5.138236 -5.662353 1.102013 0
M  V30 2 C -4.880110 -4.223451 0.892279 0
M  V30 3 O -5.897235 -3.572536 0.571872 0
M  V30 4 N -3.564127 -3.716658 1.062050 0
M  V30 5 C -3.031789 -2.406830 0.930239 0
M  V30 6 C -2.990091 -1.540745 1.999777 0
M  V30 7 C -2.460294 -0.256509 1.841607 0
M  V30 8 C -1.959945 0.196472 0.617564 0
M  V30 9 C -1.460013 1.581655 0.676210 0
M  V30 10 C -1.957979 2.418484 -0.474278 0
M  V30 11 C 0.048856 1.602528 0.630813 0
M  V30 12 O 0.672954 2.084464 1.641364 0
M  V30 13 N 0.893456 1.159486 -0.385178 0
M  V30 14 C 2.304408 1.315785 -0.126839 0
M  V30 15 N 3.016506 2.169796 -0.346722 0
M  V30 16 C 4.307736 2.306055 -0.107313 0
M  V30 17 C 4.902274 1.259525 0.504148 0
M  V30 18 C 6.234458 0.855601 0.997213 0
M  V30 19 C 6.108337 0.700524 2.510550 0
M  V30 20 C 6.695542 -0.458271 0.409497 0
M  V30 21 S 3.514051 0.085808 0.710880 0
M  V30 22 C -2.021815 -0.696458 -0.415901 0
M  V30 23 C -2.536611 -1.951900 -0.272413 0
M  V30 24 H -5.426695 -5.892242 2.161883 0
M  V30 25 H -5.890099 -6.054367 0.379830 0
M  V30 26 H -4.184491 -6.210474 0.918120 0
M  V30 27 H -2.782228 -4.372447 1.336551 0
M  V30 28 H -3.374307 -1.879057 2.953462 0
M  V30 29 H -2.481373 0.340880 2.765010 0
M  V30 30 H -1.796496 2.089515 1.619538 0
M  V30 31 H -1.565669 2.004385 -1.440320 0
M  V30 32 H -3.055764 2.365625 -0.575581 0
M  V30 33 H -1.675681 3.470013 -0.310360 0
M  V30 34 H 0.456209 0.765741 -1.224574 0
M  V30 35 H 5.030724 3.114979 -0.304268 0
M  V30 36 H 6.918596 1.678771 0.785836 0
M  V30 37 H 7.059616 0.289209 2.942533 0
M  V30 38 H 5.850146 1.668918 2.966161 0
M  V30 39 H 5.268256 -0.013736 2.679833 0
M  V30 40 H 6.501649 -0.511419 -0.680736 0
M  V30 41 H 6.144035 -1.296531 0.883176 0
M  V30 42 H 7.783334 -0.567010 0.540495 0
M  V30 43 H -1.634065 -0.315959 -1.347942 0
M  V30 44 H -2.548146 -2.596084 -1.140492 0
M  V30 END ATOM
M  V30 BEGIN BOND
M  V30 1 1 1 2
M  V30 2 2 2 3
M  V30 3 1 2 4
M  V30 4 1 4 5
M  V30 5 2 5 6
M  V30 6 1 6 7
M  V30 7 2 7 8
M  V30 8 1 8 9
M  V30 9 1 9 10
M  V30 10 1 9 11
M  V30 11 2 11 12
M  V30 12 1 11 13
M  V30 13 1 13 14
M  V30 14 2 14 15
M  V30 15 1 15 16
M  V30 16 2 16 17
M  V30 17 1 17 18
M  V30 18 1 18 19
M  V30 19 1 18 20
M  V30 20 1 17 21
M  V30 21 1 8 22
M  V30 22 2 22 23
M  V30 23 1 23 5
M  V30 24 1 21 14
M  V30 25 1 1 24
M  V30 26 1 1 25
M  V30 27 1 1 26
M  V30 28 1 4 27
M  V30 29 1 6 28
M  V30 30 1 7 29
M  V30 31 1 9 30
M  V30 32 1 10 31
M  V30 33 1 10 32
M  V30 34 1 10 33
M  V30 35 1 13 34
M  V30 36 1 16 35
M  V30 37 1 18 36
M  V30 38 1 19 37
M  V30 39 1 19 38
M  V30 40 1 19 39
M  V30 41 1 20 40
M  V30 42 1 20 41
M  V30 43 1 20 42
M  V30 44 1 22 43
M  V30 45 1 23 44
M  V30 END BOND
M  V30 END CTAB
M  END
>  <Dataset>  (971) 
ChEMBL_Kinases

>  <Ligand_Instance>  (971) 
nan

>  <PDB_ID>  (971) 
nan

>  <Standardized_SMILES>  (971) 
CC(=O)Nc1ccc(C(C)C(=O)Nc2ncc(C(C)C)s2)cc1

>  <Name>  (971) 
nan

>  <Pocket>  (971) 
nan

>  <ATP_Site>  (971) 
nan

>  <Peripheral>  (971) 
nan

>  <Num_H_Atoms_ProtBoundConf>  (971) 
nan

>  <Num_Resolved_Atoms>  (971) 
nan

>  <Num_Not_Resolved_Atoms>  (971) 
nan

$$$$
CHEMBL214339
     RDKit          3D

  0  0  0  0  0  0  0  0  0  0999 V3000
M  V30 BEGIN CTAB
M  V30 COUNTS 40 42 0 0 0
M  V30 BEGIN ATOM
M  V30 1 C -0.059164 -8.121660 -1.228013 0
M  V30 2 N -0.425249 -6.734954 -1.164337 0
M  V30 3 C 0.622764 -5.773839 -1.127797 0
M  V30 4 N 1.914857 -6.146894 -1.151981 0
M  V30 5 C 2.883955 -5.197039 -1.115456 0
M  V30 6 C 2.632833 -3.841198 -1.053706 0
M  V30 7 C 1.296624 -3.513705 -1.031289 0
M  V30 8 C 0.883095 -2.049980 -0.963797 0
M  V30 9 C -0.315604 -1.480609 -0.931393 0
M  V30 10 C -0.348717 -0.144710 -0.871833 0
M  V30 11 C 0.785407 0.537672 -0.848233 0
M  V30 12 N 0.939076 2.021855 -0.783180 0
M  V30 13 C 1.000014 2.475104 0.556852 0
M  V30 14 O 0.922257 1.625895 1.477919 0
M  V30 15 O 1.138871 3.789402 0.875174 0
M  V30 16 C 1.213281 4.388115 2.130946 0
M  V30 17 C 0.042272 4.182908 2.993802 0
M  V30 18 C -0.206305 3.205311 3.929595 0
M  V30 19 C -1.371538 3.161239 4.650245 0
M  V30 20 C -2.366645 4.099006 4.478066 0
M  V30 21 F -3.494284 3.998983 5.221794 0
M  V30 22 C -2.165454 5.097819 3.553273 0
M  V30 23 C -0.985255 5.121975 2.839776 0
M  V30 24 S 1.993450 -0.737545 -0.912061 0
M  V30 25 N 0.337490 -4.439062 -1.066782 0
M  V30 26 H 0.704418 -8.309123 -0.439466 0
M  V30 27 H 0.355809 -8.335275 -2.235907 0
M  V30 28 H -0.985840 -8.716887 -1.014201 0
M  V30 29 H -1.412996 -6.398458 -1.143641 0
M  V30 30 H 3.907592 -5.547852 -1.137070 0
M  V30 31 H 3.403529 -3.095075 -1.025065 0
M  V30 32 H -1.181620 -2.170490 -0.956916 0
M  V30 33 H -1.317362 0.392255 -0.842233 0
M  V30 34 H 0.999596 2.692594 -1.595149 0
M  V30 35 H 2.128634 4.028192 2.693374 0
M  V30 36 H 1.396486 5.480550 2.021186 0
M  V30 37 H 0.595118 2.488606 4.042834 0
M  V30 38 H -1.425342 2.330649 5.352555 0
M  V30 39 H -2.931527 5.843165 3.401917 0
M  V30 40 H -0.901048 5.944616 2.126022 0
M  V30 END ATOM
M  V30 BEGIN BOND
M  V30 1 1 1 2
M  V30 2 1 2 3
M  V30 3 2 3 4
M  V30 4 1 4 5
M  V30 5 2 5 6
M  V30 6 1 6 7
M  V30 7 1 7 8
M  V30 8 2 8 9
M  V30 9 1 9 10
M  V30 10 2 10 11
M  V30 11 1 11 12
M  V30 12 1 12 13
M  V30 13 2 13 14
M  V30 14 1 13 15
M  V30 15 1 15 16
M  V30 16 1 16 17
M  V30 17 2 17 18
M  V30 18 1 18 19
M  V30 19 2 19 20
M  V30 20 1 20 21
M  V30 21 1 20 22
M  V30 22 2 22 23
M  V30 23 1 11 24
M  V30 24 2 7 25
M  V30 25 1 25 3
M  V30 26 1 24 8
M  V30 27 1 23 17
M  V30 28 1 1 26
M  V30 29 1 1 27
M  V30 30 1 1 28
M  V30 31 1 2 29
M  V30 32 1 5 30
M  V30 33 1 6 31
M  V30 34 1 9 32
M  V30 35 1 10 33
M  V30 36 1 12 34
M  V30 37 1 16 35
M  V30 38 1 16 36
M  V30 39 1 18 37
M  V30 40 1 19 38
M  V30 41 1 22 39
M  V30 42 1 23 40
M  V30 END BOND
M  V30 END CTAB
M  END
>  <Dataset>  (972) 
ChEMBL_Kinases

>  <Ligand_Instance>  (972) 
nan

>  <PDB_ID>  (972) 
nan

>  <Standardized_SMILES>  (972) 
CNc1nccc(-c2ccc(NC(=O)OCc3ccc(F)cc3)s2)n1

>  <Name>  (972) 
nan

>  <Pocket>  (972) 
nan

>  <ATP_Site>  (972) 
nan

>  <Peripheral>  (972) 
nan

>  <Num_H_Atoms_ProtBoundConf>  (972) 
nan

>  <Num_Resolved_Atoms>  (972) 
nan

>  <Num_Not_Resolved_Atoms>  (972) 
nan

$$$$
CHEMBL214310
     RDKit          3D

  0  0  0  0  0  0  0  0  0  0999 V3000
M  V30 BEGIN CTAB
M  V30 COUNTS 40 44 0 0 0
M  V30 BEGIN ATOM
M  V30 1 F 0.106964 -5.307795 -0.578937 0
M  V30 2 C 0.949740 -4.401637 -0.032880 0
M  V30 3 C 1.259751 -4.486539 1.317225 0
M  V30 4 C 2.120358 -3.551051 1.847534 0
M  V30 5 C 2.635860 -2.570455 1.012209 0
M  V30 6 F 3.468614 -1.710429 1.650892 0
M  V30 7 C 2.337500 -2.471677 -0.332812 0
M  V30 8 C 2.981481 -1.371077 -1.037045 0
M  V30 9 N 3.869596 -1.401551 -2.067690 0
M  V30 10 C 4.156757 -0.118205 -2.349553 0
M  V30 11 O 3.483023 0.658284 -1.537769 0
M  V30 12 C 2.747272 -0.050942 -0.713296 0
M  V30 13 C 1.907109 0.593655 0.286190 0
M  V30 14 C 2.582879 1.355128 1.241199 0
M  V30 15 C 1.896958 2.009375 2.234277 0
M  V30 16 C 0.524579 1.875010 2.236195 0
M  V30 17 N -0.383800 2.401460 3.086962 0
M  V30 18 N -1.574681 1.992235 2.687766 0
M  V30 19 C -1.492660 1.210566 1.599467 0
M  V30 20 C -2.552690 0.524684 0.799131 0
M  V30 21 C -3.705327 1.456938 0.496646 0
M  V30 22 C -4.310838 1.008056 1.810591 0
M  V30 23 C -3.524144 -0.274851 1.644375 0
M  V30 24 N -0.162757 1.152319 1.335765 0
M  V30 25 C 0.524737 0.519713 0.372494 0
M  V30 26 C 1.472318 -3.418931 -0.847790 0
M  V30 27 H 0.806447 -5.287417 1.884386 0
M  V30 28 H 2.346965 -3.632707 2.892405 0
M  V30 29 H 4.811505 0.358685 -3.089536 0
M  V30 30 H 3.661908 1.453509 1.227939 0
M  V30 31 H 2.370780 2.606206 2.989906 0
M  V30 32 H -2.157428 -0.027968 -0.079574 0
M  V30 33 H -4.308699 1.105239 -0.369397 0
M  V30 34 H -3.473912 2.535410 0.457193 0
M  V30 35 H -5.411275 0.879954 1.786489 0
M  V30 36 H -3.916250 1.622220 2.627439 0
M  V30 37 H -3.112190 -0.698168 2.561683 0
M  V30 38 H -4.050423 -0.985982 0.968447 0
M  V30 39 H 0.054514 -0.093211 -0.404499 0
M  V30 40 H 1.262939 -3.306499 -1.908197 0
M  V30 END ATOM
M  V30 BEGIN BOND
M  V30 1 1 1 2
M  V30 2 2 2 3
M  V30 3 1 3 4
M  V30 4 2 4 5
M  V30 5 1 5 6
M  V30 6 1 5 7
M  V30 7 1 7 8
M  V30 8 1 8 9
M  V30 9 2 9 10
M  V30 10 1 10 11
M  V30 11 1 11 12
M  V30 12 1 12 13
M  V30 13 1 13 14
M  V30 14 2 14 15
M  V30 15 1 15 16
M  V30 16 2 16 17
M  V30 17 1 17 18
M  V30 18 2 18 19
M  V30 19 1 19 20
M  V30 20 1 20 21
M  V30 21 1 21 22
M  V30 22 1 22 23
M  V30 23 1 19 24
M  V30 24 1 24 25
M  V30 25 2 7 26
M  V30 26 1 26 2
M  V30 27 2 12 8
M  V30 28 2 25 13
M  V30 29 1 24 16
M  V30 30 1 23 20
M  V30 31 1 3 27
M  V30 32 1 4 28
M  V30 33 1 10 29
M  V30 34 1 14 30
M  V30 35 1 15 31
M  V30 36 1 20 32
M  V30 37 1 21 33
M  V30 38 1 21 34
M  V30 39 1 22 35
M  V30 40 1 22 36
M  V30 41 1 23 37
M  V30 42 1 23 38
M  V30 43 1 25 39
M  V30 44 1 26 40
M  V30 END BOND
M  V30 END CTAB
M  END
>  <Dataset>  (973) 
ChEMBL_Kinases

>  <Ligand_Instance>  (973) 
nan

>  <PDB_ID>  (973) 
nan

>  <Standardized_SMILES>  (973) 
Fc1ccc(F)c(-c2ncoc2-c2ccc3nnc(C4CCC4)n3c2)c1

>  <Name>  (973) 
nan

>  <Pocket>  (973) 
nan

>  <ATP_Site>  (973) 
nan

>  <Peripheral>  (973) 
nan

>  <Num_H_Atoms_ProtBoundConf>  (973) 
nan

>  <Num_Resolved_Atoms>  (973) 
nan

>  <Num_Not_Resolved_Atoms>  (973) 
nan

$$$$
CHEMBL214198
     RDKit          3D

  0  0  0  0  0  0  0  0  0  0999 V3000
M  V30 BEGIN CTAB
M  V30 COUNTS 40 43 0 0 0
M  V30 BEGIN ATOM
M  V30 1 C 0.483809 -4.898442 0.353376 0
M  V30 2 C -0.139134 -3.570531 0.703872 0
M  V30 3 C -1.436174 -3.857609 1.431423 0
M  V30 4 C 0.758708 -2.871303 1.654981 0
M  V30 5 N 1.130204 -3.403728 2.832662 0
M  V30 6 N 1.926633 -2.559148 3.462246 0
M  V30 7 C 2.066353 -1.476149 2.680703 0
M  V30 8 C 2.788570 -0.311228 2.870484 0
M  V30 9 C 2.740152 0.637588 1.877444 0
M  V30 10 C 1.989798 0.428863 0.724106 0
M  V30 11 C 1.943755 1.441012 -0.326120 0
M  V30 12 C 2.832896 2.061138 -1.179728 0
M  V30 13 N 2.143704 2.943828 -1.947411 0
M  V30 14 N 0.852457 2.884036 -1.589191 0
M  V30 15 C 0.697190 1.979873 -0.605744 0
M  V30 16 C -0.680075 1.857018 -0.162222 0
M  V30 17 C -0.831958 2.214763 1.165870 0
M  V30 18 C -2.096617 2.157116 1.761718 0
M  V30 19 F -2.361013 2.484017 3.055084 0
M  V30 20 C -3.163556 1.741377 0.999576 0
M  V30 21 C -2.996022 1.385384 -0.332379 0
M  V30 22 C -1.759495 1.440465 -0.919354 0
M  V30 23 F -1.459425 1.124081 -2.197997 0
M  V30 24 C 1.274676 -0.739431 0.550469 0
M  V30 25 N 1.345368 -1.650075 1.547152 0
M  V30 26 H -0.200313 -5.520470 -0.258442 0
M  V30 27 H 1.421189 -4.710537 -0.214677 0
M  V30 28 H 0.739553 -5.463798 1.274458 0
M  V30 29 H -0.331041 -2.989837 -0.196876 0
M  V30 30 H -2.138547 -4.316419 0.706633 0
M  V30 31 H -1.853287 -2.889252 1.774665 0
M  V30 32 H -1.289690 -4.506309 2.301031 0
M  V30 33 H 3.393366 -0.108601 3.767441 0
M  V30 34 H 3.270443 1.580207 1.933448 0
M  V30 35 H 3.867175 1.768009 -1.109163 0
M  V30 36 H 2.636112 3.526036 -2.670760 0
M  V30 37 H -0.067089 2.550906 1.844057 0
M  V30 38 H -4.159933 1.683739 1.426881 0
M  V30 39 H -3.813790 1.054208 -0.960311 0
M  V30 40 H 0.678528 -0.949243 -0.323579 0
M  V30 END ATOM
M  V30 BEGIN BOND
M  V30 1 1 1 2
M  V30 2 1 2 3
M  V30 3 1 2 4
M  V30 4 2 4 5
M  V30 5 1 5 6
M  V30 6 2 6 7
M  V30 7 1 7 8
M  V30 8 2 8 9
M  V30 9 1 9 10
M  V30 10 1 10 11
M  V30 11 2 11 12
M  V30 12 1 12 13
M  V30 13 1 13 14
M  V30 14 2 14 15
M  V30 15 1 15 16
M  V30 16 2 16 17
M  V30 17 1 17 18
M  V30 18 1 18 19
M  V30 19 2 18 20
M  V30 20 1 20 21
M  V30 21 2 21 22
M  V30 22 1 22 23
M  V30 23 2 10 24
M  V30 24 1 24 25
M  V30 25 1 25 4
M  V30 26 1 25 7
M  V30 27 1 15 11
M  V30 28 1 22 16
M  V30 29 1 1 26
M  V30 30 1 1 27
M  V30 31 1 1 28
M  V30 32 1 2 29
M  V30 33 1 3 30
M  V30 34 1 3 31
M  V30 35 1 3 32
M  V30 36 1 8 33
M  V30 37 1 9 34
M  V30 38 1 12 35
M  V30 39 1 13 36
M  V30 40 1 17 37
M  V30 41 1 20 38
M  V30 42 1 21 39
M  V30 43 1 24 40
M  V30 END BOND
M  V30 END CTAB
M  END
>  <Dataset>  (974) 
ChEMBL_Kinases

>  <Ligand_Instance>  (974) 
nan

>  <PDB_ID>  (974) 
nan

>  <Standardized_SMILES>  (974) 
CC(C)c1nnc2ccc(-c3c[nH]nc3-c3cc(F)ccc3F)cn12

>  <Name>  (974) 
nan

>  <Pocket>  (974) 
nan

>  <ATP_Site>  (974) 
nan

>  <Peripheral>  (974) 
nan

>  <Num_H_Atoms_ProtBoundConf>  (974) 
nan

>  <Num_Resolved_Atoms>  (974) 
nan

>  <Num_Not_Resolved_Atoms>  (974) 
nan

$$$$
CHEMBL214152
     RDKit          3D

  0  0  0  0  0  0  0  0  0  0999 V3000
M  V30 BEGIN CTAB
M  V30 COUNTS 40 43 0 0 0
M  V30 BEGIN ATOM
M  V30 1 C 0.535324 -4.854559 0.360879 0
M  V30 2 C -0.139691 -3.515030 0.687504 0
M  V30 3 C -1.481771 -3.790039 1.351568 0
M  V30 4 C 0.706717 -2.834245 1.705390 0
M  V30 5 N 0.996850 -3.376694 2.917413 0
M  V30 6 N 1.761495 -2.540538 3.589967 0
M  V30 7 C 1.958417 -1.468822 2.808725 0
M  V30 8 C 2.660628 -0.287500 2.962667 0
M  V30 9 C 2.707532 0.668267 1.994109 0
M  V30 10 C 2.040453 0.485267 0.799600 0
M  V30 11 C 1.998889 1.419910 -0.341060 0
M  V30 12 N 2.847588 1.959787 -1.204920 0
M  V30 13 C 2.176990 2.768309 -2.048250 0
M  V30 14 N 0.856769 2.734818 -1.701469 0
M  V30 15 C 0.737248 1.894360 -0.634934 0
M  V30 16 C -0.661934 1.797722 -0.188808 0
M  V30 17 C -0.811898 2.279219 1.097460 0
M  V30 18 C -2.068236 2.272544 1.694558 0
M  V30 19 F -2.398509 2.700938 2.936075 0
M  V30 20 C -3.131011 1.770842 0.949447 0
M  V30 21 C -2.939774 1.298780 -0.333027 0
M  V30 22 C -1.706960 1.304943 -0.919785 0
M  V30 23 F -1.405290 0.868022 -2.166959 0
M  V30 24 C 1.341303 -0.695243 0.651177 0
M  V30 25 N 1.314883 -1.627727 1.636470 0
M  V30 26 H -0.168129 -5.529445 -0.175971 0
M  V30 27 H 1.446186 -4.621297 -0.215599 0
M  V30 28 H 0.825385 -5.344425 1.320329 0
M  V30 29 H -0.252773 -2.906062 -0.211478 0
M  V30 30 H -2.184411 -4.137669 0.566197 0
M  V30 31 H -1.844037 -2.846639 1.812074 0
M  V30 32 H -1.374586 -4.570584 2.124919 0
M  V30 33 H 3.188493 -0.125603 3.888919 0
M  V30 34 H 3.251190 1.619765 2.071334 0
M  V30 35 H 3.855326 1.691684 -1.106257 0
M  V30 36 H 2.733153 3.288190 -2.820200 0
M  V30 37 H -0.047366 2.683887 1.740458 0
M  V30 38 H -4.161178 1.712583 1.306001 0
M  V30 39 H -3.758855 0.900378 -0.936055 0
M  V30 40 H 0.799071 -0.896540 -0.262636 0
M  V30 END ATOM
M  V30 BEGIN BOND
M  V30 1 1 1 2
M  V30 2 1 2 3
M  V30 3 1 2 4
M  V30 4 2 4 5
M  V30 5 1 5 6
M  V30 6 2 6 7
M  V30 7 1 7 8
M  V30 8 2 8 9
M  V30 9 1 9 10
M  V30 10 1 10 11
M  V30 11 1 11 12
M  V30 12 1 12 13
M  V30 13 2 13 14
M  V30 14 1 14 15
M  V30 15 1 15 16
M  V30 16 2 16 17
M  V30 17 1 17 18
M  V30 18 1 18 19
M  V30 19 2 18 20
M  V30 20 1 20 21
M  V30 21 2 21 22
M  V30 22 1 22 23
M  V30 23 2 10 24
M  V30 24 1 24 25
M  V30 25 1 25 4
M  V30 26 1 25 7
M  V30 27 2 15 11
M  V30 28 1 22 16
M  V30 29 1 1 26
M  V30 30 1 1 27
M  V30 31 1 1 28
M  V30 32 1 2 29
M  V30 33 1 3 30
M  V30 34 1 3 31
M  V30 35 1 3 32
M  V30 36 1 8 33
M  V30 37 1 9 34
M  V30 38 1 12 35
M  V30 39 1 13 36
M  V30 40 1 17 37
M  V30 41 1 20 38
M  V30 42 1 21 39
M  V30 43 1 24 40
M  V30 END BOND
M  V30 END CTAB
M  END
>  <Dataset>  (975) 
ChEMBL_Kinases

>  <Ligand_Instance>  (975) 
nan

>  <PDB_ID>  (975) 
nan

>  <Standardized_SMILES>  (975) 
CC(C)c1nnc2ccc(-c3[nH]cnc3-c3cc(F)ccc3F)cn12

>  <Name>  (975) 
nan

>  <Pocket>  (975) 
nan

>  <ATP_Site>  (975) 
nan

>  <Peripheral>  (975) 
nan

>  <Num_H_Atoms_ProtBoundConf>  (975) 
nan

>  <Num_Resolved_Atoms>  (975) 
nan

>  <Num_Not_Resolved_Atoms>  (975) 
nan

$$$$
CHEMBL214138
     RDKit          3D

  0  0  0  0  0  0  0  0  0  0999 V3000
M  V30 BEGIN CTAB
M  V30 COUNTS 54 57 0 0 0
M  V30 BEGIN ATOM
M  V30 1 C 0.609511 -0.182402 3.154590 0
M  V30 2 C 2.042265 -0.707729 3.267151 0
M  V30 3 C 2.612058 -0.084380 4.551526 0
M  V30 4 C 2.033712 -2.198068 3.347308 0
M  V30 5 C 2.892007 -0.226081 2.124393 0
M  V30 6 N 2.436584 -0.621048 0.821576 0
M  V30 7 C 1.190530 -0.371841 0.189312 0
M  V30 8 N 0.711063 0.853321 -0.116018 0
M  V30 9 C -0.481735 0.981767 -0.725450 0
M  V30 10 C -0.881966 2.353771 -1.000564 0
M  V30 11 C -2.045965 2.750776 -0.377982 0
M  V30 12 C -2.550405 4.032674 -0.525767 0
M  V30 13 C -1.888060 4.970243 -1.316685 0
M  V30 14 C -0.707154 4.560203 -1.943813 0
M  V30 15 C -0.215115 3.270820 -1.785589 0
M  V30 16 Cl 1.262304 2.725842 -2.550941 0
M  V30 17 C -1.292609 -0.099413 -1.081017 0
M  V30 18 C -0.764199 -1.319512 -0.749790 0
M  V30 19 N 0.430347 -1.443459 -0.139284 0
M  V30 20 N -1.397245 -2.572605 -1.030448 0
M  V30 21 C -0.809818 -3.808414 -0.646952 0
M  V30 22 C 0.014107 -4.646571 -1.351258 0
M  V30 23 Cl 0.366807 -4.121391 -2.962885 0
M  V30 24 C 0.472269 -5.796384 -0.736121 0
M  V30 25 C 0.093344 -6.071017 0.559931 0
M  V30 26 C -0.732625 -5.259645 1.305221 0
M  V30 27 C -1.187215 -4.099540 0.667363 0
M  V30 28 Cl -2.241595 -3.109445 1.686141 0
M  V30 29 C -2.647329 -2.558446 -1.694837 0
M  V30 30 O -3.284299 -3.624512 -1.986029 0
M  V30 31 N -3.133076 -1.271521 -2.012202 0
M  V30 32 C -2.583572 0.032325 -1.767949 0
M  V30 33 H 0.043881 -0.924380 2.564052 0
M  V30 34 H 0.126446 -0.181410 4.160158 0
M  V30 35 H 0.626592 0.802673 2.688075 0
M  V30 36 H 2.915515 -0.884166 5.261899 0
M  V30 37 H 3.509165 0.543794 4.323446 0
M  V30 38 H 1.888882 0.547150 5.070163 0
M  V30 39 H 2.533455 -2.578266 4.281098 0
M  V30 40 H 2.609928 -2.665062 2.518773 0
M  V30 41 H 0.980543 -2.579282 3.314500 0
M  V30 42 H 3.071335 0.876855 2.176710 0
M  V30 43 H 3.919116 -0.683933 2.230954 0
M  V30 44 H 3.020593 -1.184756 0.132951 0
M  V30 45 H -2.734312 2.228891 0.294306 0
M  V30 46 H -3.445062 4.478051 -0.105471 0
M  V30 47 H -2.186785 5.989917 -1.504798 0
M  V30 48 H -0.155516 5.253167 -2.564615 0
M  V30 49 H 1.122846 -6.426599 -1.336965 0
M  V30 50 H 0.467129 -6.988701 1.036814 0
M  V30 51 H -1.005973 -5.519169 2.326648 0
M  V30 52 H -4.060757 -1.160396 -2.520524 0
M  V30 53 H -3.307499 0.715064 -1.321465 0
M  V30 54 H -2.371494 0.478789 -2.790941 0
M  V30 END ATOM
M  V30 BEGIN BOND
M  V30 1 1 1 2
M  V30 2 1 2 3
M  V30 3 1 2 4
M  V30 4 1 2 5
M  V30 5 1 5 6
M  V30 6 1 6 7
M  V30 7 2 7 8
M  V30 8 1 8 9
M  V30 9 1 9 10
M  V30 10 2 10 11
M  V30 11 1 11 12
M  V30 12 2 12 13
M  V30 13 1 13 14
M  V30 14 2 14 15
M  V30 15 1 15 16
M  V30 16 2 9 17
M  V30 17 1 17 18
M  V30 18 2 18 19
M  V30 19 1 18 20
M  V30 20 1 20 21
M  V30 21 2 21 22
M  V30 22 1 22 23
M  V30 23 1 22 24
M  V30 24 2 24 25
M  V30 25 1 25 26
M  V30 26 2 26 27
M  V30 27 1 27 28
M  V30 28 1 20 29
M  V30 29 2 29 30
M  V30 30 1 29 31
M  V30 31 1 31 32
M  V30 32 1 19 7
M  V30 33 1 27 21
M  V30 34 1 15 10
M  V30 35 1 32 17
M  V30 36 1 1 33
M  V30 37 1 1 34
M  V30 38 1 1 35
M  V30 39 1 3 36
M  V30 40 1 3 37
M  V30 41 1 3 38
M  V30 42 1 4 39
M  V30 43 1 4 40
M  V30 44 1 4 41
M  V30 45 1 5 42
M  V30 46 1 5 43
M  V30 47 1 6 44
M  V30 48 1 11 45
M  V30 49 1 12 46
M  V30 50 1 13 47
M  V30 51 1 14 48
M  V30 52 1 24 49
M  V30 53 1 25 50
M  V30 54 1 26 51
M  V30 55 1 31 52
M  V30 56 1 32 53
M  V30 57 1 32 54
M  V30 END BOND
M  V30 END CTAB
M  END
>  <Dataset>  (976) 
ChEMBL_Kinases

>  <Ligand_Instance>  (976) 
nan

>  <PDB_ID>  (976) 
nan

>  <Standardized_SMILES>  (976) 
CC(C)(C)CNc1nc(-c2ccccc2Cl)c2c(n1)N(c1c(Cl)cccc1Cl)C(=O)NC2

>  <Name>  (976) 
nan

>  <Pocket>  (976) 
nan

>  <ATP_Site>  (976) 
nan

>  <Peripheral>  (976) 
nan

>  <Num_H_Atoms_ProtBoundConf>  (976) 
nan

>  <Num_Resolved_Atoms>  (976) 
nan

>  <Num_Not_Resolved_Atoms>  (976) 
nan

$$$$
CHEMBL214137
     RDKit          3D

  0  0  0  0  0  0  0  0  0  0999 V3000
M  V30 BEGIN CTAB
M  V30 COUNTS 52 56 0 0 0
M  V30 BEGIN ATOM
M  V30 1 C 4.870476 0.177964 3.249189 0
M  V30 2 C 3.852260 -0.679330 3.990701 0
M  V30 3 C 2.477395 -0.095153 3.901749 0
M  V30 4 C 1.974151 0.034986 2.476593 0
M  V30 5 C 0.568986 0.638933 2.493798 0
M  V30 6 N 0.083633 0.764068 1.112394 0
M  V30 7 C 0.235676 1.827230 0.273260 0
M  V30 8 C 0.885376 3.021025 0.551867 0
M  V30 9 C 0.957962 4.015545 -0.410585 0
M  V30 10 C 0.360977 3.774227 -1.653778 0
M  V30 11 O 0.431603 4.768239 -2.620644 0
M  V30 12 C -0.263923 2.565385 -1.851804 0
M  V30 13 C -0.359975 1.561857 -0.938772 0
M  V30 14 C -0.872746 0.308601 -0.799743 0
M  V30 15 C -1.565582 -0.451123 -1.689129 0
M  V30 16 C -1.997823 -1.706089 -1.342888 0
M  V30 17 C -1.725524 -2.205153 -0.073028 0
M  V30 18 C -2.161910 -3.531987 0.345625 0
M  V30 19 C -3.380160 -3.784356 0.954073 0
M  V30 20 C -3.721308 -5.082958 1.323755 0
M  V30 21 C -2.875116 -6.151804 1.103056 0
M  V30 22 C -1.665251 -5.851831 0.490787 0
M  V30 23 C -1.278118 -4.570080 0.102419 0
M  V30 24 Cl 0.261189 -4.321509 -0.654977 0
M  V30 25 C -1.022695 -1.431713 0.825998 0
M  V30 26 C -0.605227 -0.176150 0.441419 0
M  V30 27 C -2.730529 -2.396844 -2.413488 0
M  V30 28 O -3.232128 -3.531394 -2.382973 0
M  V30 29 N -2.711306 -1.431981 -3.477746 0
M  V30 30 C -2.017456 -0.276124 -3.042821 0
M  V30 31 O -1.931779 0.634635 -3.875280 0
M  V30 32 H 4.672424 0.240879 2.166755 0
M  V30 33 H 4.897138 1.197532 3.714957 0
M  V30 34 H 5.852849 -0.323042 3.384136 0
M  V30 35 H 4.153453 -0.639762 5.051408 0
M  V30 36 H 3.933331 -1.685163 3.566695 0
M  V30 37 H 1.793949 -0.833837 4.394314 0
M  V30 38 H 2.449323 0.856508 4.430687 0
M  V30 39 H 1.847767 -0.957376 1.998188 0
M  V30 40 H 2.622556 0.649987 1.833320 0
M  V30 41 H 0.606640 1.630304 2.962937 0
M  V30 42 H -0.110010 0.005109 3.085029 0
M  V30 43 H 1.336606 3.190616 1.506316 0
M  V30 44 H 1.474056 4.928562 -0.148568 0
M  V30 45 H 0.458152 4.511125 -3.619399 0
M  V30 46 H -0.686572 2.463988 -2.812063 0
M  V30 47 H -4.051325 -2.963588 1.133498 0
M  V30 48 H -4.683893 -5.280314 1.804171 0
M  V30 49 H -3.091793 -7.174977 1.370047 0
M  V30 50 H -0.982977 -6.662368 0.304529 0
M  V30 51 H -0.781493 -1.777968 1.840323 0
M  V30 52 H -3.186969 -1.689875 -4.392622 0
M  V30 END ATOM
M  V30 BEGIN BOND
M  V30 1 1 1 2
M  V30 2 1 2 3
M  V30 3 1 3 4
M  V30 4 1 4 5
M  V30 5 1 5 6
M  V30 6 1 6 7
M  V30 7 2 7 8
M  V30 8 1 8 9
M  V30 9 2 9 10
M  V30 10 1 10 11
M  V30 11 1 10 12
M  V30 12 2 12 13
M  V30 13 1 13 14
M  V30 14 2 14 15
M  V30 15 1 15 16
M  V30 16 2 16 17
M  V30 17 1 17 18
M  V30 18 2 18 19
M  V30 19 1 19 20
M  V30 20 2 20 21
M  V30 21 1 21 22
M  V30 22 2 22 23
M  V30 23 1 23 24
M  V30 24 1 17 25
M  V30 25 2 25 26
M  V30 26 1 16 27
M  V30 27 2 27 28
M  V30 28 1 27 29
M  V30 29 1 29 30
M  V30 30 2 30 31
M  V30 31 1 26 6
M  V30 32 1 13 7
M  V30 33 1 26 14
M  V30 34 1 30 15
M  V30 35 1 23 18
M  V30 36 1 1 32
M  V30 37 1 1 33
M  V30 38 1 1 34
M  V30 39 1 2 35
M  V30 40 1 2 36
M  V30 41 1 3 37
M  V30 42 1 3 38
M  V30 43 1 4 39
M  V30 44 1 4 40
M  V30 45 1 5 41
M  V30 46 1 5 42
M  V30 47 1 8 43
M  V30 48 1 9 44
M  V30 49 1 11 45
M  V30 50 1 12 46
M  V30 51 1 19 47
M  V30 52 1 20 48
M  V30 53 1 21 49
M  V30 54 1 22 50
M  V30 55 1 25 51
M  V30 56 1 29 52
M  V30 END BOND
M  V30 END CTAB
M  END
>  <Dataset>  (977) 
ChEMBL_Kinases

>  <Ligand_Instance>  (977) 
nan

>  <PDB_ID>  (977) 
nan

>  <Standardized_SMILES>  (977) 
CCCCCn1c2ccc(O)cc2c2c3c(c(-c4ccccc4Cl)cc21)C(=O)NC3=O

>  <Name>  (977) 
nan

>  <Pocket>  (977) 
nan

>  <ATP_Site>  (977) 
nan

>  <Peripheral>  (977) 
nan

>  <Num_H_Atoms_ProtBoundConf>  (977) 
nan

>  <Num_Resolved_Atoms>  (977) 
nan

>  <Num_Not_Resolved_Atoms>  (977) 
nan

$$$$
CHEMBL214114
     RDKit          3D

  0  0  0  0  0  0  0  0  0  0999 V3000
M  V30 BEGIN CTAB
M  V30 COUNTS 37 41 0 0 0
M  V30 BEGIN ATOM
M  V30 1 F -0.614186 -3.841299 3.339016 0
M  V30 2 C -0.102917 -3.720590 2.070574 0
M  V30 3 C -0.744315 -4.323168 1.032909 0
M  V30 4 C -0.227797 -4.200728 -0.245614 0
M  V30 5 C 0.919097 -3.470889 -0.415850 0
M  V30 6 F 1.474196 -3.313516 -1.639570 0
M  V30 7 C 1.579260 -2.851972 0.644668 0
M  V30 8 C 2.791632 -2.065392 0.552479 0
M  V30 9 N 4.060945 -2.359906 0.141476 0
M  V30 10 C 4.821138 -1.233275 0.261842 0
M  V30 11 O 4.061176 -0.257533 0.732781 0
M  V30 12 C 2.831523 -0.731267 0.917434 0
M  V30 13 C 1.852696 0.189626 1.429533 0
M  V30 14 C 1.951727 0.817030 2.654752 0
M  V30 15 C 0.915778 1.679405 2.997822 0
M  V30 16 C -0.133314 1.860596 2.118629 0
M  V30 17 N -1.230516 2.636365 2.238109 0
M  V30 18 N -1.983865 2.510584 1.153244 0
M  V30 19 C -1.367464 1.641706 0.318641 0
M  V30 20 C -1.852747 1.201898 -1.016015 0
M  V30 21 C -2.676453 2.122408 -1.837414 0
M  V30 22 C -3.331480 0.940834 -1.132389 0
M  V30 23 N -0.217539 1.244240 0.929930 0
M  V30 24 C 0.786405 0.394619 0.572846 0
M  V30 25 C 1.065929 -2.972863 1.919914 0
M  V30 26 H -1.654480 -4.888034 1.251497 0
M  V30 27 H -0.729038 -4.672709 -1.062853 0
M  V30 28 H 5.831810 -1.443689 -0.058645 0
M  V30 29 H 2.814075 0.612434 3.278820 0
M  V30 30 H 0.967155 2.181608 3.946619 0
M  V30 31 H -1.201214 0.485358 -1.540113 0
M  V30 32 H -2.615631 2.022738 -2.938157 0
M  V30 33 H -2.950241 3.143254 -1.486180 0
M  V30 34 H -3.690116 0.096735 -1.775113 0
M  V30 35 H -3.995177 1.204734 -0.304937 0
M  V30 36 H 0.667213 -0.075458 -0.396622 0
M  V30 37 H 1.524382 -2.520309 2.788911 0
M  V30 END ATOM
M  V30 BEGIN BOND
M  V30 1 1 1 2
M  V30 2 2 2 3
M  V30 3 1 3 4
M  V30 4 2 4 5
M  V30 5 1 5 6
M  V30 6 1 5 7
M  V30 7 1 7 8
M  V30 8 1 8 9
M  V30 9 2 9 10
M  V30 10 1 10 11
M  V30 11 1 11 12
M  V30 12 1 12 13
M  V30 13 1 13 14
M  V30 14 2 14 15
M  V30 15 1 15 16
M  V30 16 2 16 17
M  V30 17 1 17 18
M  V30 18 2 18 19
M  V30 19 1 19 20
M  V30 20 1 20 21
M  V30 21 1 21 22
M  V30 22 1 19 23
M  V30 23 1 23 24
M  V30 24 2 7 25
M  V30 25 1 25 2
M  V30 26 2 12 8
M  V30 27 2 24 13
M  V30 28 1 23 16
M  V30 29 1 22 20
M  V30 30 1 3 26
M  V30 31 1 4 27
M  V30 32 1 10 28
M  V30 33 1 14 29
M  V30 34 1 15 30
M  V30 35 1 20 31
M  V30 36 1 21 32
M  V30 37 1 21 33
M  V30 38 1 22 34
M  V30 39 1 22 35
M  V30 40 1 24 36
M  V30 41 1 25 37
M  V30 END BOND
M  V30 END CTAB
M  END
>  <Dataset>  (978) 
ChEMBL_Kinases

>  <Ligand_Instance>  (978) 
nan

>  <PDB_ID>  (978) 
nan

>  <Standardized_SMILES>  (978) 
Fc1ccc(F)c(-c2ncoc2-c2ccc3nnc(C4CC4)n3c2)c1

>  <Name>  (978) 
nan

>  <Pocket>  (978) 
nan

>  <ATP_Site>  (978) 
nan

>  <Peripheral>  (978) 
nan

>  <Num_H_Atoms_ProtBoundConf>  (978) 
nan

>  <Num_Resolved_Atoms>  (978) 
nan

>  <Num_Not_Resolved_Atoms>  (978) 
nan

$$$$
CHEMBL2140523
     RDKit          3D

  0  0  0  0  0  0  0  0  0  0999 V3000
M  V30 BEGIN CTAB
M  V30 COUNTS 65 69 0 0 0
M  V30 BEGIN ATOM
M  V30 1 C 2.053149 -2.372775 5.184997 0
M  V30 2 O 0.838926 -2.123099 4.501126 0
M  V30 3 C 0.847605 -1.194202 3.443643 0
M  V30 4 C 1.988515 -0.527910 3.061888 0
M  V30 5 C 2.020103 0.385158 2.031755 0
M  V30 6 O 3.201513 1.013919 1.698513 0
M  V30 7 C 3.212760 1.984354 0.722537 0
M  V30 8 C 4.194782 3.089374 0.811890 0
M  V30 9 C 4.018079 3.899281 -0.488500 0
M  V30 10 N 2.725015 3.571185 -1.042478 0
M  V30 11 C 2.184478 4.530527 -1.930100 0
M  V30 12 C 2.673592 2.256734 -1.618256 0
M  V30 13 C 3.447516 1.340999 -0.668858 0
M  V30 14 C 0.807540 0.583924 1.404355 0
M  V30 15 C -0.340312 -0.080266 1.781131 0
M  V30 16 C -0.355661 -0.990238 2.812372 0
M  V30 17 N -1.532834 -1.688844 3.193649 0
M  V30 18 C -2.718579 -1.441788 2.418625 0
M  V30 19 N -3.847841 -0.718975 2.590177 0
M  V30 20 C -4.787172 -0.707705 1.601726 0
M  V30 21 C -4.520768 -1.441390 0.480690 0
M  V30 22 C -3.391413 -2.192224 0.253875 0
M  V30 23 N -2.545476 -2.130093 1.283620 0
M  V30 24 N -3.517043 -2.755519 -0.968453 0
M  V30 25 C -2.420542 -3.575769 -1.390905 0
M  V30 26 C -1.147506 -2.746848 -1.462112 0
M  V30 27 C -0.049584 -3.694354 -1.124332 0
M  V30 28 C -0.665780 -5.033658 -0.930138 0
M  V30 29 C -2.102719 -4.755094 -0.545122 0
M  V30 30 C -4.701349 -2.340047 -1.447260 0
M  V30 31 O -4.995944 -2.775897 -2.604388 0
M  V30 32 N -5.342404 -1.533498 -0.585202 0
M  V30 33 C -6.626936 -0.969086 -0.897294 0
M  V30 34 H 1.993214 -3.294328 5.796600 0
M  V30 35 H 2.308233 -1.483825 5.801020 0
M  V30 36 H 2.908083 -2.549387 4.484480 0
M  V30 37 H 2.916198 -0.718498 3.586372 0
M  V30 38 H 2.176746 2.436200 0.690714 0
M  V30 39 H 3.985544 3.734860 1.679521 0
M  V30 40 H 5.261951 2.730542 0.814163 0
M  V30 41 H 4.006459 4.962553 -0.212935 0
M  V30 42 H 4.857070 3.704292 -1.171838 0
M  V30 43 H 1.094763 4.643451 -1.647586 0
M  V30 44 H 2.686187 5.508287 -1.770854 0
M  V30 45 H 2.201561 4.184052 -2.961850 0
M  V30 46 H 1.610291 1.924692 -1.535314 0
M  V30 47 H 3.041290 2.195878 -2.662146 0
M  V30 48 H 4.526769 1.359302 -0.890836 0
M  V30 49 H 3.075592 0.299109 -0.679531 0
M  V30 50 H 0.658168 1.255366 0.578710 0
M  V30 51 H -1.303707 0.080910 1.277071 0
M  V30 52 H -1.482786 -2.327838 3.996391 0
M  V30 53 H -5.648056 -0.109550 1.824198 0
M  V30 54 H -2.630392 -3.922219 -2.421045 0
M  V30 55 H -0.989372 -2.265897 -2.437698 0
M  V30 56 H -1.223979 -1.903113 -0.725081 0
M  V30 57 H 0.413293 -3.344466 -0.167193 0
M  V30 58 H 0.729359 -3.695334 -1.922764 0
M  V30 59 H -0.159100 -5.551021 -0.074910 0
M  V30 60 H -0.589835 -5.642674 -1.851585 0
M  V30 61 H -2.118256 -4.620005 0.528610 0
M  V30 62 H -2.699470 -5.655664 -0.843839 0
M  V30 63 H -6.624704 -0.648616 -1.973984 0
M  V30 64 H -7.444807 -1.708711 -0.767214 0
M  V30 65 H -6.821081 -0.052331 -0.308031 0
M  V30 END ATOM
M  V30 BEGIN BOND
M  V30 1 1 1 2
M  V30 2 1 2 3
M  V30 3 2 3 4
M  V30 4 1 4 5
M  V30 5 1 5 6
M  V30 6 1 6 7
M  V30 7 1 7 8
M  V30 8 1 8 9
M  V30 9 1 9 10
M  V30 10 1 10 11
M  V30 11 1 10 12
M  V30 12 1 12 13
M  V30 13 2 5 14
M  V30 14 1 14 15
M  V30 15 2 15 16
M  V30 16 1 16 17
M  V30 17 1 17 18
M  V30 18 2 18 19
M  V30 19 1 19 20
M  V30 20 2 20 21
M  V30 21 1 21 22
M  V30 22 2 22 23
M  V30 23 1 22 24
M  V30 24 1 24 25
M  V30 25 1 25 26
M  V30 26 1 26 27
M  V30 27 1 27 28
M  V30 28 1 28 29
M  V30 29 1 24 30
M  V30 30 2 30 31
M  V30 31 1 30 32
M  V30 32 1 32 33
M  V30 33 1 16 3
M  V30 34 1 23 18
M  V30 35 1 29 25
M  V30 36 1 13 7
M  V30 37 1 32 21
M  V30 38 1 1 34
M  V30 39 1 1 35
M  V30 40 1 1 36
M  V30 41 1 4 37
M  V30 42 1 7 38
M  V30 43 1 8 39
M  V30 44 1 8 40
M  V30 45 1 9 41
M  V30 46 1 9 42
M  V30 47 1 11 43
M  V30 48 1 11 44
M  V30 49 1 11 45
M  V30 50 1 12 46
M  V30 51 1 12 47
M  V30 52 1 13 48
M  V30 53 1 13 49
M  V30 54 1 14 50
M  V30 55 1 15 51
M  V30 56 1 17 52
M  V30 57 1 20 53
M  V30 58 1 25 54
M  V30 59 1 26 55
M  V30 60 1 26 56
M  V30 61 1 27 57
M  V30 62 1 27 58
M  V30 63 1 28 59
M  V30 64 1 28 60
M  V30 65 1 29 61
M  V30 66 1 29 62
M  V30 67 1 33 63
M  V30 68 1 33 64
M  V30 69 1 33 65
M  V30 END BOND
M  V30 END CTAB
M  END
>  <Dataset>  (979) 
ChEMBL_Kinases

>  <Ligand_Instance>  (979) 
nan

>  <PDB_ID>  (979) 
nan

>  <Standardized_SMILES>  (979) 
COc1cc(OC2CCN(C)CC2)ccc1Nc1ncc2c(n1)n(C1CCCC1)c(=O)n2C

>  <Name>  (979) 
nan

>  <Pocket>  (979) 
nan

>  <ATP_Site>  (979) 
nan

>  <Peripheral>  (979) 
nan

>  <Num_H_Atoms_ProtBoundConf>  (979) 
nan

>  <Num_Resolved_Atoms>  (979) 
nan

>  <Num_Not_Resolved_Atoms>  (979) 
nan

$$$$
CHEMBL214032
     RDKit          3D

  0  0  0  0  0  0  0  0  0  0999 V3000
M  V30 BEGIN CTAB
M  V30 COUNTS 47 49 0 0 0
M  V30 BEGIN ATOM
M  V30 1 C 2.251562 -0.828927 -1.833490 0
M  V30 2 C 3.522808 -0.153409 -1.368578 0
M  V30 3 C 4.364836 0.123665 -2.611117 0
M  V30 4 O 4.710516 -1.110763 -3.147746 0
M  V30 5 N 3.137663 1.110623 -0.770059 0
M  V30 6 C 2.661230 1.038022 0.422049 0
M  V30 7 N 2.571197 -0.234768 0.995367 0
M  V30 8 C 2.201604 2.125430 1.267206 0
M  V30 9 C 2.314548 3.357040 0.669192 0
M  V30 10 O 2.763160 3.803772 -0.560618 0
M  V30 11 N 1.904045 4.485246 1.398262 0
M  V30 12 S 1.336731 3.852137 2.969977 0
M  V30 13 C 1.699371 2.082263 2.525523 0
M  V30 14 N 1.500832 0.923611 3.296175 0
M  V30 15 C 0.217827 0.315653 3.263450 0
M  V30 16 C -0.102747 -0.850723 3.930710 0
M  V30 17 C -1.344498 -1.449098 3.913588 0
M  V30 18 C -2.365206 -0.858787 3.181375 0
M  V30 19 O -3.649682 -1.371337 3.093918 0
M  V30 20 C -4.037664 -2.239597 2.113255 0
M  V30 21 C -3.115429 -2.635188 1.156147 0
M  V30 22 C -3.398312 -3.505125 0.123526 0
M  V30 23 C -4.692765 -4.010077 0.048362 0
M  V30 24 C -5.634775 -3.637751 0.983668 0
M  V30 25 Cl -7.297661 -4.201676 0.996531 0
M  V30 26 C -5.301619 -2.751336 2.015305 0
M  V30 27 Cl -6.493462 -2.266637 3.228053 0
M  V30 28 C -2.098854 0.304872 2.497868 0
M  V30 29 C -0.844468 0.870504 2.540914 0
M  V30 30 H 2.080009 -0.618177 -2.921678 0
M  V30 31 H 2.294391 -1.929395 -1.700398 0
M  V30 32 H 1.395201 -0.396425 -1.280247 0
M  V30 33 H 4.028843 -0.823225 -0.670314 0
M  V30 34 H 3.702144 0.650793 -3.354896 0
M  V30 35 H 5.236776 0.746763 -2.416080 0
M  V30 36 H 3.889359 -1.624207 -3.353803 0
M  V30 37 H 2.508998 -1.111663 1.552415 0
M  V30 38 H 2.486634 -1.202831 0.697663 0
M  V30 39 H 2.210712 3.555351 -1.376711 0
M  V30 40 H 2.202570 0.445924 3.902366 0
M  V30 41 H 0.674050 -1.341652 4.516605 0
M  V30 42 H -1.546029 -2.353153 4.445737 0
M  V30 43 H -2.093644 -2.276613 1.161006 0
M  V30 44 H -2.703246 -3.823178 -0.623714 0
M  V30 45 H -5.061345 -4.710301 -0.717491 0
M  V30 46 H -2.857022 0.795744 1.919326 0
M  V30 47 H -0.639102 1.784333 2.003001 0
M  V30 END ATOM
M  V30 BEGIN BOND
M  V30 1 1 1 2
M  V30 2 1 2 3
M  V30 3 1 3 4
M  V30 4 1 2 5
M  V30 5 2 5 6
M  V30 6 1 6 7
M  V30 7 1 6 8
M  V30 8 1 8 9
M  V30 9 1 9 10
M  V30 10 2 9 11
M  V30 11 1 11 12
M  V30 12 1 12 13
M  V30 13 1 13 14
M  V30 14 1 14 15
M  V30 15 2 15 16
M  V30 16 1 16 17
M  V30 17 2 17 18
M  V30 18 1 18 19
M  V30 19 1 19 20
M  V30 20 2 20 21
M  V30 21 1 21 22
M  V30 22 2 22 23
M  V30 23 1 23 24
M  V30 24 1 24 25
M  V30 25 2 24 26
M  V30 26 1 26 27
M  V30 27 1 18 28
M  V30 28 2 28 29
M  V30 29 2 13 8
M  V30 30 1 29 15
M  V30 31 1 26 20
M  V30 32 1 1 30
M  V30 33 1 1 31
M  V30 34 1 1 32
M  V30 35 1 2 33
M  V30 36 1 3 34
M  V30 37 1 3 35
M  V30 38 1 4 36
M  V30 39 1 7 37
M  V30 40 1 7 38
M  V30 41 1 10 39
M  V30 42 1 14 40
M  V30 43 1 16 41
M  V30 44 1 17 42
M  V30 45 1 21 43
M  V30 46 1 22 44
M  V30 47 1 23 45
M  V30 48 1 28 46
M  V30 49 1 29 47
M  V30 END BOND
M  V30 END CTAB
M  END
>  <Dataset>  (980) 
ChEMBL_Kinases

>  <Ligand_Instance>  (980) 
nan

>  <PDB_ID>  (980) 
nan

>  <Standardized_SMILES>  (980) 
CC(CO)/N=C(\N)c1c(O)nsc1Nc1ccc(Oc2cccc(Cl)c2Cl)cc1

>  <Name>  (980) 
nan

>  <Pocket>  (980) 
nan

>  <ATP_Site>  (980) 
nan

>  <Peripheral>  (980) 
nan

>  <Num_H_Atoms_ProtBoundConf>  (980) 
nan

>  <Num_Resolved_Atoms>  (980) 
nan

>  <Num_Not_Resolved_Atoms>  (980) 
nan

$$$$
CHEMBL213451
     RDKit          3D

  0  0  0  0  0  0  0  0  0  0999 V3000
M  V30 BEGIN CTAB
M  V30 COUNTS 38 41 0 0 0
M  V30 BEGIN ATOM
M  V30 1 C -0.276580 -4.185225 3.529657 0
M  V30 2 C 0.981402 -3.316031 3.410743 0
M  V30 3 N 1.239633 -3.100391 2.016130 0
M  V30 4 C 2.215897 -2.411784 1.245840 0
M  V30 5 N 3.366949 -2.925829 0.775242 0
M  V30 6 N 4.047753 -1.999621 0.091041 0
M  V30 7 C 3.305939 -0.868610 0.130556 0
M  V30 8 C 3.534821 0.389905 -0.412840 0
M  V30 9 C 2.552261 1.362168 -0.187644 0
M  V30 10 C 1.409263 1.051513 0.550841 0
M  V30 11 C 0.549935 2.226321 0.639357 0
M  V30 12 O 0.795778 3.410248 1.159369 0
M  V30 13 C -0.256197 4.185753 1.029899 0
M  V30 14 N -1.223982 3.464893 0.396122 0
M  V30 15 C -0.735643 2.226813 0.141429 0
M  V30 16 C -1.433871 1.141344 -0.515386 0
M  V30 17 C -1.138943 0.488372 -1.687905 0
M  V30 18 C -1.944753 -0.535421 -2.149199 0
M  V30 19 C -3.062267 -0.912181 -1.427021 0
M  V30 20 F -3.834593 -1.924036 -1.909555 0
M  V30 21 C -3.375718 -0.271944 -0.250635 0
M  V30 22 C -2.561440 0.765315 0.218653 0
M  V30 23 C 1.231547 -0.212566 1.067375 0
M  V30 24 N 2.191083 -1.128908 0.836358 0
M  V30 25 H -0.689567 -4.132730 4.548853 0
M  V30 26 H 0.048339 -5.212981 3.241030 0
M  V30 27 H -1.040183 -3.907550 2.771161 0
M  V30 28 H 1.793160 -3.815797 3.966793 0
M  V30 29 H 0.722708 -2.385445 3.956172 0
M  V30 30 H 0.612148 -3.508762 1.259435 0
M  V30 31 H 4.440833 0.571000 -0.976977 0
M  V30 32 H 2.815024 2.305948 -0.645852 0
M  V30 33 H -0.091641 5.169256 1.447282 0
M  V30 34 H -0.238015 0.886267 -2.146107 0
M  V30 35 H -1.630516 -0.988795 -3.082202 0
M  V30 36 H -4.255169 -0.599013 0.278186 0
M  V30 37 H -2.912457 1.193125 1.158511 0
M  V30 38 H 0.321782 -0.315751 1.607468 0
M  V30 END ATOM
M  V30 BEGIN BOND
M  V30 1 1 1 2
M  V30 2 1 2 3
M  V30 3 1 3 4
M  V30 4 2 4 5
M  V30 5 1 5 6
M  V30 6 2 6 7
M  V30 7 1 7 8
M  V30 8 2 8 9
M  V30 9 1 9 10
M  V30 10 1 10 11
M  V30 11 1 11 12
M  V30 12 1 12 13
M  V30 13 2 13 14
M  V30 14 1 14 15
M  V30 15 1 15 16
M  V30 16 2 16 17
M  V30 17 1 17 18
M  V30 18 2 18 19
M  V30 19 1 19 20
M  V30 20 1 19 21
M  V30 21 2 21 22
M  V30 22 2 10 23
M  V30 23 1 23 24
M  V30 24 1 24 4
M  V30 25 1 24 7
M  V30 26 2 15 11
M  V30 27 1 22 16
M  V30 28 1 1 25
M  V30 29 1 1 26
M  V30 30 1 1 27
M  V30 31 1 2 28
M  V30 32 1 2 29
M  V30 33 1 3 30
M  V30 34 1 8 31
M  V30 35 1 9 32
M  V30 36 1 13 33
M  V30 37 1 17 34
M  V30 38 1 18 35
M  V30 39 1 21 36
M  V30 40 1 22 37
M  V30 41 1 23 38
M  V30 END BOND
M  V30 END CTAB
M  END
>  <Dataset>  (981) 
ChEMBL_Kinases

>  <Ligand_Instance>  (981) 
nan

>  <PDB_ID>  (981) 
nan

>  <Standardized_SMILES>  (981) 
CCNc1nnc2ccc(-c3ocnc3-c3ccc(F)cc3)cn12

>  <Name>  (981) 
nan

>  <Pocket>  (981) 
nan

>  <ATP_Site>  (981) 
nan

>  <Peripheral>  (981) 
nan

>  <Num_H_Atoms_ProtBoundConf>  (981) 
nan

>  <Num_Resolved_Atoms>  (981) 
nan

>  <Num_Not_Resolved_Atoms>  (981) 
nan

$$$$
CHEMBL213478
     RDKit          3D

  0  0  0  0  0  0  0  0  0  0999 V3000
M  V30 BEGIN CTAB
M  V30 COUNTS 52 56 0 0 0
M  V30 BEGIN ATOM
M  V30 1 C 5.635891 -6.304821 5.091894 0
M  V30 2 N 4.375933 -5.865391 5.659793 0
M  V30 3 C 3.688342 -5.042335 4.706932 0
M  V30 4 N 3.907935 -3.708470 4.713907 0
M  V30 5 C 3.274184 -2.896963 3.825804 0
M  V30 6 C 2.400344 -3.454091 2.913371 0
M  V30 7 C 1.718563 -2.702673 1.980591 0
M  V30 8 C 0.835165 -3.229688 1.051429 0
M  V30 9 C 0.228535 -2.228022 0.160113 0
M  V30 10 C -0.242600 -1.072105 0.738632 0
M  V30 11 C -0.835600 -0.051410 0.010938 0
M  V30 12 N -1.313153 1.130420 0.631496 0
M  V30 13 C -1.934615 2.238617 -0.002057 0
M  V30 14 N -2.219349 2.448227 -1.292764 0
M  V30 15 C -2.814975 3.626195 -1.510950 0
M  V30 16 C -3.278694 4.255066 -2.648066 0
M  V30 17 C -3.847563 5.504653 -2.438442 0
M  V30 18 C -4.358431 6.206881 -3.659429 0
M  V30 19 F -3.702831 5.733967 -4.794763 0
M  V30 20 F -4.176246 7.583104 -3.542154 0
M  V30 21 F -5.707753 5.964869 -3.838044 0
M  V30 22 C -3.953752 6.097875 -1.191237 0
M  V30 23 C -3.473077 5.423534 -0.087970 0
M  V30 24 C -2.895306 4.169997 -0.248502 0
M  V30 25 N -2.364367 3.330705 0.653256 0
M  V30 26 C -0.906772 -0.306163 -1.341314 0
M  V30 27 C -0.446867 -1.449993 -1.957954 0
M  V30 28 C 0.134583 -2.437014 -1.198256 0
M  V30 29 C 0.638251 -3.672596 -1.820500 0
M  V30 30 C 0.629998 -4.592463 1.066654 0
M  V30 31 C 1.304033 -5.359838 1.993381 0
M  V30 32 C 2.178050 -4.815634 2.908415 0
M  V30 33 N 2.822954 -5.586841 3.801980 0
M  V30 34 H 6.258476 -6.860106 5.827675 0
M  V30 35 H 6.196877 -5.448229 4.692093 0
M  V30 36 H 5.478028 -6.996205 4.234946 0
M  V30 37 H 4.055249 -6.128590 6.616288 0
M  V30 38 H 3.434571 -1.819647 3.811706 0
M  V30 39 H 1.939049 -1.632312 2.037664 0
M  V30 40 H -0.150088 -0.942186 1.821684 0
M  V30 41 H -1.177108 1.160903 1.685848 0
M  V30 42 H -3.199754 3.799983 -3.622526 0
M  V30 43 H -4.421195 7.091642 -1.129700 0
M  V30 44 H -3.549022 5.875214 0.896052 0
M  V30 45 H -2.303635 3.508603 1.675584 0
M  V30 46 H -1.340816 0.402298 -2.003489 0
M  V30 47 H -0.521850 -1.612157 -3.026421 0
M  V30 48 H -0.176314 -4.394215 -2.014334 0
M  V30 49 H 0.996122 -3.367146 -2.847421 0
M  V30 50 H 1.508571 -4.109566 -1.287433 0
M  V30 51 H -0.068185 -4.937805 0.319577 0
M  V30 52 H 1.104558 -6.424621 1.959710 0
M  V30 END ATOM
M  V30 BEGIN BOND
M  V30 1 1 1 2
M  V30 2 1 2 3
M  V30 3 2 3 4
M  V30 4 1 4 5
M  V30 5 2 5 6
M  V30 6 1 6 7
M  V30 7 2 7 8
M  V30 8 1 8 9
M  V30 9 2 9 10
M  V30 10 1 10 11
M  V30 11 1 11 12
M  V30 12 1 12 13
M  V30 13 2 13 14
M  V30 14 1 14 15
M  V30 15 2 15 16
M  V30 16 1 16 17
M  V30 17 1 17 18
M  V30 18 1 18 19
M  V30 19 1 18 20
M  V30 20 1 18 21
M  V30 21 2 17 22
M  V30 22 1 22 23
M  V30 23 2 23 24
M  V30 24 1 24 25
M  V30 25 2 11 26
M  V30 26 1 26 27
M  V30 27 2 27 28
M  V30 28 1 28 29
M  V30 29 1 8 30
M  V30 30 2 30 31
M  V30 31 1 31 32
M  V30 32 2 32 33
M  V30 33 1 33 3
M  V30 34 1 32 6
M  V30 35 1 28 9
M  V30 36 1 25 13
M  V30 37 1 24 15
M  V30 38 1 1 34
M  V30 39 1 1 35
M  V30 40 1 1 36
M  V30 41 1 2 37
M  V30 42 1 5 38
M  V30 43 1 7 39
M  V30 44 1 10 40
M  V30 45 1 12 41
M  V30 46 1 16 42
M  V30 47 1 22 43
M  V30 48 1 23 44
M  V30 49 1 25 45
M  V30 50 1 26 46
M  V30 51 1 27 47
M  V30 52 1 29 48
M  V30 53 1 29 49
M  V30 54 1 29 50
M  V30 55 1 30 51
M  V30 56 1 31 52
M  V30 END BOND
M  V30 END CTAB
M  END
>  <Dataset>  (982) 
ChEMBL_Kinases

>  <Ligand_Instance>  (982) 
nan

>  <PDB_ID>  (982) 
nan

>  <Standardized_SMILES>  (982) 
CNc1ncc2cc(-c3cc(Nc4nc5cc(C(F)(F)F)ccc5[nH]4)ccc3C)ccc2n1

>  <Name>  (982) 
nan

>  <Pocket>  (982) 
nan

>  <ATP_Site>  (982) 
nan

>  <Peripheral>  (982) 
nan

>  <Num_H_Atoms_ProtBoundConf>  (982) 
nan

>  <Num_Resolved_Atoms>  (982) 
nan

>  <Num_Not_Resolved_Atoms>  (982) 
nan

$$$$
CHEMBL213501
     RDKit          3D

  0  0  0  0  0  0  0  0  0  0999 V3000
M  V30 BEGIN CTAB
M  V30 COUNTS 40 43 0 0 0
M  V30 BEGIN ATOM
M  V30 1 C 0.457193 -5.281287 1.894429 0
M  V30 2 C 0.084247 -4.931818 0.467675 0
M  V30 3 C 0.915115 -5.797943 -0.436213 0
M  V30 4 O 0.168762 -3.571887 0.192185 0
M  V30 5 C -0.868761 -2.732538 -0.143484 0
M  V30 6 N -2.174311 -3.041388 -0.269594 0
M  V30 7 N -2.777738 -1.910281 -0.602907 0
M  V30 8 C -1.882559 -0.907741 -0.687582 0
M  V30 9 C -2.036776 0.442933 -1.001347 0
M  V30 10 C -0.943805 1.294940 -1.023507 0
M  V30 11 C 0.281080 0.737177 -0.722639 0
M  V30 12 C 1.538457 1.464325 -0.681106 0
M  V30 13 O 2.637427 1.491865 -1.434282 0
M  V30 14 C 3.454974 2.366897 -0.886767 0
M  V30 15 N 2.912051 2.916143 0.213749 0
M  V30 16 C 1.674647 2.345835 0.361607 0
M  V30 17 C 0.873565 2.782701 1.501024 0
M  V30 18 C -0.145918 3.702968 1.552199 0
M  V30 19 C -0.815924 3.996596 2.705217 0
M  V30 20 C -0.428703 3.319505 3.862075 0
M  V30 21 F -1.043698 3.556718 5.043985 0
M  V30 22 C 0.574645 2.412288 3.814818 0
M  V30 23 C 1.273771 2.094613 2.655828 0
M  V30 24 C 0.423447 -0.617137 -0.409847 0
M  V30 25 N -0.653249 -1.429396 -0.393806 0
M  V30 26 H 0.069563 -6.321315 2.133922 0
M  V30 27 H 1.547905 -5.306083 2.036366 0
M  V30 28 H -0.023250 -4.627732 2.633268 0
M  V30 29 H -0.986556 -5.226247 0.341750 0
M  V30 30 H 1.830630 -5.224712 -0.672528 0
M  V30 31 H 1.207783 -6.703884 0.097268 0
M  V30 32 H 0.306962 -6.023451 -1.336369 0
M  V30 33 H -3.013504 0.867158 -1.238708 0
M  V30 34 H -0.983921 2.340130 -1.252410 0
M  V30 35 H 4.438058 2.622349 -1.261774 0
M  V30 36 H -0.364137 4.161641 0.615627 0
M  V30 37 H -1.615309 4.720705 2.729321 0
M  V30 38 H 0.846850 1.900071 4.753103 0
M  V30 39 H 2.061814 1.349301 2.723892 0
M  V30 40 H 1.382651 -1.080463 -0.168610 0
M  V30 END ATOM
M  V30 BEGIN BOND
M  V30 1 1 1 2
M  V30 2 1 2 3
M  V30 3 1 2 4
M  V30 4 1 4 5
M  V30 5 2 5 6
M  V30 6 1 6 7
M  V30 7 2 7 8
M  V30 8 1 8 9
M  V30 9 2 9 10
M  V30 10 1 10 11
M  V30 11 1 11 12
M  V30 12 1 12 13
M  V30 13 1 13 14
M  V30 14 2 14 15
M  V30 15 1 15 16
M  V30 16 1 16 17
M  V30 17 2 17 18
M  V30 18 1 18 19
M  V30 19 2 19 20
M  V30 20 1 20 21
M  V30 21 1 20 22
M  V30 22 2 22 23
M  V30 23 2 11 24
M  V30 24 1 24 25
M  V30 25 1 25 5
M  V30 26 1 25 8
M  V30 27 2 16 12
M  V30 28 1 23 17
M  V30 29 1 1 26
M  V30 30 1 1 27
M  V30 31 1 1 28
M  V30 32 1 2 29
M  V30 33 1 3 30
M  V30 34 1 3 31
M  V30 35 1 3 32
M  V30 36 1 9 33
M  V30 37 1 10 34
M  V30 38 1 14 35
M  V30 39 1 18 36
M  V30 40 1 19 37
M  V30 41 1 22 38
M  V30 42 1 23 39
M  V30 43 1 24 40
M  V30 END BOND
M  V30 END CTAB
M  END
>  <Dataset>  (983) 
ChEMBL_Kinases

>  <Ligand_Instance>  (983) 
nan

>  <PDB_ID>  (983) 
nan

>  <Standardized_SMILES>  (983) 
CC(C)Oc1nnc2ccc(-c3ocnc3-c3ccc(F)cc3)cn12

>  <Name>  (983) 
nan

>  <Pocket>  (983) 
nan

>  <ATP_Site>  (983) 
nan

>  <Peripheral>  (983) 
nan

>  <Num_H_Atoms_ProtBoundConf>  (983) 
nan

>  <Num_Resolved_Atoms>  (983) 
nan

>  <Num_Not_Resolved_Atoms>  (983) 
nan

$$$$
CHEMBL213521
     RDKit          3D

  0  0  0  0  0  0  0  0  0  0999 V3000
M  V30 BEGIN CTAB
M  V30 COUNTS 36 40 0 0 0
M  V30 BEGIN ATOM
M  V30 1 C -0.082032 -3.799541 -0.403124 0
M  V30 2 C 0.059899 -3.701342 0.973455 0
M  V30 3 C 0.991331 -2.818695 1.472460 0
M  V30 4 C 1.768726 -2.046477 0.617003 0
M  V30 5 C 2.686112 -1.183533 1.387719 0
M  V30 6 N 3.673191 -1.522135 2.255053 0
M  V30 7 C 4.204257 -0.370917 2.684128 0
M  V30 8 O 3.590891 0.622633 2.123115 0
M  V30 9 C 2.642725 0.203733 1.310885 0
M  V30 10 C 1.721961 0.980574 0.488528 0
M  V30 11 C 2.122815 1.855883 -0.511952 0
M  V30 12 C 1.147078 2.539068 -1.229320 0
M  V30 13 C -0.179430 2.312884 -0.910546 0
M  V30 14 N -1.328448 2.820949 -1.423368 0
M  V30 15 N -2.365401 2.292822 -0.780740 0
M  V30 16 C -1.910301 1.438345 0.154284 0
M  V30 17 C -2.752522 0.665077 1.060657 0
M  V30 18 C -3.232461 -0.516920 0.483933 0
M  V30 19 C -4.018115 -1.157865 1.448011 0
M  V30 20 N -3.956636 -0.335327 2.511706 0
M  V30 21 O -3.223798 0.708833 2.270533 0
M  V30 22 N -0.564359 1.463620 0.059968 0
M  V30 23 C 0.373787 0.800187 0.757050 0
M  V30 24 C 1.620327 -2.151212 -0.750062 0
M  V30 25 C 0.685703 -3.037383 -1.234160 0
M  V30 26 H -0.802562 -4.481247 -0.820897 0
M  V30 27 H -0.568574 -4.323476 1.590197 0
M  V30 28 H 1.027359 -2.814460 2.564247 0
M  V30 29 H 5.023607 -0.232943 3.392289 0
M  V30 30 H 3.192742 1.968941 -0.691409 0
M  V30 31 H 1.459989 3.223545 -2.011532 0
M  V30 32 H -3.140128 -1.024618 -0.489036 0
M  V30 33 H -4.600247 -2.067571 1.520712 0
M  V30 34 H 0.031092 0.118833 1.537183 0
M  V30 35 H 2.291407 -1.490504 -1.295636 0
M  V30 36 H 0.623679 -3.066629 -2.316355 0
M  V30 END ATOM
M  V30 BEGIN BOND
M  V30 1 2 1 2
M  V30 2 1 2 3
M  V30 3 2 3 4
M  V30 4 1 4 5
M  V30 5 1 5 6
M  V30 6 2 6 7
M  V30 7 1 7 8
M  V30 8 1 8 9
M  V30 9 1 9 10
M  V30 10 1 10 11
M  V30 11 2 11 12
M  V30 12 1 12 13
M  V30 13 2 13 14
M  V30 14 1 14 15
M  V30 15 2 15 16
M  V30 16 1 16 17
M  V30 17 2 17 18
M  V30 18 1 18 19
M  V30 19 2 19 20
M  V30 20 1 20 21
M  V30 21 1 16 22
M  V30 22 1 22 23
M  V30 23 1 4 24
M  V30 24 2 24 25
M  V30 25 1 25 1
M  V30 26 2 9 5
M  V30 27 2 23 10
M  V30 28 1 22 13
M  V30 29 1 21 17
M  V30 30 1 1 26
M  V30 31 1 2 27
M  V30 32 1 3 28
M  V30 33 1 7 29
M  V30 34 1 11 30
M  V30 35 1 12 31
M  V30 36 1 18 32
M  V30 37 1 19 33
M  V30 38 1 23 34
M  V30 39 1 24 35
M  V30 40 1 25 36
M  V30 END BOND
M  V30 END CTAB
M  END
>  <Dataset>  (984) 
ChEMBL_Kinases

>  <Ligand_Instance>  (984) 
nan

>  <PDB_ID>  (984) 
nan

>  <Standardized_SMILES>  (984) 
c1ccc(-c2ncoc2-c2ccc3nnc(-c4ccno4)n3c2)cc1

>  <Name>  (984) 
nan

>  <Pocket>  (984) 
nan

>  <ATP_Site>  (984) 
nan

>  <Peripheral>  (984) 
nan

>  <Num_H_Atoms_ProtBoundConf>  (984) 
nan

>  <Num_Resolved_Atoms>  (984) 
nan

>  <Num_Not_Resolved_Atoms>  (984) 
nan

$$$$
CHEMBL213522
     RDKit          3D

  0  0  0  0  0  0  0  0  0  0999 V3000
M  V30 BEGIN CTAB
M  V30 COUNTS 36 39 0 0 0
M  V30 BEGIN ATOM
M  V30 1 C -0.643090 -3.973646 1.183636 0
M  V30 2 C 0.718921 -3.968633 0.539277 0
M  V30 3 C 1.672568 -3.031842 1.208308 0
M  V30 4 N 2.494510 -3.374839 2.243099 0
M  V30 5 N 3.218396 -2.325026 2.615973 0
M  V30 6 C 2.877435 -1.289293 1.830849 0
M  V30 7 C 3.312637 0.022803 1.783895 0
M  V30 8 C 2.768675 0.885261 0.846061 0
M  V30 9 C 1.800245 0.384959 -0.012908 0
M  V30 10 C 1.218578 1.302075 -1.013634 0
M  V30 11 O 1.834857 1.926003 -1.969664 0
M  V30 12 C 1.009183 2.654867 -2.666151 0
M  V30 13 N -0.211116 2.485814 -2.120673 0
M  V30 14 C -0.124648 1.638731 -1.073761 0
M  V30 15 C -1.178292 1.149893 -0.169412 0
M  V30 16 C -2.269053 0.415373 -0.587543 0
M  V30 17 C -3.181139 0.025269 0.391208 0
M  V30 18 C -3.020547 0.347502 1.721847 0
M  V30 19 F -3.950861 -0.064587 2.635798 0
M  V30 20 C -1.909281 1.084034 2.077775 0
M  V30 21 C -0.971107 1.499933 1.157746 0
M  V30 22 C 1.368256 -0.920741 0.034999 0
M  V30 23 N 1.929948 -1.722373 0.967976 0
M  V30 24 H -0.632646 -3.384729 2.123477 0
M  V30 25 H -0.943921 -5.026155 1.452354 0
M  V30 26 H -1.376047 -3.535806 0.466151 0
M  V30 27 H 0.646156 -3.734689 -0.543612 0
M  V30 28 H 1.145817 -4.987554 0.607273 0
M  V30 29 H 4.074822 0.416289 2.460120 0
M  V30 30 H 3.071076 1.904223 0.770718 0
M  V30 31 H 1.151528 3.304074 -3.525252 0
M  V30 32 H -2.361601 0.181596 -1.639063 0
M  V30 33 H -4.020738 -0.549471 0.013915 0
M  V30 34 H -1.806211 1.325354 3.136389 0
M  V30 35 H -0.113740 2.079127 1.497591 0
M  V30 36 H 0.614094 -1.270669 -0.649778 0
M  V30 END ATOM
M  V30 BEGIN BOND
M  V30 1 1 1 2
M  V30 2 1 2 3
M  V30 3 2 3 4
M  V30 4 1 4 5
M  V30 5 2 5 6
M  V30 6 1 6 7
M  V30 7 2 7 8
M  V30 8 1 8 9
M  V30 9 1 9 10
M  V30 10 1 10 11
M  V30 11 1 11 12
M  V30 12 2 12 13
M  V30 13 1 13 14
M  V30 14 1 14 15
M  V30 15 2 15 16
M  V30 16 1 16 17
M  V30 17 2 17 18
M  V30 18 1 18 19
M  V30 19 1 18 20
M  V30 20 2 20 21
M  V30 21 2 9 22
M  V30 22 1 22 23
M  V30 23 1 23 3
M  V30 24 1 23 6
M  V30 25 2 14 10
M  V30 26 1 21 15
M  V30 27 1 1 24
M  V30 28 1 1 25
M  V30 29 1 1 26
M  V30 30 1 2 27
M  V30 31 1 2 28
M  V30 32 1 7 29
M  V30 33 1 8 30
M  V30 34 1 12 31
M  V30 35 1 16 32
M  V30 36 1 17 33
M  V30 37 1 20 34
M  V30 38 1 21 35
M  V30 39 1 22 36
M  V30 END BOND
M  V30 END CTAB
M  END
>  <Dataset>  (985) 
ChEMBL_Kinases

>  <Ligand_Instance>  (985) 
nan

>  <PDB_ID>  (985) 
nan

>  <Standardized_SMILES>  (985) 
CCc1nnc2ccc(-c3ocnc3-c3ccc(F)cc3)cn12

>  <Name>  (985) 
nan

>  <Pocket>  (985) 
nan

>  <ATP_Site>  (985) 
nan

>  <Peripheral>  (985) 
nan

>  <Num_H_Atoms_ProtBoundConf>  (985) 
nan

>  <Num_Resolved_Atoms>  (985) 
nan

>  <Num_Not_Resolved_Atoms>  (985) 
nan

$$$$
CHEMBL213525
     RDKit          3D

  0  0  0  0  0  0  0  0  0  0999 V3000
M  V30 BEGIN CTAB
M  V30 COUNTS 46 50 0 0 0
M  V30 BEGIN ATOM
M  V30 1 C 1.968996 -3.601289 2.013153 0
M  V30 2 C 2.274649 -2.107485 2.062567 0
M  V30 3 C 3.726822 -1.811918 2.283232 0
M  V30 4 N 1.723786 -1.513930 0.863956 0
M  V30 5 C 2.219154 -1.553875 -0.390555 0
M  V30 6 C 3.394587 -2.194934 -0.787350 0
M  V30 7 C 3.793329 -2.163091 -2.099394 0
M  V30 8 C 2.988811 -1.473293 -3.013390 0
M  V30 9 O 3.416203 -1.457852 -4.331442 0
M  V30 10 C 1.841702 -0.860487 -2.565681 0
M  V30 11 C 1.412626 -0.869514 -1.273013 0
M  V30 12 C 0.387386 -0.398712 -0.509698 0
M  V30 13 C -0.695198 0.342810 -0.857820 0
M  V30 14 C -1.613061 0.707212 0.095242 0
M  V30 15 C -1.435630 0.317615 1.418324 0
M  V30 16 C -2.380845 0.678407 2.468130 0
M  V30 17 C -2.038255 1.893961 3.064902 0
M  V30 18 C -2.799686 2.431661 4.089918 0
M  V30 19 C -3.916389 1.721881 4.505563 0
M  V30 20 C -4.264081 0.520540 3.923363 0
M  V30 21 C -3.498210 -0.006937 2.902063 0
M  V30 22 Cl -3.791228 -1.509755 2.055437 0
M  V30 23 C -0.335428 -0.435587 1.770287 0
M  V30 24 C 0.573405 -0.789894 0.795862 0
M  V30 25 C -2.715251 1.499404 -0.435076 0
M  V30 26 O -3.697624 1.972716 0.191574 0
M  V30 27 N -2.399415 1.601267 -1.836311 0
M  V30 28 C -1.189475 0.905078 -2.073319 0
M  V30 29 O -0.796162 0.910858 -3.246512 0
M  V30 30 H 0.869548 -3.682284 1.885452 0
M  V30 31 H 2.509915 -4.107311 1.200537 0
M  V30 32 H 2.204790 -3.999861 3.008588 0
M  V30 33 H 1.727707 -1.716808 2.944916 0
M  V30 34 H 4.316759 -2.767927 2.280024 0
M  V30 35 H 4.148167 -1.039316 1.606788 0
M  V30 36 H 3.928386 -1.398398 3.314740 0
M  V30 37 H 4.011440 -2.721062 -0.099818 0
M  V30 38 H 4.705129 -2.662449 -2.397349 0
M  V30 39 H 3.642673 -0.606676 -4.834317 0
M  V30 40 H 1.303982 -0.370678 -3.312428 0
M  V30 41 H -1.185124 2.518868 2.807362 0
M  V30 42 H -2.569151 3.369505 4.578513 0
M  V30 43 H -4.547295 2.094074 5.301638 0
M  V30 44 H -5.118186 -0.090196 4.191992 0
M  V30 45 H -0.154682 -0.763534 2.792489 0
M  V30 46 H -3.061281 2.142725 -2.465241 0
M  V30 END ATOM
M  V30 BEGIN BOND
M  V30 1 1 1 2
M  V30 2 1 2 3
M  V30 3 1 2 4
M  V30 4 1 4 5
M  V30 5 2 5 6
M  V30 6 1 6 7
M  V30 7 2 7 8
M  V30 8 1 8 9
M  V30 9 1 8 10
M  V30 10 2 10 11
M  V30 11 1 11 12
M  V30 12 2 12 13
M  V30 13 1 13 14
M  V30 14 2 14 15
M  V30 15 1 15 16
M  V30 16 2 16 17
M  V30 17 1 17 18
M  V30 18 2 18 19
M  V30 19 1 19 20
M  V30 20 2 20 21
M  V30 21 1 21 22
M  V30 22 1 15 23
M  V30 23 2 23 24
M  V30 24 1 14 25
M  V30 25 2 25 26
M  V30 26 1 25 27
M  V30 27 1 27 28
M  V30 28 2 28 29
M  V30 29 1 24 4
M  V30 30 1 11 5
M  V30 31 1 24 12
M  V30 32 1 28 13
M  V30 33 1 21 16
M  V30 34 1 1 30
M  V30 35 1 1 31
M  V30 36 1 1 32
M  V30 37 1 2 33
M  V30 38 1 3 34
M  V30 39 1 3 35
M  V30 40 1 3 36
M  V30 41 1 6 37
M  V30 42 1 7 38
M  V30 43 1 9 39
M  V30 44 1 10 40
M  V30 45 1 17 41
M  V30 46 1 18 42
M  V30 47 1 19 43
M  V30 48 1 20 44
M  V30 49 1 23 45
M  V30 50 1 27 46
M  V30 END BOND
M  V30 END CTAB
M  END
>  <Dataset>  (986) 
ChEMBL_Kinases

>  <Ligand_Instance>  (986) 
nan

>  <PDB_ID>  (986) 
nan

>  <Standardized_SMILES>  (986) 
CC(C)n1c2ccc(O)cc2c2c3c(c(-c4ccccc4Cl)cc21)C(=O)NC3=O

>  <Name>  (986) 
nan

>  <Pocket>  (986) 
nan

>  <ATP_Site>  (986) 
nan

>  <Peripheral>  (986) 
nan

>  <Num_H_Atoms_ProtBoundConf>  (986) 
nan

>  <Num_Resolved_Atoms>  (986) 
nan

>  <Num_Not_Resolved_Atoms>  (986) 
nan

$$$$
CHEMBL213562
     RDKit          3D

  0  0  0  0  0  0  0  0  0  0999 V3000
M  V30 BEGIN CTAB
M  V30 COUNTS 49 51 0 0 0
M  V30 BEGIN ATOM
M  V30 1 C 2.592597 -5.217576 -0.575316 0
M  V30 2 O 2.246008 -3.855831 -0.736002 0
M  V30 3 C 3.151466 -2.826981 -0.527268 0
M  V30 4 C 4.469083 -3.096673 -0.142500 0
M  V30 5 C 5.312181 -2.017027 0.046354 0
M  V30 6 C 4.854672 -0.726294 -0.142171 0
M  V30 7 C 3.536782 -0.447617 -0.527559 0
M  V30 8 C 2.693386 -1.548105 -0.715457 0
M  V30 9 N 1.330495 -1.283619 -1.111724 0
M  V30 10 C 0.999424 0.101982 -1.276593 0
M  V30 11 S 1.021994 1.062465 -2.687612 0
M  V30 12 N 0.466588 2.636526 -1.842362 0
M  V30 13 C 0.361465 2.114124 -0.580072 0
M  V30 14 O -0.059648 3.287437 0.087597 0
M  V30 15 C 0.599222 0.856491 -0.158572 0
M  V30 16 C 0.399365 0.592505 1.253177 0
M  V30 17 N 0.635146 1.416130 2.225061 0
M  V30 18 N -0.096526 -0.679813 1.627526 0
M  V30 19 C -0.987189 -0.938358 2.709175 0
M  V30 20 C -2.393892 -0.459242 2.536865 0
M  V30 21 C -2.446707 1.011102 2.333314 0
M  V30 22 C -3.876336 1.505741 2.128959 0
M  V30 23 C -4.363212 0.780216 0.882792 0
M  V30 24 C -4.511387 -0.672519 1.264132 0
M  V30 25 C -3.101429 -1.230012 1.442573 0
M  V30 26 H 1.728890 -5.814158 -0.902356 0
M  V30 27 H 3.438849 -5.509902 -1.244316 0
M  V30 28 H 2.847466 -5.456839 0.475462 0
M  V30 29 H 4.816389 -4.093015 0.001410 0
M  V30 30 H 6.347491 -2.207513 0.347816 0
M  V30 31 H 5.590434 0.046573 0.030309 0
M  V30 32 H 3.243024 0.573789 -0.658249 0
M  V30 33 H 0.699447 -2.124842 -1.246395 0
M  V30 34 H -0.791068 3.223737 0.753027 0
M  V30 35 H 0.993577 2.368505 2.151128 0
M  V30 36 H 0.255219 -1.479693 1.011306 0
M  V30 37 H -0.998572 -2.063151 2.872151 0
M  V30 38 H -0.553036 -0.522457 3.659745 0
M  V30 39 H -2.924374 -0.742987 3.497149 0
M  V30 40 H -1.962264 1.220355 1.336747 0
M  V30 41 H -1.983309 1.531953 3.164033 0
M  V30 42 H -4.505194 1.334381 3.000850 0
M  V30 43 H -3.802547 2.576648 1.850897 0
M  V30 44 H -5.306224 1.217186 0.497371 0
M  V30 45 H -3.546591 0.828544 0.135320 0
M  V30 46 H -5.031437 -1.234011 0.489950 0
M  V30 47 H -5.057769 -0.740379 2.240979 0
M  V30 48 H -3.157700 -2.286229 1.778148 0
M  V30 49 H -2.581348 -1.118998 0.488801 0
M  V30 END ATOM
M  V30 BEGIN BOND
M  V30 1 1 1 2
M  V30 2 1 2 3
M  V30 3 2 3 4
M  V30 4 1 4 5
M  V30 5 2 5 6
M  V30 6 1 6 7
M  V30 7 2 7 8
M  V30 8 1 8 9
M  V30 9 1 9 10
M  V30 10 1 10 11
M  V30 11 1 11 12
M  V30 12 2 12 13
M  V30 13 1 13 14
M  V30 14 1 13 15
M  V30 15 1 15 16
M  V30 16 2 16 17 CFG=2
M  V30 17 1 16 18
M  V30 18 1 18 19
M  V30 19 1 19 20
M  V30 20 1 20 21
M  V30 21 1 21 22
M  V30 22 1 22 23
M  V30 23 1 23 24
M  V30 24 1 24 25
M  V30 25 1 8 3
M  V30 26 2 15 10
M  V30 27 1 25 20
M  V30 28 1 1 26
M  V30 29 1 1 27
M  V30 30 1 1 28
M  V30 31 1 4 29
M  V30 32 1 5 30
M  V30 33 1 6 31
M  V30 34 1 7 32
M  V30 35 1 9 33
M  V30 36 1 14 34
M  V30 37 1 17 35
M  V30 38 1 18 36
M  V30 39 1 19 37
M  V30 40 1 19 38
M  V30 41 1 20 39
M  V30 42 1 21 40
M  V30 43 1 21 41
M  V30 44 1 22 42
M  V30 45 1 22 43
M  V30 46 1 23 44
M  V30 47 1 23 45
M  V30 48 1 24 46
M  V30 49 1 24 47
M  V30 50 1 25 48
M  V30 51 1 25 49
M  V30 END BOND
M  V30 END CTAB
M  END
>  <Dataset>  (987) 
ChEMBL_Kinases

>  <Ligand_Instance>  (987) 
nan

>  <PDB_ID>  (987) 
nan

>  <Standardized_SMILES>  (987) 
COc1ccccc1Nc1snc(O)c1C(=N)NCC1CCCCC1

>  <Name>  (987) 
nan

>  <Pocket>  (987) 
nan

>  <ATP_Site>  (987) 
nan

>  <Peripheral>  (987) 
nan

>  <Num_H_Atoms_ProtBoundConf>  (987) 
nan

>  <Num_Resolved_Atoms>  (987) 
nan

>  <Num_Not_Resolved_Atoms>  (987) 
nan

$$$$
CHEMBL213563
     RDKit          3D

  0  0  0  0  0  0  0  0  0  0999 V3000
M  V30 BEGIN CTAB
M  V30 COUNTS 45 47 0 0 0
M  V30 BEGIN ATOM
M  V30 1 N -0.464923 -1.532123 1.581847 0
M  V30 2 C -0.062968 -0.193752 1.646405 0
M  V30 3 N 0.978605 0.072918 2.333113 0
M  V30 4 C 1.786430 -0.892711 3.055639 0
M  V30 5 C 3.188678 -0.725237 2.445920 0
M  V30 6 C 3.141430 -1.017357 0.955827 0
M  V30 7 C 4.341934 -0.301180 0.358646 0
M  V30 8 C 5.466808 -0.274213 1.371319 0
M  V30 9 C 5.418662 -1.599637 2.122745 0
M  V30 10 C 4.194094 -1.666794 3.033769 0
M  V30 11 C -0.818412 0.829704 0.970689 0
M  V30 12 C -0.421906 2.114021 1.088098 0
M  V30 13 O 0.623844 2.711546 1.762457 0
M  V30 14 N -1.049291 3.209697 0.494892 0
M  V30 15 S -2.446727 2.342602 -0.396209 0
M  V30 16 C -1.979810 0.714692 0.150110 0
M  V30 17 N -2.642175 -0.470652 -0.204419 0
M  V30 18 C -3.845380 -0.599156 -0.926469 0
M  V30 19 C -4.646742 -1.740784 -0.731619 0
M  V30 20 C -5.833427 -1.954665 -1.394093 0
M  V30 21 C -6.263957 -1.007689 -2.295006 0
M  V30 22 Cl -7.781626 -1.345294 -3.098641 0
M  V30 23 C -5.538770 0.143153 -2.548106 0
M  V30 24 C -4.368850 0.265398 -1.837890 0
M  V30 25 H -1.382289 -1.518146 2.125069 0
M  V30 26 H 0.274070 -2.046829 1.048713 0
M  V30 27 H 1.528061 -1.935153 2.891683 0
M  V30 28 H 1.829986 -0.689239 4.135235 0
M  V30 29 H 3.549554 0.306038 2.578211 0
M  V30 30 H 2.220453 -0.630384 0.478149 0
M  V30 31 H 3.275559 -2.100805 0.805021 0
M  V30 32 H 4.104426 0.702303 -0.031926 0
M  V30 33 H 4.720532 -0.886566 -0.503435 0
M  V30 34 H 5.479684 0.598239 2.017678 0
M  V30 35 H 6.459443 -0.292377 0.835710 0
M  V30 36 H 5.363298 -2.398602 1.354434 0
M  V30 37 H 6.355247 -1.750635 2.685916 0
M  V30 38 H 4.459599 -1.390350 4.091812 0
M  V30 39 H 3.778684 -2.707367 2.974760 0
M  V30 40 H 0.444250 2.984324 2.741373 0
M  V30 41 H -2.232261 -1.387170 0.047314 0
M  V30 42 H -4.294648 -2.483452 -0.010916 0
M  V30 43 H -6.358726 -2.871957 -1.156704 0
M  V30 44 H -5.891311 0.873924 -3.256394 0
M  V30 45 H -3.830300 1.168715 -2.070581 0
M  V30 END ATOM
M  V30 BEGIN BOND
M  V30 1 1 1 2
M  V30 2 2 2 3
M  V30 3 1 3 4
M  V30 4 1 4 5
M  V30 5 1 5 6
M  V30 6 1 6 7
M  V30 7 1 7 8
M  V30 8 1 8 9
M  V30 9 1 9 10
M  V30 10 1 2 11
M  V30 11 1 11 12
M  V30 12 1 12 13
M  V30 13 2 12 14
M  V30 14 1 14 15
M  V30 15 1 15 16
M  V30 16 1 16 17
M  V30 17 1 17 18
M  V30 18 2 18 19
M  V30 19 1 19 20
M  V30 20 2 20 21
M  V30 21 1 21 22
M  V30 22 1 21 23
M  V30 23 2 23 24
M  V30 24 1 10 5
M  V30 25 2 16 11
M  V30 26 1 24 18
M  V30 27 1 1 25
M  V30 28 1 1 26
M  V30 29 1 4 27
M  V30 30 1 4 28
M  V30 31 1 5 29
M  V30 32 1 6 30
M  V30 33 1 6 31
M  V30 34 1 7 32
M  V30 35 1 7 33
M  V30 36 1 8 34
M  V30 37 1 8 35
M  V30 38 1 9 36
M  V30 39 1 9 37
M  V30 40 1 10 38
M  V30 41 1 10 39
M  V30 42 1 13 40
M  V30 43 1 17 41
M  V30 44 1 19 42
M  V30 45 1 20 43
M  V30 46 1 23 44
M  V30 47 1 24 45
M  V30 END BOND
M  V30 END CTAB
M  END
>  <Dataset>  (988) 
ChEMBL_Kinases

>  <Ligand_Instance>  (988) 
nan

>  <PDB_ID>  (988) 
nan

>  <Standardized_SMILES>  (988) 
N/C(=N\CC1CCCCC1)c1c(O)nsc1Nc1ccc(Cl)cc1

>  <Name>  (988) 
nan

>  <Pocket>  (988) 
nan

>  <ATP_Site>  (988) 
nan

>  <Peripheral>  (988) 
nan

>  <Num_H_Atoms_ProtBoundConf>  (988) 
nan

>  <Num_Resolved_Atoms>  (988) 
nan

>  <Num_Not_Resolved_Atoms>  (988) 
nan

$$$$
CHEMBL213992
     RDKit          3D

  0  0  0  0  0  0  0  0  0  0999 V3000
M  V30 BEGIN CTAB
M  V30 COUNTS 35 36 0 0 0
M  V30 BEGIN ATOM
M  V30 1 C 1.260849 -3.241137 2.410069 0
M  V30 2 C 0.559689 -3.522844 1.134688 0
M  V30 3 C 1.061277 -4.876943 0.613851 0
M  V30 4 N 0.565764 -2.533551 0.127734 0
M  V30 5 C 0.705529 -1.284725 0.164065 0
M  V30 6 N 0.900898 -0.646393 1.398584 0
M  V30 7 C 0.667130 -0.483832 -1.044438 0
M  V30 8 C 0.478786 -1.053428 -2.270450 0
M  V30 9 O 0.302089 -2.399946 -2.650549 0
M  V30 10 N 0.418042 -0.396045 -3.455169 0
M  V30 11 S 0.664120 1.330368 -2.785817 0
M  V30 12 C 0.793647 0.859511 -1.134676 0
M  V30 13 N 1.007677 1.879797 -0.191058 0
M  V30 14 C -0.106831 2.357146 0.537818 0
M  V30 15 C -1.375546 1.816411 0.375677 0
M  V30 16 C -2.543554 2.166504 0.999374 0
M  V30 17 C -2.434787 3.212440 1.923115 0
M  V30 18 I -4.186052 3.806128 2.934720 0
M  V30 19 C -1.195406 3.812582 2.146270 0
M  V30 20 C -0.061286 3.384403 1.460908 0
M  V30 21 Cl 1.491425 4.143597 1.740854 0
M  V30 22 H 2.364466 -3.105375 2.244455 0
M  V30 23 H 0.808818 -2.511409 3.082090 0
M  V30 24 H 1.224307 -4.215547 2.997289 0
M  V30 25 H -0.523052 -3.734749 1.390342 0
M  V30 26 H 0.254772 -5.414706 0.073717 0
M  V30 27 H 1.884772 -4.720955 -0.121660 0
M  V30 28 H 1.431908 -5.520821 1.415712 0
M  V30 29 H 0.380033 -0.015540 2.078444 0
M  V30 30 H 1.851774 -0.800189 1.848748 0
M  V30 31 H -0.639958 -2.761246 -2.721230 0
M  V30 32 H 1.919111 2.337464 0.031828 0
M  V30 33 H -1.441637 1.002308 -0.345112 0
M  V30 34 H -3.466547 1.644328 0.763524 0
M  V30 35 H -1.128066 4.614938 2.855575 0
M  V30 END ATOM
M  V30 BEGIN BOND
M  V30 1 1 1 2
M  V30 2 1 2 3
M  V30 3 1 2 4
M  V30 4 2 4 5
M  V30 5 1 5 6
M  V30 6 1 5 7
M  V30 7 1 7 8
M  V30 8 1 8 9
M  V30 9 2 8 10
M  V30 10 1 10 11
M  V30 11 1 11 12
M  V30 12 1 12 13
M  V30 13 1 13 14
M  V30 14 2 14 15
M  V30 15 1 15 16
M  V30 16 2 16 17
M  V30 17 1 17 18
M  V30 18 1 17 19
M  V30 19 2 19 20
M  V30 20 1 20 21
M  V30 21 2 12 7
M  V30 22 1 20 14
M  V30 23 1 1 22
M  V30 24 1 1 23
M  V30 25 1 1 24
M  V30 26 1 2 25
M  V30 27 1 3 26
M  V30 28 1 3 27
M  V30 29 1 3 28
M  V30 30 1 6 29
M  V30 31 1 6 30
M  V30 32 1 9 31
M  V30 33 1 13 32
M  V30 34 1 15 33
M  V30 35 1 16 34
M  V30 36 1 19 35
M  V30 END BOND
M  V30 END CTAB
M  END
>  <Dataset>  (989) 
ChEMBL_Kinases

>  <Ligand_Instance>  (989) 
nan

>  <PDB_ID>  (989) 
nan

>  <Standardized_SMILES>  (989) 
CC(C)/N=C(\N)c1c(O)nsc1Nc1ccc(I)cc1Cl

>  <Name>  (989) 
nan

>  <Pocket>  (989) 
nan

>  <ATP_Site>  (989) 
nan

>  <Peripheral>  (989) 
nan

>  <Num_H_Atoms_ProtBoundConf>  (989) 
nan

>  <Num_Resolved_Atoms>  (989) 
nan

>  <Num_Not_Resolved_Atoms>  (989) 
nan

$$$$
CHEMBL213651
     RDKit          3D

  0  0  0  0  0  0  0  0  0  0999 V3000
M  V30 BEGIN CTAB
M  V30 COUNTS 35 36 0 0 0
M  V30 BEGIN ATOM
M  V30 1 C -0.220429 -3.360166 2.094602 0
M  V30 2 C 0.026190 -3.454392 0.600843 0
M  V30 3 C 1.185946 -4.417361 0.406720 0
M  V30 4 N 0.064951 -2.301768 -0.102929 0
M  V30 5 C 0.124941 -1.184838 -0.454679 0
M  V30 6 N 0.248505 -0.726271 0.871487 0
M  V30 7 C 0.137336 -0.282456 -1.569164 0
M  V30 8 C 0.056358 -0.925569 -2.751215 0
M  V30 9 O -0.051564 -2.213725 -3.251328 0
M  V30 10 N 0.072815 -0.204793 -3.955547 0
M  V30 11 S 0.216347 1.520345 -3.290379 0
M  V30 12 C 0.231987 1.064737 -1.607611 0
M  V30 13 N 0.293587 1.995512 -0.601492 0
M  V30 14 C 0.192952 2.307091 0.748339 0
M  V30 15 C 1.168328 2.773257 1.623454 0
M  V30 16 C 0.933128 3.070223 2.945541 0
M  V30 17 C -0.346288 2.886225 3.398454 0
M  V30 18 C -1.374931 2.431393 2.611280 0
M  V30 19 Cl -2.949528 2.250430 3.322355 0
M  V30 20 C -1.065027 2.157854 1.309183 0
M  V30 21 Cl -2.428203 1.574598 0.340157 0
M  V30 22 H 0.632926 -3.048730 2.685551 0
M  V30 23 H -1.129304 -2.756474 2.237223 0
M  V30 24 H -0.473738 -4.389317 2.437854 0
M  V30 25 H -0.871863 -4.063216 0.246779 0
M  V30 26 H 0.866026 -5.456115 0.189690 0
M  V30 27 H 1.871028 -4.127207 -0.402287 0
M  V30 28 H 1.781655 -4.499751 1.345545 0
M  V30 29 H -0.276552 -0.581178 1.753613 0
M  V30 30 H 1.153793 -0.369180 1.252117 0
M  V30 31 H -0.172782 -2.967534 -2.577453 0
M  V30 32 H 0.517431 2.997470 -0.885630 0
M  V30 33 H 2.153719 2.882659 1.154766 0
M  V30 34 H 1.809585 3.414201 3.456036 0
M  V30 35 H -0.485163 3.132593 4.447416 0
M  V30 END ATOM
M  V30 BEGIN BOND
M  V30 1 1 1 2
M  V30 2 1 2 3
M  V30 3 1 2 4
M  V30 4 2 4 5
M  V30 5 1 5 6
M  V30 6 1 5 7
M  V30 7 1 7 8
M  V30 8 1 8 9
M  V30 9 2 8 10
M  V30 10 1 10 11
M  V30 11 1 11 12
M  V30 12 1 12 13
M  V30 13 1 13 14
M  V30 14 2 14 15
M  V30 15 1 15 16
M  V30 16 2 16 17
M  V30 17 1 17 18
M  V30 18 1 18 19
M  V30 19 2 18 20
M  V30 20 1 20 21
M  V30 21 2 12 7
M  V30 22 1 20 14
M  V30 23 1 1 22
M  V30 24 1 1 23
M  V30 25 1 1 24
M  V30 26 1 2 25
M  V30 27 1 3 26
M  V30 28 1 3 27
M  V30 29 1 3 28
M  V30 30 1 6 29
M  V30 31 1 6 30
M  V30 32 1 9 31
M  V30 33 1 13 32
M  V30 34 1 15 33
M  V30 35 1 16 34
M  V30 36 1 17 35
M  V30 END BOND
M  V30 END CTAB
M  END
>  <Dataset>  (990) 
ChEMBL_Kinases

>  <Ligand_Instance>  (990) 
nan

>  <PDB_ID>  (990) 
nan

>  <Standardized_SMILES>  (990) 
CC(C)/N=C(\N)c1c(O)nsc1Nc1cccc(Cl)c1Cl

>  <Name>  (990) 
nan

>  <Pocket>  (990) 
nan

>  <ATP_Site>  (990) 
nan

>  <Peripheral>  (990) 
nan

>  <Num_H_Atoms_ProtBoundConf>  (990) 
nan

>  <Num_Resolved_Atoms>  (990) 
nan

>  <Num_Not_Resolved_Atoms>  (990) 
nan

$$$$
CHEMBL213770
     RDKit          3D

  0  0  0  0  0  0  0  0  0  0999 V3000
M  V30 BEGIN CTAB
M  V30 COUNTS 52 56 0 0 0
M  V30 BEGIN ATOM
M  V30 1 C 1.091331 -5.069918 1.822130 0
M  V30 2 N 1.690571 -5.563518 0.644634 0
M  V30 3 C 3.043602 -5.265961 0.366793 0
M  V30 4 C 3.227007 -4.433396 -0.894731 0
M  V30 5 N 1.965875 -3.773291 -1.246969 0
M  V30 6 C 1.931476 -2.350996 -1.212884 0
M  V30 7 C 1.078719 -1.837657 -0.262496 0
M  V30 8 C 0.896222 -0.483942 -0.078562 0
M  V30 9 C 1.589949 0.402819 -0.872800 0
M  V30 10 N 1.468851 1.814230 -0.738422 0
M  V30 11 C 0.731095 2.455330 0.289723 0
M  V30 12 N 1.518117 3.354321 0.934915 0
M  V30 13 C 1.056504 4.103244 1.959040 0
M  V30 14 C -0.256899 3.989191 2.406264 0
M  V30 15 C -1.010041 4.592477 3.393020 0
M  V30 16 C -2.259106 4.000687 3.285619 0
M  V30 17 N -2.259147 3.078786 2.275434 0
M  V30 18 C -3.435875 2.316750 1.945735 0
M  V30 19 C -4.608878 3.034848 1.916271 0
M  V30 20 C -5.724457 2.284233 1.600575 0
M  V30 21 C -5.745584 0.931577 1.325743 0
M  V30 22 N -4.549015 0.315612 1.378524 0
M  V30 23 C -3.411585 0.965389 1.677381 0
M  V30 24 C -1.038247 3.055613 1.721317 0
M  V30 25 N -0.566095 2.313061 0.699328 0
M  V30 26 C 2.433820 -0.122455 -1.813833 0
M  V30 27 C 2.630598 -1.475956 -2.013362 0
M  V30 28 C 0.995386 -4.792907 -1.576432 0
M  V30 29 C 0.842394 -5.806922 -0.463659 0
M  V30 30 H 1.039894 -5.867611 2.611916 0
M  V30 31 H 0.025708 -4.747526 1.678755 0
M  V30 32 H 1.641778 -4.216750 2.250166 0
M  V30 33 H 3.587125 -6.219508 0.227262 0
M  V30 34 H 3.535276 -4.736714 1.194896 0
M  V30 35 H 4.050589 -3.686819 -0.763970 0
M  V30 36 H 3.512137 -5.065410 -1.757806 0
M  V30 37 H 0.480508 -2.428191 0.422863 0
M  V30 38 H 0.238182 -0.025570 0.656347 0
M  V30 39 H 1.953095 2.427711 -1.450120 0
M  V30 40 H 1.676699 4.824396 2.480682 0
M  V30 41 H -0.662133 5.354672 4.075794 0
M  V30 42 H -3.076084 4.278386 3.941517 0
M  V30 43 H -4.748888 4.090327 2.107802 0
M  V30 44 H -6.684567 2.784720 1.560323 0
M  V30 45 H -6.656413 0.411172 1.086229 0
M  V30 46 H -2.419140 0.548027 1.738901 0
M  V30 47 H 3.003241 0.532632 -2.468899 0
M  V30 48 H 3.279831 -1.912673 -2.739410 0
M  V30 49 H 0.026280 -4.337810 -1.857111 0
M  V30 50 H 1.410147 -5.300104 -2.493882 0
M  V30 51 H 1.040044 -6.828070 -0.857039 0
M  V30 52 H -0.215555 -5.807080 -0.129823 0
M  V30 END ATOM
M  V30 BEGIN BOND
M  V30 1 1 1 2
M  V30 2 1 2 3
M  V30 3 1 3 4
M  V30 4 1 4 5
M  V30 5 1 5 6
M  V30 6 2 6 7
M  V30 7 1 7 8
M  V30 8 2 8 9
M  V30 9 1 9 10
M  V30 10 1 10 11
M  V30 11 2 11 12
M  V30 12 1 12 13
M  V30 13 2 13 14
M  V30 14 1 14 15
M  V30 15 2 15 16
M  V30 16 1 16 17
M  V30 17 1 17 18
M  V30 18 2 18 19
M  V30 19 1 19 20
M  V30 20 2 20 21
M  V30 21 1 21 22
M  V30 22 2 22 23
M  V30 23 1 17 24
M  V30 24 2 24 25
M  V30 25 1 9 26
M  V30 26 2 26 27
M  V30 27 1 5 28
M  V30 28 1 28 29
M  V30 29 1 29 2
M  V30 30 1 27 6
M  V30 31 1 25 11
M  V30 32 1 24 14
M  V30 33 1 23 18
M  V30 34 1 1 30
M  V30 35 1 1 31
M  V30 36 1 1 32
M  V30 37 1 3 33
M  V30 38 1 3 34
M  V30 39 1 4 35
M  V30 40 1 4 36
M  V30 41 1 7 37
M  V30 42 1 8 38
M  V30 43 1 10 39
M  V30 44 1 13 40
M  V30 45 1 15 41
M  V30 46 1 16 42
M  V30 47 1 19 43
M  V30 48 1 20 44
M  V30 49 1 21 45
M  V30 50 1 23 46
M  V30 51 1 26 47
M  V30 52 1 27 48
M  V30 53 1 28 49
M  V30 54 1 28 50
M  V30 55 1 29 51
M  V30 56 1 29 52
M  V30 END BOND
M  V30 END CTAB
M  END
>  <Dataset>  (991) 
ChEMBL_Kinases

>  <Ligand_Instance>  (991) 
nan

>  <PDB_ID>  (991) 
nan

>  <Standardized_SMILES>  (991) 
CN1CCN(c2ccc(Nc3ncc4ccn(-c5cccnc5)c4n3)cc2)CC1

>  <Name>  (991) 
nan

>  <Pocket>  (991) 
nan

>  <ATP_Site>  (991) 
nan

>  <Peripheral>  (991) 
nan

>  <Num_H_Atoms_ProtBoundConf>  (991) 
nan

>  <Num_Resolved_Atoms>  (991) 
nan

>  <Num_Not_Resolved_Atoms>  (991) 
nan

$$$$
CHEMBL213831
     RDKit          3D

  0  0  0  0  0  0  0  0  0  0999 V3000
M  V30 BEGIN CTAB
M  V30 COUNTS 76 80 0 0 0
M  V30 BEGIN ATOM
M  V30 1 C 1.941086 -6.355490 7.733529 0
M  V30 2 N 2.901259 -6.470299 6.645893 0
M  V30 3 C 2.786556 -5.386992 5.758993 0
M  V30 4 N 1.934143 -5.504552 4.705345 0
M  V30 5 C 1.788284 -4.485641 3.820930 0
M  V30 6 C 2.494853 -3.305510 3.960594 0
M  V30 7 C 2.381438 -2.241344 3.088426 0
M  V30 8 C 3.114459 -1.060321 3.262602 0
M  V30 9 C 2.810537 -0.096834 2.206658 0
M  V30 10 C 1.479949 0.139122 1.845880 0
M  V30 11 C 1.130815 1.018083 0.873575 0
M  V30 12 C -0.234108 1.313350 0.449075 0
M  V30 13 O -0.445660 2.132455 -0.506698 0
M  V30 14 N -1.347148 0.698135 1.088009 0
M  V30 15 C -2.730984 0.915512 0.745910 0
M  V30 16 C -3.411267 1.956507 1.342989 0
M  V30 17 C -4.755463 2.149668 1.003794 0
M  V30 18 C -5.532932 3.258092 1.618701 0
M  V30 19 F -6.506516 2.762311 2.452671 0
M  V30 20 F -6.141315 4.037253 0.646820 0
M  V30 21 F -4.717982 4.078212 2.348157 0
M  V30 22 C -5.348574 1.302185 0.094262 0
M  V30 23 C -4.640063 0.259405 -0.493725 0
M  V30 24 C -3.298591 0.033314 -0.182515 0
M  V30 25 N -2.538800 -1.024054 -0.747929 0
M  V30 26 C -1.821952 -0.861891 -1.957942 0
M  V30 27 O -1.921842 0.273412 -2.475676 0
M  V30 28 N -1.037024 -1.853817 -2.588213 0
M  V30 29 C -0.253588 -1.862050 -3.798762 0
M  V30 30 C -1.012618 -1.588763 -5.055683 0
M  V30 31 N -1.618241 -0.272741 -5.093451 0
M  V30 32 C -2.421219 -0.131279 -6.332816 0
M  V30 33 C -3.325247 1.058115 -6.124284 0
M  V30 34 O -2.669046 1.950558 -5.257325 0
M  V30 35 C -1.311183 2.036258 -5.592105 0
M  V30 36 C -0.564751 0.749760 -5.297461 0
M  V30 37 C 2.177838 1.670719 0.256879 0
M  V30 38 C 3.519285 1.511989 0.535677 0
M  V30 39 C 3.807862 0.593454 1.545817 0
M  V30 40 C 5.244278 0.395136 1.874714 0
M  V30 41 C 3.967916 -0.980453 4.343438 0
M  V30 42 C 4.076035 -2.047158 5.210136 0
M  V30 43 C 3.354003 -3.210126 5.038197 0
M  V30 44 N 3.488836 -4.229872 5.908603 0
M  V30 45 H 2.078637 -7.280000 8.354695 0
M  V30 46 H 0.902155 -6.446377 7.340947 0
M  V30 47 H 2.098717 -5.480984 8.364142 0
M  V30 48 H 3.640469 -7.172276 6.391353 0
M  V30 49 H 1.111375 -4.567896 2.975669 0
M  V30 50 H 1.679771 -2.439011 2.289759 0
M  V30 51 H 0.693707 -0.401318 2.363320 0
M  V30 52 H -1.239002 0.023225 1.876541 0
M  V30 53 H -2.919603 2.600174 2.048539 0
M  V30 54 H -6.403419 1.477161 -0.152674 0
M  V30 55 H -5.133734 -0.390017 -1.205987 0
M  V30 56 H -2.500986 -1.949837 -0.266869 0
M  V30 57 H -1.078367 -2.744374 -1.997544 0
M  V30 58 H 0.247837 -2.847814 -3.837294 0
M  V30 59 H 0.602826 -1.133841 -3.671111 0
M  V30 60 H -0.293290 -1.646097 -5.905182 0
M  V30 61 H -1.768691 -2.367281 -5.273954 0
M  V30 62 H -3.039608 -1.028814 -6.475092 0
M  V30 63 H -1.731534 0.037429 -7.180175 0
M  V30 64 H -3.593268 1.563169 -7.064385 0
M  V30 65 H -4.259086 0.757153 -5.587699 0
M  V30 66 H -1.283158 2.306553 -6.681593 0
M  V30 67 H -0.879599 2.878581 -5.014336 0
M  V30 68 H 0.077378 0.842448 -4.414574 0
M  V30 69 H -0.024284 0.457519 -6.216257 0
M  V30 70 H 1.966034 2.394476 -0.537831 0
M  V30 71 H 4.282675 2.064756 0.003504 0
M  V30 72 H 5.466068 -0.609417 2.242191 0
M  V30 73 H 5.888412 0.588220 0.985649 0
M  V30 74 H 5.613999 1.140786 2.634366 0
M  V30 75 H 4.477459 -0.030482 4.378634 0
M  V30 76 H 4.759396 -1.899459 6.019011 0
M  V30 END ATOM
M  V30 BEGIN BOND
M  V30 1 1 1 2
M  V30 2 1 2 3
M  V30 3 2 3 4
M  V30 4 1 4 5
M  V30 5 2 5 6
M  V30 6 1 6 7
M  V30 7 2 7 8
M  V30 8 1 8 9
M  V30 9 2 9 10
M  V30 10 1 10 11
M  V30 11 1 11 12
M  V30 12 2 12 13
M  V30 13 1 12 14
M  V30 14 1 14 15
M  V30 15 2 15 16
M  V30 16 1 16 17
M  V30 17 1 17 18
M  V30 18 1 18 19
M  V30 19 1 18 20
M  V30 20 1 18 21
M  V30 21 2 17 22
M  V30 22 1 22 23
M  V30 23 2 23 24
M  V30 24 1 24 25
M  V30 25 1 25 26
M  V30 26 2 26 27
M  V30 27 1 26 28
M  V30 28 1 28 29
M  V30 29 1 29 30
M  V30 30 1 30 31
M  V30 31 1 31 32
M  V30 32 1 32 33
M  V30 33 1 33 34
M  V30 34 1 34 35
M  V30 35 1 35 36
M  V30 36 2 11 37
M  V30 37 1 37 38
M  V30 38 2 38 39
M  V30 39 1 39 40
M  V30 40 1 8 41
M  V30 41 2 41 42
M  V30 42 1 42 43
M  V30 43 2 43 44
M  V30 44 1 44 3
M  V30 45 1 43 6
M  V30 46 1 39 9
M  V30 47 1 24 15
M  V30 48 1 36 31
M  V30 49 1 1 45
M  V30 50 1 1 46
M  V30 51 1 1 47
M  V30 52 1 2 48
M  V30 53 1 5 49
M  V30 54 1 7 50
M  V30 55 1 10 51
M  V30 56 1 14 52
M  V30 57 1 16 53
M  V30 58 1 22 54
M  V30 59 1 23 55
M  V30 60 1 25 56
M  V30 61 1 28 57
M  V30 62 1 29 58
M  V30 63 1 29 59
M  V30 64 1 30 60
M  V30 65 1 30 61
M  V30 66 1 32 62
M  V30 67 1 32 63
M  V30 68 1 33 64
M  V30 69 1 33 65
M  V30 70 1 35 66
M  V30 71 1 35 67
M  V30 72 1 36 68
M  V30 73 1 36 69
M  V30 74 1 37 70
M  V30 75 1 38 71
M  V30 76 1 40 72
M  V30 77 1 40 73
M  V30 78 1 40 74
M  V30 79 1 41 75
M  V30 80 1 42 76
M  V30 END BOND
M  V30 END CTAB
M  END
>  <Dataset>  (992) 
ChEMBL_Kinases

>  <Ligand_Instance>  (992) 
nan

>  <PDB_ID>  (992) 
nan

>  <Standardized_SMILES>  (992) 
CNc1ncc2cc(-c3cc(C(=O)Nc4cc(C(F)(F)F)ccc4NC(=O)NCCN4CCOCC4)ccc3C)ccc2n1

>  <Name>  (992) 
nan

>  <Pocket>  (992) 
nan

>  <ATP_Site>  (992) 
nan

>  <Peripheral>  (992) 
nan

>  <Num_H_Atoms_ProtBoundConf>  (992) 
nan

>  <Num_Resolved_Atoms>  (992) 
nan

>  <Num_Not_Resolved_Atoms>  (992) 
nan

$$$$
CHEMBL213836
     RDKit          3D

  0  0  0  0  0  0  0  0  0  0999 V3000
M  V30 BEGIN CTAB
M  V30 COUNTS 49 52 0 0 0
M  V30 BEGIN ATOM
M  V30 1 C -0.172370 0.060342 4.122514 0
M  V30 2 O -0.030438 -1.293888 3.923127 0
M  V30 3 C 1.120977 -1.849694 4.376943 0
M  V30 4 C 2.384210 -1.302248 3.760779 0
M  V30 5 N 2.401674 -1.501366 2.323688 0
M  V30 6 C 1.573174 -1.043252 1.264714 0
M  V30 7 N 1.901622 0.033569 0.524685 0
M  V30 8 C 1.191214 0.527560 -0.486205 0
M  V30 9 C 1.644518 1.719852 -1.188197 0
M  V30 10 C 2.008209 1.936348 -2.512796 0
M  V30 11 C 2.416773 3.187461 -2.909383 0
M  V30 12 C 2.487745 4.261199 -2.047642 0
M  V30 13 Cl 3.019807 5.832480 -2.656614 0
M  V30 14 C 2.130908 4.073805 -0.714797 0
M  V30 15 C 1.721724 2.819339 -0.320370 0
M  V30 16 Cl 1.298486 2.755073 1.398226 0
M  V30 17 C 0.012662 -0.101881 -0.821591 0
M  V30 18 C -0.345984 -1.211759 -0.072087 0
M  V30 19 N 0.417621 -1.675182 0.950487 0
M  V30 20 N -1.564334 -1.915716 -0.313505 0
M  V30 21 C -2.037436 -3.057596 0.387472 0
M  V30 22 C -2.833172 -2.687175 1.471701 0
M  V30 23 Cl -3.217600 -1.043607 1.930188 0
M  V30 24 C -3.399485 -3.657986 2.298462 0
M  V30 25 C -3.138867 -4.978251 1.996395 0
M  V30 26 C -2.361183 -5.366216 0.938202 0
M  V30 27 C -1.801162 -4.397755 0.119773 0
M  V30 28 Cl -0.775334 -4.674759 -1.284232 0
M  V30 29 C -2.436590 -1.471458 -1.346051 0
M  V30 30 O -3.522698 -2.017390 -1.636440 0
M  V30 31 N -2.045139 -0.337399 -2.089589 0
M  V30 32 C -0.799809 0.394341 -1.930195 0
M  V30 33 H -1.160407 0.339410 3.689889 0
M  V30 34 H -0.264556 0.283704 5.209079 0
M  V30 35 H 0.569576 0.677415 3.605092 0
M  V30 36 H 1.104901 -2.941610 4.152507 0
M  V30 37 H 1.146191 -1.763528 5.483158 0
M  V30 38 H 2.598113 -0.246776 4.035016 0
M  V30 39 H 3.233141 -1.893659 4.155528 0
M  V30 40 H 3.070058 -2.056376 1.715949 0
M  V30 41 H 1.922543 1.038575 -3.089941 0
M  V30 42 H 2.678201 3.264604 -3.949172 0
M  V30 43 H 2.196511 4.927479 -0.064398 0
M  V30 44 H -4.030997 -3.420655 3.161216 0
M  V30 45 H -3.564840 -5.762328 2.618521 0
M  V30 46 H -2.124460 -6.387492 0.653812 0
M  V30 47 H -2.668503 0.057795 -2.842088 0
M  V30 48 H -0.307077 0.299553 -2.941663 0
M  V30 49 H -1.055215 1.459646 -1.804569 0
M  V30 END ATOM
M  V30 BEGIN BOND
M  V30 1 1 1 2
M  V30 2 1 2 3
M  V30 3 1 3 4
M  V30 4 1 4 5
M  V30 5 1 5 6
M  V30 6 2 6 7
M  V30 7 1 7 8
M  V30 8 1 8 9
M  V30 9 2 9 10
M  V30 10 1 10 11
M  V30 11 2 11 12
M  V30 12 1 12 13
M  V30 13 1 12 14
M  V30 14 2 14 15
M  V30 15 1 15 16
M  V30 16 2 8 17
M  V30 17 1 17 18
M  V30 18 2 18 19
M  V30 19 1 18 20
M  V30 20 1 20 21
M  V30 21 2 21 22
M  V30 22 1 22 23
M  V30 23 1 22 24
M  V30 24 2 24 25
M  V30 25 1 25 26
M  V30 26 2 26 27
M  V30 27 1 27 28
M  V30 28 1 20 29
M  V30 29 2 29 30
M  V30 30 1 29 31
M  V30 31 1 31 32
M  V30 32 1 19 6
M  V30 33 1 27 21
M  V30 34 1 15 9
M  V30 35 1 32 17
M  V30 36 1 1 33
M  V30 37 1 1 34
M  V30 38 1 1 35
M  V30 39 1 3 36
M  V30 40 1 3 37
M  V30 41 1 4 38
M  V30 42 1 4 39
M  V30 43 1 5 40
M  V30 44 1 10 41
M  V30 45 1 11 42
M  V30 46 1 14 43
M  V30 47 1 24 44
M  V30 48 1 25 45
M  V30 49 1 26 46
M  V30 50 1 31 47
M  V30 51 1 32 48
M  V30 52 1 32 49
M  V30 END BOND
M  V30 END CTAB
M  END
>  <Dataset>  (993) 
ChEMBL_Kinases

>  <Ligand_Instance>  (993) 
nan

>  <PDB_ID>  (993) 
nan

>  <Standardized_SMILES>  (993) 
COCCNc1nc(-c2ccc(Cl)cc2Cl)c2c(n1)N(c1c(Cl)cccc1Cl)C(=O)NC2

>  <Name>  (993) 
nan

>  <Pocket>  (993) 
nan

>  <ATP_Site>  (993) 
nan

>  <Peripheral>  (993) 
nan

>  <Num_H_Atoms_ProtBoundConf>  (993) 
nan

>  <Num_Resolved_Atoms>  (993) 
nan

>  <Num_Not_Resolved_Atoms>  (993) 
nan

$$$$
CHEMBL213846
     RDKit          3D

  0  0  0  0  0  0  0  0  0  0999 V3000
M  V30 BEGIN CTAB
M  V30 COUNTS 38 41 0 0 0
M  V30 BEGIN ATOM
M  V30 1 O 1.210679 -3.992112 2.635255 0
M  V30 2 C 1.327801 -2.889469 2.027173 0
M  V30 3 N 2.189737 -2.340547 1.077648 0
M  V30 4 C 2.099315 -1.143336 0.272460 0
M  V30 5 C 1.183562 -0.097631 0.793801 0
M  V30 6 C 1.326506 1.153266 0.347238 0
M  V30 7 C 1.993449 1.208821 -0.873873 0
M  V30 8 C 0.812444 0.710148 -1.667720 0
M  V30 9 C 0.508757 0.466318 -3.021777 0
M  V30 10 C 1.565454 0.745291 -3.876642 0
M  V30 11 C 2.730903 1.216560 -3.271500 0
M  V30 12 C 2.807641 1.382874 -1.900749 0
M  V30 13 Cl 4.170724 1.996609 -0.913951 0
M  V30 14 N 0.574196 2.108556 1.008472 0
M  V30 15 C -0.231573 1.661909 2.000203 0
M  V30 16 O -1.097952 2.352745 2.831096 0
M  V30 17 N -0.278183 0.361639 2.318486 0
M  V30 18 C 0.428745 -0.709348 1.752670 0
M  V30 19 N 0.316284 -2.011494 2.430358 0
M  V30 20 C -0.943446 -1.882187 3.046019 0
M  V30 21 C -1.705519 -1.534159 4.080267 0
M  V30 22 Cl -0.561681 -1.188550 5.352543 0
M  V30 23 C -3.073431 -1.534235 3.991403 0
M  V30 24 C -3.734595 -1.881051 2.851666 0
M  V30 25 C -3.190343 -2.279469 1.670396 0
M  V30 26 C -1.786496 -2.247436 1.892412 0
M  V30 27 Cl -1.037704 -2.820107 0.321575 0
M  V30 28 H 3.068146 -2.965443 0.956521 0
M  V30 29 H 1.855810 -1.450200 -0.750709 0
M  V30 30 H 3.149063 -0.702404 0.207031 0
M  V30 31 H -0.249432 0.401549 -1.284267 0
M  V30 32 H -0.327906 0.146782 -3.583169 0
M  V30 33 H 1.680658 0.728339 -4.930966 0
M  V30 34 H 3.669710 1.544638 -3.737138 0
M  V30 35 H -0.939419 3.151125 3.395919 0
M  V30 36 H -3.525542 -1.181188 4.930702 0
M  V30 37 H -4.812386 -1.772323 2.917518 0
M  V30 38 H -3.699257 -2.535611 0.785808 0
M  V30 END ATOM
M  V30 BEGIN BOND
M  V30 1 2 1 2
M  V30 2 1 2 3
M  V30 3 1 3 4
M  V30 4 1 4 5
M  V30 5 2 5 6
M  V30 6 1 6 7
M  V30 7 2 7 8
M  V30 8 1 8 9
M  V30 9 2 9 10
M  V30 10 1 10 11
M  V30 11 2 11 12
M  V30 12 1 12 13
M  V30 13 1 6 14
M  V30 14 2 14 15
M  V30 15 1 15 16
M  V30 16 1 15 17
M  V30 17 2 17 18
M  V30 18 1 18 19
M  V30 19 1 19 20
M  V30 20 2 20 21
M  V30 21 1 21 22
M  V30 22 1 21 23
M  V30 23 2 23 24
M  V30 24 1 24 25
M  V30 25 2 25 26
M  V30 26 1 26 27
M  V30 27 1 19 2
M  V30 28 1 26 20
M  V30 29 1 18 5
M  V30 30 1 12 7
M  V30 31 1 3 28
M  V30 32 1 4 29
M  V30 33 1 4 30
M  V30 34 1 8 31
M  V30 35 1 9 32
M  V30 36 1 10 33
M  V30 37 1 11 34
M  V30 38 1 16 35
M  V30 39 1 23 36
M  V30 40 1 24 37
M  V30 41 1 25 38
M  V30 END BOND
M  V30 END CTAB
M  END
>  <Dataset>  (994) 
ChEMBL_Kinases

>  <Ligand_Instance>  (994) 
nan

>  <PDB_ID>  (994) 
nan

>  <Standardized_SMILES>  (994) 
O=C1NCc2c(-c3ccccc3Cl)nc(O)nc2N1c1c(Cl)cccc1Cl

>  <Name>  (994) 
nan

>  <Pocket>  (994) 
nan

>  <ATP_Site>  (994) 
nan

>  <Peripheral>  (994) 
nan

>  <Num_H_Atoms_ProtBoundConf>  (994) 
nan

>  <Num_Resolved_Atoms>  (994) 
nan

>  <Num_Not_Resolved_Atoms>  (994) 
nan

$$$$
CHEMBL2138625
     RDKit          3D

  0  0  0  0  0  0  0  0  0  0999 V3000
M  V30 BEGIN CTAB
M  V30 COUNTS 64 67 0 0 0
M  V30 BEGIN ATOM
M  V30 1 C 2.729104 -3.936090 3.168272 0
M  V30 2 C 3.111201 -3.154840 2.169457 0
M  V30 3 C 1.896746 -2.324181 2.291031 0
M  V30 4 O 1.244744 -2.835854 3.238518 0
M  V30 5 N 1.625544 -1.195797 1.449483 0
M  V30 6 C 0.375300 -0.619398 1.831417 0
M  V30 7 C 0.237829 0.389974 2.792068 0
M  V30 8 C -1.033300 0.875411 3.082697 0
M  V30 9 C -1.153381 1.884047 4.045484 0
M  V30 10 N 0.047121 2.356076 4.674323 0
M  V30 11 C 0.674937 3.452764 4.014406 0
M  V30 12 C 0.146082 3.996018 2.871146 0
M  V30 13 C 0.722541 5.070114 2.187350 0
M  V30 14 C 1.874939 5.571341 2.726941 0
M  V30 15 F 2.459055 6.608600 2.093087 0
M  V30 16 C 2.460422 5.075288 3.870609 0
M  V30 17 Cl 3.924971 5.738356 4.525829 0
M  V30 18 C 1.846153 4.013209 4.503683 0
M  V30 19 N -2.384544 2.350897 4.324139 0
M  V30 20 C -3.478297 1.862579 3.694397 0
M  V30 21 N -3.330197 0.892270 2.772825 0
M  V30 22 C -2.137234 0.363787 2.428913 0
M  V30 23 C -2.012129 -0.634584 1.477219 0
M  V30 24 C -0.748419 -1.112420 1.192878 0
M  V30 25 C -0.680400 -2.152487 0.192946 0
M  V30 26 C -0.612916 -3.008881 -0.655480 0
M  V30 27 C -0.528747 -4.042038 -1.714534 0
M  V30 28 C 0.898883 -4.506977 -1.774261 0
M  V30 29 C -1.515512 -5.136513 -1.401412 0
M  V30 30 N -0.902559 -3.485633 -3.003216 0
M  V30 31 C -2.241565 -2.974283 -3.013331 0
M  V30 32 C -2.351834 -1.483173 -3.153922 0
M  V30 33 N -1.417867 -0.911234 -4.054631 0
M  V30 34 C -1.104669 0.441234 -3.908448 0
M  V30 35 C -0.482874 -1.797390 -4.642601 0
M  V30 36 C 0.108641 -2.624701 -3.518114 0
M  V30 37 H 2.141984 -4.366320 3.993399 0
M  V30 38 H 3.100217 -4.811744 3.703810 0
M  V30 39 H 4.070578 -3.583383 1.863607 0
M  V30 40 H 2.365611 -1.006586 0.734717 0
M  V30 41 H 1.151205 0.749945 3.271504 0
M  V30 42 H 0.496756 1.985362 5.546913 0
M  V30 43 H -0.766084 3.595800 2.448040 0
M  V30 44 H 0.260431 5.466856 1.278549 0
M  V30 45 H 2.316888 3.619712 5.416897 0
M  V30 46 H -4.437313 2.280933 3.964676 0
M  V30 47 H -2.918042 -1.001706 0.991951 0
M  V30 48 H 1.076975 -5.348060 -1.059762 0
M  V30 49 H 1.115812 -4.889250 -2.812890 0
M  V30 50 H 1.586108 -3.671773 -1.576296 0
M  V30 51 H -1.034143 -5.997182 -0.853470 0
M  V30 52 H -1.909462 -5.585647 -2.338727 0
M  V30 53 H -2.382481 -4.791042 -0.829174 0
M  V30 54 H -2.763176 -3.426971 -3.903233 0
M  V30 55 H -2.845766 -3.278892 -2.134018 0
M  V30 56 H -3.386353 -1.247034 -3.486043 0
M  V30 57 H -2.227953 -0.982948 -2.160348 0
M  V30 58 H -1.281890 0.755533 -2.849802 0
M  V30 59 H -0.027772 0.635448 -4.117964 0
M  V30 60 H -1.698030 1.152737 -4.544029 0
M  V30 61 H 0.343361 -1.161621 -5.072946 0
M  V30 62 H -0.871102 -2.497748 -5.398105 0
M  V30 63 H 0.908472 -3.234011 -3.987664 0
M  V30 64 H 0.557866 -1.951280 -2.735047 0
M  V30 END ATOM
M  V30 BEGIN BOND
M  V30 1 2 1 2
M  V30 2 1 2 3
M  V30 3 2 3 4
M  V30 4 1 3 5
M  V30 5 1 5 6
M  V30 6 2 6 7
M  V30 7 1 7 8
M  V30 8 2 8 9
M  V30 9 1 9 10
M  V30 10 1 10 11
M  V30 11 2 11 12
M  V30 12 1 12 13
M  V30 13 2 13 14
M  V30 14 1 14 15
M  V30 15 1 14 16
M  V30 16 1 16 17
M  V30 17 2 16 18
M  V30 18 1 9 19
M  V30 19 2 19 20
M  V30 20 1 20 21
M  V30 21 2 21 22
M  V30 22 1 22 23
M  V30 23 2 23 24
M  V30 24 1 24 25
M  V30 25 3 25 26
M  V30 26 1 26 27
M  V30 27 1 27 28
M  V30 28 1 27 29
M  V30 29 1 27 30
M  V30 30 1 30 31
M  V30 31 1 31 32
M  V30 32 1 32 33
M  V30 33 1 33 34
M  V30 34 1 33 35
M  V30 35 1 35 36
M  V30 36 1 24 6
M  V30 37 1 36 30
M  V30 38 1 22 8
M  V30 39 1 18 11
M  V30 40 1 1 37
M  V30 41 1 1 38
M  V30 42 1 2 39
M  V30 43 1 5 40
M  V30 44 1 7 41
M  V30 45 1 10 42
M  V30 46 1 12 43
M  V30 47 1 13 44
M  V30 48 1 18 45
M  V30 49 1 20 46
M  V30 50 1 23 47
M  V30 51 1 28 48
M  V30 52 1 28 49
M  V30 53 1 28 50
M  V30 54 1 29 51
M  V30 55 1 29 52
M  V30 56 1 29 53
M  V30 57 1 31 54
M  V30 58 1 31 55
M  V30 59 1 32 56
M  V30 60 1 32 57
M  V30 61 1 34 58
M  V30 62 1 34 59
M  V30 63 1 34 60
M  V30 64 1 35 61
M  V30 65 1 35 62
M  V30 66 1 36 63
M  V30 67 1 36 64
M  V30 END BOND
M  V30 END CTAB
M  END
>  <Dataset>  (995) 
ChEMBL_Kinases

>  <Ligand_Instance>  (995) 
nan

>  <PDB_ID>  (995) 
nan

>  <Standardized_SMILES>  (995) 
C=CC(=O)Nc1cc2c(Nc3ccc(F)c(Cl)c3)ncnc2cc1C#CC(C)(C)N1CCN(C)CC1

>  <Name>  (995) 
nan

>  <Pocket>  (995) 
nan

>  <ATP_Site>  (995) 
nan

>  <Peripheral>  (995) 
nan

>  <Num_H_Atoms_ProtBoundConf>  (995) 
nan

>  <Num_Resolved_Atoms>  (995) 
nan

>  <Num_Not_Resolved_Atoms>  (995) 
nan

$$$$
CHEMBL213895
     RDKit          3D

  0  0  0  0  0  0  0  0  0  0999 V3000
M  V30 BEGIN CTAB
M  V30 COUNTS 48 51 0 0 0
M  V30 BEGIN ATOM
M  V30 1 C 2.793999 -0.350178 3.587808 0
M  V30 2 C 2.601903 -1.759936 3.069239 0
M  V30 3 C 2.866221 -2.756875 4.180021 0
M  V30 4 N 1.221364 -1.953092 2.623996 0
M  V30 5 C 0.655744 -1.181979 1.560252 0
M  V30 6 N 1.338456 -0.253248 0.882544 0
M  V30 7 C 0.849303 0.494292 -0.123009 0
M  V30 8 C 1.781304 1.452855 -0.695673 0
M  V30 9 C 2.116876 1.320811 -2.040172 0
M  V30 10 C 3.016408 2.208177 -2.594994 0
M  V30 11 C 3.610417 3.228746 -1.893956 0
M  V30 12 C 3.264854 3.348306 -0.549760 0
M  V30 13 C 2.365945 2.469981 0.024821 0
M  V30 14 Cl 1.942581 2.642950 1.725236 0
M  V30 15 C -0.460567 0.301239 -0.497049 0
M  V30 16 C -1.153620 -0.657685 0.209309 0
M  V30 17 N -0.623828 -1.383610 1.207612 0
M  V30 18 N -2.528868 -0.906245 -0.074537 0
M  V30 19 C -3.255761 -1.898884 0.649283 0
M  V30 20 C -3.951725 -1.756591 1.822802 0
M  V30 21 Cl -3.947019 -0.173798 2.530241 0
M  V30 22 C -4.600532 -2.850979 2.365670 0
M  V30 23 C -4.582047 -4.112422 1.768095 0
M  V30 24 C -3.864657 -4.222692 0.574645 0
M  V30 25 C -3.201364 -3.129520 0.009555 0
M  V30 26 Cl -2.344184 -3.442543 -1.506822 0
M  V30 27 C -3.235229 -0.173468 -1.091262 0
M  V30 28 O -4.439880 -0.342422 -1.390967 0
M  V30 29 N -2.435217 0.792967 -1.755448 0
M  V30 30 C -1.022551 1.103736 -1.582271 0
M  V30 31 H 1.828371 0.155027 3.651051 0
M  V30 32 H 3.544187 0.213460 2.975932 0
M  V30 33 H 3.222941 -0.402445 4.633142 0
M  V30 34 H 3.344841 -1.915692 2.281407 0
M  V30 35 H 1.965673 -2.685269 4.853200 0
M  V30 36 H 2.959254 -3.769966 3.744746 0
M  V30 37 H 3.778442 -2.539312 4.746869 0
M  V30 38 H 0.617598 -2.669614 3.085469 0
M  V30 39 H 1.772376 0.586586 -2.746530 0
M  V30 40 H 3.333181 2.170602 -3.640338 0
M  V30 41 H 4.314800 3.923273 -2.327633 0
M  V30 42 H 3.740611 4.167444 0.011262 0
M  V30 43 H -5.147676 -2.721539 3.296989 0
M  V30 44 H -5.092595 -4.959237 2.204971 0
M  V30 45 H -3.828960 -5.201704 0.073347 0
M  V30 46 H -2.906030 1.395492 -2.493951 0
M  V30 47 H -0.945415 2.180061 -1.319647 0
M  V30 48 H -0.535900 0.847733 -2.530769 0
M  V30 END ATOM
M  V30 BEGIN BOND
M  V30 1 1 1 2
M  V30 2 1 2 3
M  V30 3 1 2 4
M  V30 4 1 4 5
M  V30 5 2 5 6
M  V30 6 1 6 7
M  V30 7 1 7 8
M  V30 8 2 8 9
M  V30 9 1 9 10
M  V30 10 2 10 11
M  V30 11 1 11 12
M  V30 12 2 12 13
M  V30 13 1 13 14
M  V30 14 2 7 15
M  V30 15 1 15 16
M  V30 16 2 16 17
M  V30 17 1 16 18
M  V30 18 1 18 19
M  V30 19 2 19 20
M  V30 20 1 20 21
M  V30 21 1 20 22
M  V30 22 2 22 23
M  V30 23 1 23 24
M  V30 24 2 24 25
M  V30 25 1 25 26
M  V30 26 1 18 27
M  V30 27 2 27 28
M  V30 28 1 27 29
M  V30 29 1 29 30
M  V30 30 1 17 5
M  V30 31 1 25 19
M  V30 32 1 13 8
M  V30 33 1 30 15
M  V30 34 1 1 31
M  V30 35 1 1 32
M  V30 36 1 1 33
M  V30 37 1 2 34
M  V30 38 1 3 35
M  V30 39 1 3 36
M  V30 40 1 3 37
M  V30 41 1 4 38
M  V30 42 1 9 39
M  V30 43 1 10 40
M  V30 44 1 11 41
M  V30 45 1 12 42
M  V30 46 1 22 43
M  V30 47 1 23 44
M  V30 48 1 24 45
M  V30 49 1 29 46
M  V30 50 1 30 47
M  V30 51 1 30 48
M  V30 END BOND
M  V30 END CTAB
M  END
>  <Dataset>  (996) 
ChEMBL_Kinases

>  <Ligand_Instance>  (996) 
nan

>  <PDB_ID>  (996) 
nan

>  <Standardized_SMILES>  (996) 
CC(C)Nc1nc(-c2ccccc2Cl)c2c(n1)N(c1c(Cl)cccc1Cl)C(=O)NC2

>  <Name>  (996) 
nan

>  <Pocket>  (996) 
nan

>  <ATP_Site>  (996) 
nan

>  <Peripheral>  (996) 
nan

>  <Num_H_Atoms_ProtBoundConf>  (996) 
nan

>  <Num_Resolved_Atoms>  (996) 
nan

>  <Num_Not_Resolved_Atoms>  (996) 
nan

$$$$
CHEMBL213986
     RDKit          3D

  0  0  0  0  0  0  0  0  0  0999 V3000
M  V30 BEGIN CTAB
M  V30 COUNTS 53 58 0 0 0
M  V30 BEGIN ATOM
M  V30 1 O 0.732029 -2.954275 5.068322 0
M  V30 2 C 1.011582 -2.424500 3.979875 0
M  V30 3 N 2.351728 -2.046595 3.687039 0
M  V30 4 C 2.942026 -1.452979 2.498097 0
M  V30 5 C 1.884852 -1.176535 1.497857 0
M  V30 6 C 2.155360 -0.569620 0.292983 0
M  V30 7 C 3.488652 -0.133210 -0.096941 0
M  V30 8 C 4.685225 -0.793218 -0.250244 0
M  V30 9 C 5.818004 -0.127757 -0.648547 0
M  V30 10 C 5.820179 1.224635 -0.914816 0
M  V30 11 C 4.634087 1.910740 -0.769494 0
M  V30 12 C 3.472654 1.242509 -0.363839 0
M  V30 13 Cl 2.064744 2.307095 -0.240620 0
M  V30 14 N 1.155390 -0.330945 -0.606712 0
M  V30 15 C -0.124602 -0.670513 -0.368714 0
M  V30 16 N -1.183357 -0.431846 -1.289850 0
M  V30 17 C -0.946058 0.235224 -2.556363 0
M  V30 18 C -1.760970 1.530575 -2.503526 0
M  V30 19 C -3.173347 1.238208 -2.196778 0
M  V30 20 N -4.349954 1.828563 -2.461991 0
M  V30 21 N -5.364755 1.165261 -1.956981 0
M  V30 22 C -4.854961 0.092185 -1.330599 0
M  V30 23 C -3.469823 0.127230 -1.475330 0
M  V30 24 C -2.516683 -0.873928 -0.934192 0
M  V30 25 N -0.361962 -1.256684 0.804048 0
M  V30 26 C 0.573104 -1.517876 1.729165 0
M  V30 27 N 0.111906 -2.126857 2.922826 0
M  V30 28 C -1.259854 -2.458192 3.104106 0
M  V30 29 C -1.929384 -3.625793 2.802074 0
M  V30 30 Cl -0.922503 -4.863935 2.098043 0
M  V30 31 C -3.277892 -3.726304 3.064516 0
M  V30 32 C -4.007758 -2.699432 3.625016 0
M  V30 33 C -3.322864 -1.520292 3.928297 0
M  V30 34 C -1.963648 -1.391081 3.674332 0
M  V30 35 Cl -1.281334 0.149258 4.118197 0
M  V30 36 H 3.112777 -2.186825 4.401802 0
M  V30 37 H 3.712747 -2.156073 2.122253 0
M  V30 38 H 3.431818 -0.490930 2.808363 0
M  V30 39 H 4.587357 -1.844812 -0.029505 0
M  V30 40 H 6.670174 -0.812537 -0.714985 0
M  V30 41 H 6.772992 1.635378 -1.220263 0
M  V30 42 H 4.666260 2.968876 -0.985920 0
M  V30 43 H -1.382592 -0.370493 -3.377247 0
M  V30 44 H 0.107087 0.448194 -2.734927 0
M  V30 45 H -1.635702 2.146313 -3.416181 0
M  V30 46 H -1.353765 2.119090 -1.638882 0
M  V30 47 H -6.376968 1.415107 -2.023783 0
M  V30 48 H -5.502995 -0.634720 -0.817665 0
M  V30 49 H -2.608492 -1.028404 0.162692 0
M  V30 50 H -2.717227 -1.872587 -1.379469 0
M  V30 51 H -3.746376 -4.686614 2.797670 0
M  V30 52 H -5.061916 -2.802245 3.820805 0
M  V30 53 H -3.918926 -0.739817 4.363591 0
M  V30 END ATOM
M  V30 BEGIN BOND
M  V30 1 2 1 2
M  V30 2 1 2 3
M  V30 3 1 3 4
M  V30 4 1 4 5
M  V30 5 2 5 6
M  V30 6 1 6 7
M  V30 7 2 7 8
M  V30 8 1 8 9
M  V30 9 2 9 10
M  V30 10 1 10 11
M  V30 11 2 11 12
M  V30 12 1 12 13
M  V30 13 1 6 14
M  V30 14 2 14 15
M  V30 15 1 15 16
M  V30 16 1 16 17
M  V30 17 1 17 18
M  V30 18 1 18 19
M  V30 19 2 19 20
M  V30 20 1 20 21
M  V30 21 1 21 22
M  V30 22 2 22 23
M  V30 23 1 23 24
M  V30 24 1 15 25
M  V30 25 2 25 26
M  V30 26 1 26 27
M  V30 27 1 27 28
M  V30 28 2 28 29
M  V30 29 1 29 30
M  V30 30 1 29 31
M  V30 31 2 31 32
M  V30 32 1 32 33
M  V30 33 2 33 34
M  V30 34 1 34 35
M  V30 35 1 27 2
M  V30 36 1 34 28
M  V30 37 1 26 5
M  V30 38 1 12 7
M  V30 39 1 24 16
M  V30 40 1 23 19
M  V30 41 1 3 36
M  V30 42 1 4 37
M  V30 43 1 4 38
M  V30 44 1 8 39
M  V30 45 1 9 40
M  V30 46 1 10 41
M  V30 47 1 11 42
M  V30 48 1 17 43
M  V30 49 1 17 44
M  V30 50 1 18 45
M  V30 51 1 18 46
M  V30 52 1 21 47
M  V30 53 1 22 48
M  V30 54 1 24 49
M  V30 55 1 24 50
M  V30 56 1 31 51
M  V30 57 1 32 52
M  V30 58 1 33 53
M  V30 END BOND
M  V30 END CTAB
M  END
>  <Dataset>  (997) 
ChEMBL_Kinases

>  <Ligand_Instance>  (997) 
nan

>  <PDB_ID>  (997) 
nan

>  <Standardized_SMILES>  (997) 
O=C1NCc2c(-c3ccccc3Cl)nc(N3CCc4n[nH]cc4C3)nc2N1c1c(Cl)cccc1Cl

>  <Name>  (997) 
nan

>  <Pocket>  (997) 
nan

>  <ATP_Site>  (997) 
nan

>  <Peripheral>  (997) 
nan

>  <Num_H_Atoms_ProtBoundConf>  (997) 
nan

>  <Num_Resolved_Atoms>  (997) 
nan

>  <Num_Not_Resolved_Atoms>  (997) 
nan

$$$$
CHEMBL213598
     RDKit          3D

  0  0  0  0  0  0  0  0  0  0999 V3000
M  V30 BEGIN CTAB
M  V30 COUNTS 39 42 0 0 0
M  V30 BEGIN ATOM
M  V30 1 C -0.680424 -3.406983 0.770136 0
M  V30 2 C 0.472263 -3.853105 -0.128146 0
M  V30 3 C 0.201563 -3.501651 -1.554669 0
M  V30 4 C 1.730084 -3.188766 0.368229 0
M  V30 5 N 2.853949 -3.787409 0.849847 0
M  V30 6 N 3.731836 -2.854880 1.183091 0
M  V30 7 C 3.208223 -1.636824 0.930408 0
M  V30 8 C 3.659964 -0.340431 1.078142 0
M  V30 9 C 2.810127 0.691462 0.698003 0
M  V30 10 C 1.529147 0.447953 0.177995 0
M  V30 11 C 0.855945 1.683620 -0.133809 0
M  V30 12 O 1.304267 2.515211 -1.027082 0
M  V30 13 C 0.507740 3.569010 -1.123176 0
M  V30 14 N -0.513594 3.408643 -0.241482 0
M  V30 15 C -0.285292 2.218113 0.376611 0
M  V30 16 C -1.145008 1.643341 1.402799 0
M  V30 17 C -1.920104 0.502132 1.310397 0
M  V30 18 C -2.690173 0.054752 2.355749 0
M  V30 19 F -3.431235 -1.078804 2.196160 0
M  V30 20 C -2.739954 0.717197 3.569058 0
M  V30 21 F -3.510800 0.229937 4.544892 0
M  V30 22 C -1.958850 1.875089 3.674249 0
M  V30 23 C -1.175910 2.326227 2.606425 0
M  V30 24 Cl -0.289693 3.795811 2.994148 0
M  V30 25 C 1.148085 -0.873735 0.059923 0
M  V30 26 N 1.979492 -1.861564 0.430914 0
M  V30 27 H -1.021381 -4.211178 1.450351 0
M  V30 28 H -0.361457 -2.548718 1.411888 0
M  V30 29 H -1.556014 -3.097304 0.169006 0
M  V30 30 H 0.602778 -4.940255 -0.017321 0
M  V30 31 H 1.108112 -3.052846 -2.009932 0
M  V30 32 H -0.037667 -4.448486 -2.118856 0
M  V30 33 H -0.704950 -2.870824 -1.679137 0
M  V30 34 H 4.645541 -0.182873 1.478025 0
M  V30 35 H 3.265113 1.680628 0.857434 0
M  V30 36 H 0.759535 4.361971 -1.839855 0
M  V30 37 H -1.890014 -0.008445 0.382995 0
M  V30 38 H -2.036955 2.350236 4.637123 0
M  V30 39 H 0.162672 -0.967057 -0.344417 0
M  V30 END ATOM
M  V30 BEGIN BOND
M  V30 1 1 1 2
M  V30 2 1 2 3
M  V30 3 1 2 4
M  V30 4 2 4 5
M  V30 5 1 5 6
M  V30 6 2 6 7
M  V30 7 1 7 8
M  V30 8 2 8 9
M  V30 9 1 9 10
M  V30 10 1 10 11
M  V30 11 1 11 12
M  V30 12 1 12 13
M  V30 13 2 13 14
M  V30 14 1 14 15
M  V30 15 1 15 16
M  V30 16 2 16 17
M  V30 17 1 17 18
M  V30 18 1 18 19
M  V30 19 2 18 20
M  V30 20 1 20 21
M  V30 21 1 20 22
M  V30 22 2 22 23
M  V30 23 1 23 24
M  V30 24 2 10 25
M  V30 25 1 25 26
M  V30 26 1 26 4
M  V30 27 1 26 7
M  V30 28 2 15 11
M  V30 29 1 23 16
M  V30 30 1 1 27
M  V30 31 1 1 28
M  V30 32 1 1 29
M  V30 33 1 2 30
M  V30 34 1 3 31
M  V30 35 1 3 32
M  V30 36 1 3 33
M  V30 37 1 8 34
M  V30 38 1 9 35
M  V30 39 1 13 36
M  V30 40 1 17 37
M  V30 41 1 22 38
M  V30 42 1 25 39
M  V30 END BOND
M  V30 END CTAB
M  END
>  <Dataset>  (998) 
ChEMBL_Kinases

>  <Ligand_Instance>  (998) 
nan

>  <PDB_ID>  (998) 
nan

>  <Standardized_SMILES>  (998) 
CC(C)c1nnc2ccc(-c3ocnc3-c3cc(F)c(F)cc3Cl)cn12

>  <Name>  (998) 
nan

>  <Pocket>  (998) 
nan

>  <ATP_Site>  (998) 
nan

>  <Peripheral>  (998) 
nan

>  <Num_H_Atoms_ProtBoundConf>  (998) 
nan

>  <Num_Resolved_Atoms>  (998) 
nan

>  <Num_Not_Resolved_Atoms>  (998) 
nan

$$$$
CHEMBL2163411
     RDKit          3D

  0  0  0  0  0  0  0  0  0  0999 V3000
M  V30 BEGIN CTAB
M  V30 COUNTS 79 84 0 0 0
M  V30 BEGIN ATOM
M  V30 1 C 1.229065 -4.936503 3.617632 0
M  V30 2 C 2.310591 -4.176123 2.931525 0
M  V30 3 C 2.749888 -3.021592 3.575156 0
M  V30 4 C 3.738396 -2.477047 2.782939 0
M  V30 5 N 4.655421 -1.384779 2.689689 0
M  V30 6 C 4.560291 -0.071972 2.114823 0
M  V30 7 N 4.892390 0.078615 0.826153 0
M  V30 8 C 4.843651 1.276063 0.172173 0
M  V30 9 S 5.329613 1.224037 -1.546665 0
M  V30 10 C 3.901454 0.890536 -2.591678 0
M  V30 11 C 3.625355 -0.442444 -2.826121 0
M  V30 12 C 2.542742 -0.826479 -3.618959 0
M  V30 13 C 1.774878 0.214826 -4.147347 0
M  V30 14 N 0.680170 -0.297485 -4.943290 0
M  V30 15 C -0.451592 -0.447395 -4.079920 0
M  V30 16 O -0.077999 -0.070222 -2.921700 0
M  V30 17 C -1.737960 -0.966997 -4.638565 0
M  V30 18 N -2.770030 -1.051779 -3.662190 0
M  V30 19 C -4.039778 -1.549141 -4.145369 0
M  V30 20 C -4.470481 -2.662135 -3.180322 0
M  V30 21 C -3.682255 -2.192054 -1.920439 0 CFG=1
M  V30 22 O -3.636623 -3.159043 -0.985341 0
M  V30 23 C -4.183324 -2.835450 0.213782 0
M  V30 24 C -3.548689 -1.825759 1.087661 0
M  V30 25 C -3.358844 -0.437143 0.578034 0
M  V30 26 N -2.774148 0.368958 1.642387 0
M  V30 27 C -3.632554 0.643832 2.745330 0
M  V30 28 C -2.707503 1.024668 3.912794 0
M  V30 29 O -1.476445 1.406349 3.448081 0
M  V30 30 C -1.464928 2.207186 2.334875 0
M  V30 31 C -2.261354 1.620707 1.161392 0
M  V30 32 C -2.336211 -1.997208 -2.643460 0
M  V30 33 C 2.045503 1.547229 -3.917038 0
M  V30 34 C 3.121759 1.886409 -3.129775 0
M  V30 35 N 4.435907 2.347110 0.885396 0
M  V30 36 N 4.098406 2.254111 2.153235 0
M  V30 37 C 3.673036 3.175469 3.031313 0
M  V30 38 C 3.453244 2.537266 4.254542 0
M  V30 39 C 3.754208 1.198680 4.107724 0
M  V30 40 C 4.152328 1.063803 2.784132 0
M  V30 41 N 3.870670 -3.299517 1.699553 0
M  V30 42 N 3.013329 -4.311685 1.797439 0
M  V30 43 H 0.443293 -4.286729 4.021138 0
M  V30 44 H 1.630871 -5.553293 4.454800 0
M  V30 45 H 0.711937 -5.632251 2.895419 0
M  V30 46 H 2.573329 -2.428631 4.470032 0
M  V30 47 H 5.622176 -1.416771 3.076604 0
M  V30 48 H 4.245185 -1.232320 -2.398288 0
M  V30 49 H 2.368981 -1.868272 -3.770943 0
M  V30 50 H 0.656388 -0.538506 -5.980809 0
M  V30 51 H -2.057432 -0.249160 -5.421129 0
M  V30 52 H -1.528051 -1.924994 -5.155488 0
M  V30 53 H -3.964125 -1.991765 -5.176011 0
M  V30 54 H -4.850703 -0.809050 -4.148430 0
M  V30 55 H -4.042122 -3.636019 -3.494102 0
M  V30 56 H -5.543331 -2.666546 -2.996424 0
M  V30 57 H -4.170964 -1.260739 -1.654255 0
M  V30 58 H -5.257141 -2.455602 0.044860 0
M  V30 59 H -4.378783 -3.782319 0.836957 0
M  V30 60 H -2.537175 -2.281660 1.383584 0
M  V30 61 H -4.068189 -1.815875 2.098800 0
M  V30 62 H -4.317019 0.033427 0.334479 0
M  V30 63 H -2.636044 -0.391569 -0.281233 0
M  V30 64 H -4.181335 1.610873 2.534833 0
M  V30 65 H -4.352836 -0.111579 3.033337 0
M  V30 66 H -3.185589 1.756393 4.590186 0
M  V30 67 H -2.561530 0.077208 4.469945 0
M  V30 68 H -0.394808 2.202497 1.972151 0
M  V30 69 H -1.712469 3.268084 2.520350 0
M  V30 70 H -1.688175 1.574162 0.236085 0
M  V30 71 H -3.141396 2.290465 1.019186 0
M  V30 72 H -2.112836 -2.981648 -3.100229 0
M  V30 73 H -1.552077 -1.617951 -1.997000 0
M  V30 74 H 1.382938 2.262628 -4.377543 0
M  V30 75 H 3.354361 2.911186 -2.935438 0
M  V30 76 H 3.499509 4.241252 2.913351 0
M  V30 77 H 3.105927 2.950016 5.207656 0
M  V30 78 H 3.707702 0.381645 4.838141 0
M  V30 79 H 2.810406 -5.128770 1.189649 0
M  V30 END ATOM
M  V30 BEGIN BOND
M  V30 1 1 1 2
M  V30 2 2 2 3
M  V30 3 1 3 4
M  V30 4 1 4 5
M  V30 5 1 5 6
M  V30 6 2 6 7
M  V30 7 1 7 8
M  V30 8 1 8 9
M  V30 9 1 9 10
M  V30 10 2 10 11
M  V30 11 1 11 12
M  V30 12 2 12 13
M  V30 13 1 13 14
M  V30 14 1 14 15
M  V30 15 2 15 16
M  V30 16 1 15 17
M  V30 17 1 17 18
M  V30 18 1 18 19
M  V30 19 1 19 20
M  V30 20 1 20 21
M  V30 21 1 21 22
M  V30 22 1 22 23
M  V30 23 1 23 24
M  V30 24 1 24 25
M  V30 25 1 25 26
M  V30 26 1 26 27
M  V30 27 1 27 28
M  V30 28 1 28 29
M  V30 29 1 29 30
M  V30 30 1 30 31
M  V30 31 1 21 32
M  V30 32 1 13 33
M  V30 33 2 33 34
M  V30 34 2 8 35
M  V30 35 1 35 36
M  V30 36 1 36 37
M  V30 37 2 37 38
M  V30 38 1 38 39
M  V30 39 2 39 40
M  V30 40 2 4 41
M  V30 41 1 41 42
M  V30 42 1 42 2
M  V30 43 1 40 6
M  V30 44 1 34 10
M  V30 45 1 40 36
M  V30 46 1 32 18
M  V30 47 1 31 26
M  V30 48 1 1 43
M  V30 49 1 1 44
M  V30 50 1 1 45
M  V30 51 1 3 46
M  V30 52 1 5 47
M  V30 53 1 11 48
M  V30 54 1 12 49
M  V30 55 1 14 50
M  V30 56 1 17 51
M  V30 57 1 17 52
M  V30 58 1 19 53
M  V30 59 1 19 54
M  V30 60 1 20 55
M  V30 61 1 20 56
M  V30 62 1 21 57 CFG=1
M  V30 63 1 23 58
M  V30 64 1 23 59
M  V30 65 1 24 60
M  V30 66 1 24 61
M  V30 67 1 25 62
M  V30 68 1 25 63
M  V30 69 1 27 64
M  V30 70 1 27 65
M  V30 71 1 28 66
M  V30 72 1 28 67
M  V30 73 1 30 68
M  V30 74 1 30 69
M  V30 75 1 31 70
M  V30 76 1 31 71
M  V30 77 1 32 72
M  V30 78 1 32 73
M  V30 79 1 33 74
M  V30 80 1 34 75
M  V30 81 1 37 76
M  V30 82 1 38 77
M  V30 83 1 39 78
M  V30 84 1 42 79
M  V30 END BOND
M  V30 END CTAB
M  END
>  <Dataset>  (999) 
ChEMBL_Kinases

>  <Ligand_Instance>  (999) 
nan

>  <PDB_ID>  (999) 
nan

>  <Standardized_SMILES>  (999) 
Cc1cc(Nc2nc(Sc3ccc(NC(=O)CN4CC[C@@H](OCCCN5CCOCC5)C4)cc3)nn3cccc23)n[nH]1

>  <Name>  (999) 
nan

>  <Pocket>  (999) 
nan

>  <ATP_Site>  (999) 
nan

>  <Peripheral>  (999) 
nan

>  <Num_H_Atoms_ProtBoundConf>  (999) 
nan

>  <Num_Resolved_Atoms>  (999) 
nan

>  <Num_Not_Resolved_Atoms>  (999) 
nan

$$$$
