CHEMBL1933283
     RDKit          3D

  0  0  0  0  0  0  0  0  0  0999 V3000
M  V30 BEGIN CTAB
M  V30 COUNTS 61 65 0 0 0
M  V30 BEGIN ATOM
M  V30 1 C 1.913318 2.746204 5.510957 0
M  V30 2 N 2.764376 1.718538 4.965203 0
M  V30 3 C 3.993981 1.552340 5.672813 0
M  V30 4 C 2.986537 1.835755 3.563134 0
M  V30 5 C 1.817137 1.590603 2.694816 0
M  V30 6 C 1.168514 0.257486 2.750772 0
M  V30 7 N 1.968393 -0.868945 2.407043 0
M  V30 8 C 2.034026 -1.267352 1.100811 0
M  V30 9 N 1.453581 -0.801269 -0.116605 0
M  V30 10 C 0.208119 -1.387766 -0.442348 0
M  V30 11 O -0.252776 -2.243413 0.356366 0
M  V30 12 C -0.453003 -0.964760 -1.671794 0
M  V30 13 C -0.013699 -0.035640 -2.591297 0
M  V30 14 C -0.764187 0.250584 -3.708135 0
M  V30 15 C -1.973703 -0.369725 -3.956566 0
M  V30 16 C -2.943439 -0.322270 -4.937139 0
M  V30 17 C -3.953662 -1.208328 -4.616721 0
M  V30 18 N -3.645630 -1.816006 -3.455179 0
M  V30 19 C -2.452463 -1.307101 -3.062451 0
M  V30 20 C -1.678865 -1.584070 -1.937016 0
M  V30 21 C -4.391237 -2.823292 -2.712372 0
M  V30 22 C -5.852375 -2.550113 -2.923148 0
M  V30 23 C -6.401413 -3.177884 -4.185571 0
M  V30 24 N -6.254605 -2.294145 -5.325768 0
M  V30 25 C -5.138575 -1.390972 -5.469432 0
M  V30 26 O -5.252342 -0.674858 -6.501328 0
M  V30 27 N 2.842478 -2.361171 0.964277 0
M  V30 28 C 3.310002 -2.683743 2.184656 0
M  V30 29 C 4.149392 -3.656501 2.742489 0
M  V30 30 C 4.381114 -3.640936 4.100330 0
M  V30 31 C 3.832645 -2.715367 4.964422 0
M  V30 32 C 3.009008 -1.764939 4.398616 0
M  V30 33 C 2.757740 -1.754123 3.041666 0
M  V30 34 H 1.716885 2.469969 6.583200 0
M  V30 35 H 2.331833 3.763889 5.435880 0
M  V30 36 H 0.922023 2.678266 5.016608 0
M  V30 37 H 4.833396 1.756019 4.976432 0
M  V30 38 H 4.150605 0.532417 6.078797 0
M  V30 39 H 4.051399 2.333371 6.464094 0
M  V30 40 H 3.882918 1.224286 3.308245 0
M  V30 41 H 3.317669 2.885516 3.377723 0
M  V30 42 H 2.046723 1.884025 1.648417 0
M  V30 43 H 1.025451 2.334747 3.007951 0
M  V30 44 H 0.750797 0.053503 3.772886 0
M  V30 45 H 0.255092 0.332375 2.107461 0
M  V30 46 H 1.967684 -0.068351 -0.686614 0
M  V30 47 H 0.921429 0.419478 -2.364310 0
M  V30 48 H -0.400612 0.980588 -4.412872 0
M  V30 49 H -2.896327 0.321394 -5.816400 0
M  V30 50 H -2.084423 -2.334683 -1.241537 0
M  V30 51 H -4.186180 -3.832195 -3.141088 0
M  V30 52 H -4.101487 -2.849196 -1.649461 0
M  V30 53 H -6.421005 -2.981359 -2.069462 0
M  V30 54 H -6.093000 -1.455577 -2.933278 0
M  V30 55 H -7.488995 -3.327068 -4.027179 0
M  V30 56 H -5.943800 -4.165035 -4.364840 0
M  V30 57 H -6.984900 -2.323117 -6.055773 0
M  V30 58 H 4.559537 -4.360409 2.047872 0
M  V30 59 H 5.048644 -4.433502 4.463193 0
M  V30 60 H 4.041517 -2.740696 6.021575 0
M  V30 61 H 2.580923 -1.046091 5.082411 0
M  V30 END ATOM
M  V30 BEGIN BOND
M  V30 1 1 1 2
M  V30 2 1 2 3
M  V30 3 1 2 4
M  V30 4 1 4 5
M  V30 5 1 5 6
M  V30 6 1 6 7
M  V30 7 1 7 8
M  V30 8 1 8 9
M  V30 9 1 9 10
M  V30 10 2 10 11
M  V30 11 1 10 12
M  V30 12 2 12 13
M  V30 13 1 13 14
M  V30 14 2 14 15
M  V30 15 1 15 16
M  V30 16 2 16 17
M  V30 17 1 17 18
M  V30 18 1 18 19
M  V30 19 2 19 20
M  V30 20 1 18 21
M  V30 21 1 21 22
M  V30 22 1 22 23
M  V30 23 1 23 24
M  V30 24 1 24 25
M  V30 25 2 25 26
M  V30 26 2 8 27
M  V30 27 1 27 28
M  V30 28 2 28 29
M  V30 29 1 29 30
M  V30 30 2 30 31
M  V30 31 1 31 32
M  V30 32 2 32 33
M  V30 33 1 33 7
M  V30 34 1 20 12
M  V30 35 1 33 28
M  V30 36 1 19 15
M  V30 37 1 25 17
M  V30 38 1 1 34
M  V30 39 1 1 35
M  V30 40 1 1 36
M  V30 41 1 3 37
M  V30 42 1 3 38
M  V30 43 1 3 39
M  V30 44 1 4 40
M  V30 45 1 4 41
M  V30 46 1 5 42
M  V30 47 1 5 43
M  V30 48 1 6 44
M  V30 49 1 6 45
M  V30 50 1 9 46
M  V30 51 1 13 47
M  V30 52 1 14 48
M  V30 53 1 16 49
M  V30 54 1 20 50
M  V30 55 1 21 51
M  V30 56 1 21 52
M  V30 57 1 22 53
M  V30 58 1 22 54
M  V30 59 1 23 55
M  V30 60 1 23 56
M  V30 61 1 24 57
M  V30 62 1 29 58
M  V30 63 1 30 59
M  V30 64 1 31 60
M  V30 65 1 32 61
M  V30 END BOND
M  V30 END CTAB
M  END
>  <Dataset>  (1) 
ChEMBL_Kinases

>  <Ligand_Instance>  (1) 
nan

>  <PDB_ID>  (1) 
nan

>  <Standardized_SMILES>  (1) 
CN(C)CCCn1c(NC(=O)c2ccc3cc4n(c3c2)CCCNC4=O)nc2ccccc21

>  <Name>  (1) 
nan

>  <Pocket>  (1) 
nan

>  <ATP_Site>  (1) 
nan

>  <Peripheral>  (1) 
nan

>  <Num_H_Atoms_ProtBoundConf>  (1) 
nan

>  <Num_Resolved_Atoms>  (1) 
nan

>  <Num_Not_Resolved_Atoms>  (1) 
nan

$$$$
CHEMBL1933284
     RDKit          3D

  0  0  0  0  0  0  0  0  0  0999 V3000
M  V30 BEGIN CTAB
M  V30 COUNTS 50 54 0 0 0
M  V30 BEGIN ATOM
M  V30 1 C 1.472275 -1.715988 -4.300391 0
M  V30 2 C 0.595620 -2.314121 -3.237084 0
M  V30 3 N 1.282698 -3.173553 -2.321492 0
M  V30 4 C 1.858490 -2.764059 -1.170554 0
M  V30 5 N 1.931868 -1.462748 -0.599743 0
M  V30 6 C 0.868124 -1.076197 0.287399 0
M  V30 7 O 0.018205 -1.997933 0.410572 0
M  V30 8 C 0.864222 0.243167 0.917866 0
M  V30 9 C 1.816405 1.227684 0.757041 0
M  V30 10 C 1.657986 2.420678 1.429450 0
M  V30 11 C 0.554473 2.590485 2.239599 0
M  V30 12 C 0.254419 3.719336 2.975076 0
M  V30 13 C -0.932287 3.415880 3.614985 0
M  V30 14 N -1.333025 2.157173 3.280879 0
M  V30 15 C -0.428266 1.625422 2.429876 0
M  V30 16 C -0.239966 0.430094 1.736607 0
M  V30 17 C -2.467469 1.327849 3.636010 0
M  V30 18 C -3.163558 1.864065 4.874552 0
M  V30 19 C -3.935741 3.123285 4.604107 0
M  V30 20 N -3.061647 4.282569 4.828957 0
M  V30 21 C -1.652793 4.313626 4.518355 0
M  V30 22 O -0.880696 5.183134 5.042837 0
M  V30 23 N 2.433099 -3.768007 -0.501662 0
M  V30 24 C 2.244110 -4.904052 -1.219561 0
M  V30 25 C 2.579222 -6.236589 -1.083142 0
M  V30 26 C 2.199993 -7.138505 -2.055861 0
M  V30 27 Cl 2.641825 -8.837744 -1.856429 0
M  V30 28 C 1.482018 -6.781115 -3.196252 0
M  V30 29 C 1.172556 -5.440510 -3.284857 0
M  V30 30 C 1.523836 -4.497962 -2.347458 0
M  V30 31 H 1.027822 -1.895415 -5.319235 0
M  V30 32 H 2.425237 -2.281246 -4.315173 0
M  V30 33 H 1.603963 -0.622438 -4.182605 0
M  V30 34 H -0.218702 -2.900179 -3.709776 0
M  V30 35 H 0.064791 -1.489932 -2.688059 0
M  V30 36 H 2.722623 -0.822316 -0.817683 0
M  V30 37 H 2.635762 0.995011 0.104787 0
M  V30 38 H 2.409070 3.180123 1.294431 0
M  V30 39 H 0.747893 4.657811 3.095511 0
M  V30 40 H -1.025615 -0.303023 1.907014 0
M  V30 41 H -3.165285 1.180915 2.781736 0
M  V30 42 H -2.130822 0.285272 3.907423 0
M  V30 43 H -3.753393 1.086383 5.384594 0
M  V30 44 H -2.333704 2.134769 5.583817 0
M  V30 45 H -4.257804 3.104970 3.525626 0
M  V30 46 H -4.810351 3.196857 5.259561 0
M  V30 47 H -3.356071 5.213320 5.237142 0
M  V30 48 H 3.136699 -6.541017 -0.206808 0
M  V30 49 H 1.210924 -7.509984 -3.920166 0
M  V30 50 H 0.612483 -5.126685 -4.162553 0
M  V30 END ATOM
M  V30 BEGIN BOND
M  V30 1 1 1 2
M  V30 2 1 2 3
M  V30 3 1 3 4
M  V30 4 1 4 5
M  V30 5 1 5 6
M  V30 6 2 6 7
M  V30 7 1 6 8
M  V30 8 2 8 9
M  V30 9 1 9 10
M  V30 10 2 10 11
M  V30 11 1 11 12
M  V30 12 2 12 13
M  V30 13 1 13 14
M  V30 14 1 14 15
M  V30 15 2 15 16
M  V30 16 1 14 17
M  V30 17 1 17 18
M  V30 18 1 18 19
M  V30 19 1 19 20
M  V30 20 1 20 21
M  V30 21 2 21 22
M  V30 22 2 4 23
M  V30 23 1 23 24
M  V30 24 2 24 25
M  V30 25 1 25 26
M  V30 26 1 26 27
M  V30 27 2 26 28
M  V30 28 1 28 29
M  V30 29 2 29 30
M  V30 30 1 30 3
M  V30 31 1 16 8
M  V30 32 1 30 24
M  V30 33 1 15 11
M  V30 34 1 21 13
M  V30 35 1 1 31
M  V30 36 1 1 32
M  V30 37 1 1 33
M  V30 38 1 2 34
M  V30 39 1 2 35
M  V30 40 1 5 36
M  V30 41 1 9 37
M  V30 42 1 10 38
M  V30 43 1 12 39
M  V30 44 1 16 40
M  V30 45 1 17 41
M  V30 46 1 17 42
M  V30 47 1 18 43
M  V30 48 1 18 44
M  V30 49 1 19 45
M  V30 50 1 19 46
M  V30 51 1 20 47
M  V30 52 1 25 48
M  V30 53 1 28 49
M  V30 54 1 29 50
M  V30 END BOND
M  V30 END CTAB
M  END
>  <Dataset>  (2) 
ChEMBL_Kinases

>  <Ligand_Instance>  (2) 
nan

>  <PDB_ID>  (2) 
nan

>  <Standardized_SMILES>  (2) 
CCn1c(NC(=O)c2ccc3cc4n(c3c2)CCCNC4=O)nc2cc(Cl)ccc21

>  <Name>  (2) 
nan

>  <Pocket>  (2) 
nan

>  <ATP_Site>  (2) 
nan

>  <Peripheral>  (2) 
nan

>  <Num_H_Atoms_ProtBoundConf>  (2) 
nan

>  <Num_Resolved_Atoms>  (2) 
nan

>  <Num_Not_Resolved_Atoms>  (2) 
nan

$$$$
CHEMBL1933285
     RDKit          3D

  0  0  0  0  0  0  0  0  0  0999 V3000
M  V30 BEGIN CTAB
M  V30 COUNTS 50 54 0 0 0
M  V30 BEGIN ATOM
M  V30 1 C 1.533762 -1.726755 -4.311654 0
M  V30 2 C 0.643177 -2.247863 -3.227427 0
M  V30 3 N 1.281047 -3.137298 -2.300846 0
M  V30 4 C 1.899676 -2.734952 -1.156481 0
M  V30 5 N 2.067835 -1.435227 -0.614218 0
M  V30 6 C 1.005837 -1.053349 0.252452 0
M  V30 7 O 0.118420 -1.946106 0.371248 0
M  V30 8 C 0.946879 0.238774 0.935476 0
M  V30 9 C 1.921336 1.215268 0.803226 0
M  V30 10 C 1.768259 2.400312 1.492632 0
M  V30 11 C 0.657161 2.583184 2.291001 0
M  V30 12 C 0.344233 3.696585 3.046340 0
M  V30 13 C -0.854735 3.395016 3.658620 0
M  V30 14 N -1.261840 2.145754 3.293586 0
M  V30 15 C -0.338514 1.630487 2.448640 0
M  V30 16 C -0.151316 0.455618 1.742606 0
M  V30 17 C -2.391870 1.287997 3.584147 0
M  V30 18 C -3.125819 1.778463 4.834591 0
M  V30 19 C -3.881498 3.052832 4.555628 0
M  V30 20 N -3.038965 4.205927 4.899445 0
M  V30 21 C -1.633493 4.246655 4.579612 0
M  V30 22 O -0.896784 5.125543 5.141556 0
M  V30 23 N 2.390243 -3.800828 -0.518050 0
M  V30 24 C 2.112220 -4.899222 -1.210593 0
M  V30 25 C 2.365145 -6.247498 -1.036611 0
M  V30 26 C 1.896832 -7.100827 -2.009537 0
M  V30 27 C 1.200117 -6.725150 -3.137350 0
M  V30 28 Cl 0.642601 -7.887060 -4.324012 0
M  V30 29 C 0.965687 -5.358264 -3.275836 0
M  V30 30 C 1.416087 -4.485249 -2.329959 0
M  V30 31 H 1.093046 -1.975605 -5.318637 0
M  V30 32 H 2.537133 -2.208487 -4.310563 0
M  V30 33 H 1.651801 -0.617338 -4.292990 0
M  V30 34 H -0.225640 -2.771700 -3.671761 0
M  V30 35 H 0.208481 -1.361104 -2.700567 0
M  V30 36 H 2.854682 -0.767821 -0.781598 0
M  V30 37 H 2.764899 1.031731 0.174766 0
M  V30 38 H 2.534674 3.175763 1.392332 0
M  V30 39 H 0.849405 4.631917 3.192142 0
M  V30 40 H -0.917480 -0.306791 1.849273 0
M  V30 41 H -3.092155 1.167855 2.748807 0
M  V30 42 H -2.044343 0.242264 3.820078 0
M  V30 43 H -2.328433 2.026757 5.576782 0
M  V30 44 H -3.756106 0.988442 5.260650 0
M  V30 45 H -4.121205 3.072096 3.474962 0
M  V30 46 H -4.826623 3.062341 5.130916 0
M  V30 47 H -3.284509 5.093042 5.379624 0
M  V30 48 H 2.905798 -6.613742 -0.175948 0
M  V30 49 H 2.079834 -8.161402 -1.900185 0
M  V30 50 H 0.416544 -5.022423 -4.157047 0
M  V30 END ATOM
M  V30 BEGIN BOND
M  V30 1 1 1 2
M  V30 2 1 2 3
M  V30 3 1 3 4
M  V30 4 1 4 5
M  V30 5 1 5 6
M  V30 6 2 6 7
M  V30 7 1 6 8
M  V30 8 2 8 9
M  V30 9 1 9 10
M  V30 10 2 10 11
M  V30 11 1 11 12
M  V30 12 2 12 13
M  V30 13 1 13 14
M  V30 14 1 14 15
M  V30 15 2 15 16
M  V30 16 1 14 17
M  V30 17 1 17 18
M  V30 18 1 18 19
M  V30 19 1 19 20
M  V30 20 1 20 21
M  V30 21 2 21 22
M  V30 22 2 4 23
M  V30 23 1 23 24
M  V30 24 2 24 25
M  V30 25 1 25 26
M  V30 26 2 26 27
M  V30 27 1 27 28
M  V30 28 1 27 29
M  V30 29 2 29 30
M  V30 30 1 30 3
M  V30 31 1 16 8
M  V30 32 1 30 24
M  V30 33 1 15 11
M  V30 34 1 21 13
M  V30 35 1 1 31
M  V30 36 1 1 32
M  V30 37 1 1 33
M  V30 38 1 2 34
M  V30 39 1 2 35
M  V30 40 1 5 36
M  V30 41 1 9 37
M  V30 42 1 10 38
M  V30 43 1 12 39
M  V30 44 1 16 40
M  V30 45 1 17 41
M  V30 46 1 17 42
M  V30 47 1 18 43
M  V30 48 1 18 44
M  V30 49 1 19 45
M  V30 50 1 19 46
M  V30 51 1 20 47
M  V30 52 1 25 48
M  V30 53 1 26 49
M  V30 54 1 29 50
M  V30 END BOND
M  V30 END CTAB
M  END
>  <Dataset>  (3) 
ChEMBL_Kinases

>  <Ligand_Instance>  (3) 
nan

>  <PDB_ID>  (3) 
nan

>  <Standardized_SMILES>  (3) 
CCn1c(NC(=O)c2ccc3cc4n(c3c2)CCCNC4=O)nc2ccc(Cl)cc21

>  <Name>  (3) 
nan

>  <Pocket>  (3) 
nan

>  <ATP_Site>  (3) 
nan

>  <Peripheral>  (3) 
nan

>  <Num_H_Atoms_ProtBoundConf>  (3) 
nan

>  <Num_Resolved_Atoms>  (3) 
nan

>  <Num_Not_Resolved_Atoms>  (3) 
nan

$$$$
CHEMBL1933286
     RDKit          3D

  0  0  0  0  0  0  0  0  0  0999 V3000
M  V30 BEGIN CTAB
M  V30 COUNTS 61 65 0 0 0
M  V30 BEGIN ATOM
M  V30 1 C 3.077345 -2.249014 2.592905 0
M  V30 2 N 2.872631 -1.522107 3.811281 0
M  V30 3 C 2.635593 -2.422533 4.895050 0
M  V30 4 C 1.924561 -0.449453 3.727646 0
M  V30 5 C 0.492626 -0.918856 3.516989 0
M  V30 6 C -0.340597 0.351885 3.455509 0
M  V30 7 N -1.750411 0.085761 3.257160 0
M  V30 8 C -2.424373 -0.029087 2.090551 0
M  V30 9 N -1.784541 0.106168 0.828422 0
M  V30 10 C -1.588663 1.275813 0.046182 0
M  V30 11 O -1.993997 2.406661 0.418854 0
M  V30 12 C -0.898974 1.207955 -1.239352 0
M  V30 13 C -0.740557 2.387792 -1.953501 0
M  V30 14 C -0.089002 2.365109 -3.181804 0
M  V30 15 C 0.419592 1.212650 -3.743025 0
M  V30 16 C 1.091342 0.848711 -4.889997 0
M  V30 17 C 1.324025 -0.524649 -4.850125 0
M  V30 18 N 0.795423 -0.975119 -3.689162 0
M  V30 19 C 0.247283 0.049249 -3.008263 0
M  V30 20 C -0.396077 0.046211 -1.786320 0
M  V30 21 C 0.856321 -2.385201 -3.309976 0
M  V30 22 C 0.218137 -3.179831 -4.432101 0
M  V30 23 C 1.245295 -3.704244 -5.411434 0
M  V30 24 N 2.005225 -2.647138 -6.041084 0
M  V30 25 C 2.028968 -1.227486 -5.941478 0
M  V30 26 O 2.646867 -0.541632 -6.775066 0
M  V30 27 N -3.731777 -0.279516 2.300921 0
M  V30 28 C -3.943419 -0.334569 3.628759 0
M  V30 29 C -5.069712 -0.556806 4.385099 0
M  V30 30 C -4.982957 -0.555920 5.765598 0
M  V30 31 C -3.723597 -0.323231 6.324183 0
M  V30 32 Cl -3.633315 -0.326297 8.080248 0
M  V30 33 C -2.570466 -0.095993 5.576693 0
M  V30 34 C -2.711360 -0.107240 4.205743 0
M  V30 35 H 4.150326 -2.175224 2.249545 0
M  V30 36 H 2.798829 -3.327935 2.734295 0
M  V30 37 H 2.480020 -1.856248 1.746346 0
M  V30 38 H 2.102557 -3.323999 4.548346 0
M  V30 39 H 3.630133 -2.755691 5.265371 0
M  V30 40 H 2.055768 -1.989344 5.733126 0
M  V30 41 H 2.218023 0.266219 2.934586 0
M  V30 42 H 1.942884 0.065396 4.716766 0
M  V30 43 H 0.176066 -1.552794 4.344050 0
M  V30 44 H 0.377949 -1.408691 2.516712 0
M  V30 45 H 0.049796 0.926682 2.576003 0
M  V30 46 H -0.144153 0.938552 4.370333 0
M  V30 47 H -1.457754 -0.835256 0.538462 0
M  V30 48 H -1.094502 3.373972 -1.627205 0
M  V30 49 H 0.049955 3.281578 -3.766412 0
M  V30 50 H 1.373629 1.534685 -5.665756 0
M  V30 51 H -0.505728 -0.873597 -1.256281 0
M  V30 52 H 1.943560 -2.678934 -3.307870 0
M  V30 53 H 0.437176 -2.597784 -2.324165 0
M  V30 54 H -0.503990 -2.561091 -5.011148 0
M  V30 55 H -0.315845 -4.024639 -4.001155 0
M  V30 56 H 1.880809 -4.496011 -4.987370 0
M  V30 57 H 0.642650 -4.163803 -6.244090 0
M  V30 58 H 2.693674 -3.028885 -6.726688 0
M  V30 59 H -6.018729 -0.731223 3.897553 0
M  V30 60 H -5.837050 -0.725080 6.408783 0
M  V30 61 H -1.661302 0.070491 6.118193 0
M  V30 END ATOM
M  V30 BEGIN BOND
M  V30 1 1 1 2
M  V30 2 1 2 3
M  V30 3 1 2 4
M  V30 4 1 4 5
M  V30 5 1 5 6
M  V30 6 1 6 7
M  V30 7 1 7 8
M  V30 8 1 8 9
M  V30 9 1 9 10
M  V30 10 2 10 11
M  V30 11 1 10 12
M  V30 12 2 12 13
M  V30 13 1 13 14
M  V30 14 2 14 15
M  V30 15 1 15 16
M  V30 16 2 16 17
M  V30 17 1 17 18
M  V30 18 1 18 19
M  V30 19 2 19 20
M  V30 20 1 18 21
M  V30 21 1 21 22
M  V30 22 1 22 23
M  V30 23 1 23 24
M  V30 24 1 24 25
M  V30 25 2 25 26
M  V30 26 2 8 27
M  V30 27 1 27 28
M  V30 28 2 28 29
M  V30 29 1 29 30
M  V30 30 2 30 31
M  V30 31 1 31 32
M  V30 32 1 31 33
M  V30 33 2 33 34
M  V30 34 1 34 7
M  V30 35 1 20 12
M  V30 36 1 34 28
M  V30 37 1 19 15
M  V30 38 1 25 17
M  V30 39 1 1 35
M  V30 40 1 1 36
M  V30 41 1 1 37
M  V30 42 1 3 38
M  V30 43 1 3 39
M  V30 44 1 3 40
M  V30 45 1 4 41
M  V30 46 1 4 42
M  V30 47 1 5 43
M  V30 48 1 5 44
M  V30 49 1 6 45
M  V30 50 1 6 46
M  V30 51 1 9 47
M  V30 52 1 13 48
M  V30 53 1 14 49
M  V30 54 1 16 50
M  V30 55 1 20 51
M  V30 56 1 21 52
M  V30 57 1 21 53
M  V30 58 1 22 54
M  V30 59 1 22 55
M  V30 60 1 23 56
M  V30 61 1 23 57
M  V30 62 1 24 58
M  V30 63 1 29 59
M  V30 64 1 30 60
M  V30 65 1 33 61
M  V30 END BOND
M  V30 END CTAB
M  END
>  <Dataset>  (4) 
ChEMBL_Kinases

>  <Ligand_Instance>  (4) 
nan

>  <PDB_ID>  (4) 
nan

>  <Standardized_SMILES>  (4) 
CN(C)CCCn1c(NC(=O)c2ccc3cc4n(c3c2)CCCNC4=O)nc2ccc(Cl)cc21

>  <Name>  (4) 
nan

>  <Pocket>  (4) 
nan

>  <ATP_Site>  (4) 
nan

>  <Peripheral>  (4) 
nan

>  <Num_H_Atoms_ProtBoundConf>  (4) 
nan

>  <Num_Resolved_Atoms>  (4) 
nan

>  <Num_Not_Resolved_Atoms>  (4) 
nan

$$$$
CHEMBL1933287
     RDKit          3D

  0  0  0  0  0  0  0  0  0  0999 V3000
M  V30 BEGIN CTAB
M  V30 COUNTS 49 53 0 0 0
M  V30 BEGIN ATOM
M  V30 1 C 1.011685 -4.381375 4.302201 0
M  V30 2 C 0.067720 -4.341427 3.131506 0
M  V30 3 N 0.664796 -4.698265 1.878720 0
M  V30 4 C 1.253868 -3.838917 1.017306 0
M  V30 5 N 1.429160 -2.429409 1.117728 0
M  V30 6 C 0.484201 -1.485229 0.628837 0
M  V30 7 O -0.517911 -2.034520 0.100887 0
M  V30 8 C 0.752739 -0.058593 0.778139 0
M  V30 9 C 1.850222 0.532068 1.356247 0
M  V30 10 C 1.925430 1.909632 1.404094 0
M  V30 11 C 0.938839 2.727699 0.892701 0
M  V30 12 C 0.844594 4.104164 0.851850 0
M  V30 13 C -0.362209 4.336234 0.221584 0
M  V30 14 N -0.967307 3.155776 -0.102425 0
M  V30 15 C -0.182432 2.132074 0.302108 0
M  V30 16 C -0.232646 0.756448 0.267356 0
M  V30 17 C -2.234847 2.898293 -0.767516 0
M  V30 18 C -2.546335 3.987796 -1.740148 0
M  V30 19 C -3.093531 5.247365 -1.118482 0
M  V30 20 N -2.039557 6.152503 -0.703270 0
M  V30 21 C -0.862095 5.692158 -0.031720 0
M  V30 22 O -0.113739 6.606937 0.428187 0
M  V30 23 N 1.707017 -4.513024 -0.058144 0
M  V30 24 C 1.420871 -5.815239 0.086737 0
M  V30 25 C 1.661832 -6.909739 -0.712717 0
M  V30 26 C 1.222233 -8.144118 -0.253266 0
M  V30 27 C 0.584475 -8.161859 0.961514 0
M  V30 28 N 0.354098 -7.090393 1.733597 0
M  V30 29 C 0.771253 -5.903668 1.302348 0
M  V30 30 H 1.774755 -5.156111 4.247610 0
M  V30 31 H 0.389148 -4.415629 5.229574 0
M  V30 32 H 1.528537 -3.400400 4.347649 0
M  V30 33 H -0.354984 -3.314279 3.012214 0
M  V30 34 H -0.753094 -5.059190 3.342609 0
M  V30 35 H 2.324946 -2.172572 1.588271 0
M  V30 36 H 2.592090 -0.155030 1.740338 0
M  V30 37 H 2.836785 2.268500 1.883375 0
M  V30 38 H 1.545763 4.823915 1.223298 0
M  V30 39 H -1.139672 0.386813 -0.209705 0
M  V30 40 H -2.167331 1.944657 -1.341384 0
M  V30 41 H -3.023673 2.873472 0.003019 0
M  V30 42 H -1.701016 4.214565 -2.421839 0
M  V30 43 H -3.359303 3.604863 -2.421354 0
M  V30 44 H -3.661261 5.779954 -1.910049 0
M  V30 45 H -3.805674 5.005491 -0.324205 0
M  V30 46 H -2.024747 7.192814 -0.842485 0
M  V30 47 H 2.175676 -6.792139 -1.659553 0
M  V30 48 H 1.381649 -9.037398 -0.834455 0
M  V30 49 H 0.241878 -9.133120 1.316714 0
M  V30 END ATOM
M  V30 BEGIN BOND
M  V30 1 1 1 2
M  V30 2 1 2 3
M  V30 3 1 3 4
M  V30 4 1 4 5
M  V30 5 1 5 6
M  V30 6 2 6 7
M  V30 7 1 6 8
M  V30 8 2 8 9
M  V30 9 1 9 10
M  V30 10 2 10 11
M  V30 11 1 11 12
M  V30 12 2 12 13
M  V30 13 1 13 14
M  V30 14 1 14 15
M  V30 15 2 15 16
M  V30 16 1 14 17
M  V30 17 1 17 18
M  V30 18 1 18 19
M  V30 19 1 19 20
M  V30 20 1 20 21
M  V30 21 2 21 22
M  V30 22 2 4 23
M  V30 23 1 23 24
M  V30 24 2 24 25
M  V30 25 1 25 26
M  V30 26 2 26 27
M  V30 27 1 27 28
M  V30 28 2 28 29
M  V30 29 1 29 3
M  V30 30 1 16 8
M  V30 31 1 29 24
M  V30 32 1 15 11
M  V30 33 1 21 13
M  V30 34 1 1 30
M  V30 35 1 1 31
M  V30 36 1 1 32
M  V30 37 1 2 33
M  V30 38 1 2 34
M  V30 39 1 5 35
M  V30 40 1 9 36
M  V30 41 1 10 37
M  V30 42 1 12 38
M  V30 43 1 16 39
M  V30 44 1 17 40
M  V30 45 1 17 41
M  V30 46 1 18 42
M  V30 47 1 18 43
M  V30 48 1 19 44
M  V30 49 1 19 45
M  V30 50 1 20 46
M  V30 51 1 25 47
M  V30 52 1 26 48
M  V30 53 1 27 49
M  V30 END BOND
M  V30 END CTAB
M  END
>  <Dataset>  (5) 
ChEMBL_Kinases

>  <Ligand_Instance>  (5) 
nan

>  <PDB_ID>  (5) 
nan

>  <Standardized_SMILES>  (5) 
CCn1c(NC(=O)c2ccc3cc4n(c3c2)CCCNC4=O)nc2cccnc21

>  <Name>  (5) 
nan

>  <Pocket>  (5) 
nan

>  <ATP_Site>  (5) 
nan

>  <Peripheral>  (5) 
nan

>  <Num_H_Atoms_ProtBoundConf>  (5) 
nan

>  <Num_Resolved_Atoms>  (5) 
nan

>  <Num_Not_Resolved_Atoms>  (5) 
nan

$$$$
CHEMBL193476
     RDKit          3D

  0  0  0  0  0  0  0  0  0  0999 V3000
M  V30 BEGIN CTAB
M  V30 COUNTS 39 42 0 0 0
M  V30 BEGIN ATOM
M  V30 1 N 0.748519 -7.775197 1.840302 0
M  V30 2 C 1.086854 -7.085906 3.037087 0
M  V30 3 O 1.421680 -7.685579 4.090790 0
M  V30 4 C 1.045881 -5.628309 3.048882 0
M  V30 5 C 1.362317 -4.913881 4.184752 0
M  V30 6 C 1.333436 -3.544483 4.229577 0
M  V30 7 C 0.969443 -2.845580 3.080582 0
M  V30 8 N 0.847255 -1.529146 2.806977 0
M  V30 9 C 0.466854 -1.352672 1.548778 0
M  V30 10 C 0.224531 -0.083858 0.865156 0
M  V30 11 C -0.171350 -0.051018 -0.457522 0
M  V30 12 C -0.393875 1.161903 -1.081460 0
M  V30 13 C -0.230205 2.365652 -0.412858 0
M  V30 14 C -0.480177 3.612888 -1.126958 0
M  V30 15 C -0.956254 4.780858 -0.542407 0
M  V30 16 C -1.160053 5.912291 -1.306124 0
M  V30 17 C -0.895523 5.912610 -2.673687 0
M  V30 18 C -0.419467 4.749199 -3.265503 0
M  V30 19 C -0.217235 3.617743 -2.493581 0
M  V30 20 C 0.167687 2.302955 0.913652 0
M  V30 21 C 0.391294 1.093158 1.541496 0
M  V30 22 N 0.343188 -2.573725 1.007375 0
M  V30 23 C 0.645395 -3.530196 1.922376 0
M  V30 24 C 0.688411 -4.909134 1.923968 0
M  V30 25 H -0.109951 -8.318330 1.526081 0
M  V30 26 H 1.037112 -8.064426 0.880670 0
M  V30 27 H 1.634541 -5.506133 5.036748 0
M  V30 28 H 1.582843 -2.993972 5.123509 0
M  V30 29 H 1.032184 -0.768546 3.506479 0
M  V30 30 H -0.309769 -0.969579 -1.013006 0
M  V30 31 H -0.707087 1.136488 -2.132653 0
M  V30 32 H -1.146061 4.730175 0.519762 0
M  V30 33 H -1.530948 6.773576 -0.773119 0
M  V30 34 H -1.069915 6.822824 -3.234689 0
M  V30 35 H -0.231728 4.808517 -4.329565 0
M  V30 36 H 0.156302 2.780274 -3.079057 0
M  V30 37 H 0.293468 3.245972 1.429480 0
M  V30 38 H 0.702358 1.096970 2.583255 0
M  V30 39 H 0.435008 -5.415191 1.020569 0
M  V30 END ATOM
M  V30 BEGIN BOND
M  V30 1 1 1 2
M  V30 2 2 2 3
M  V30 3 1 2 4
M  V30 4 2 4 5
M  V30 5 1 5 6
M  V30 6 2 6 7
M  V30 7 1 7 8
M  V30 8 1 8 9
M  V30 9 1 9 10
M  V30 10 2 10 11
M  V30 11 1 11 12
M  V30 12 2 12 13
M  V30 13 1 13 14
M  V30 14 2 14 15
M  V30 15 1 15 16
M  V30 16 2 16 17
M  V30 17 1 17 18
M  V30 18 2 18 19
M  V30 19 1 13 20
M  V30 20 2 20 21
M  V30 21 2 9 22
M  V30 22 1 22 23
M  V30 23 2 23 24
M  V30 24 1 24 4
M  V30 25 1 23 7
M  V30 26 1 21 10
M  V30 27 1 19 14
M  V30 28 1 1 25
M  V30 29 1 1 26
M  V30 30 1 5 27
M  V30 31 1 6 28
M  V30 32 1 8 29
M  V30 33 1 11 30
M  V30 34 1 12 31
M  V30 35 1 15 32
M  V30 36 1 16 33
M  V30 37 1 17 34
M  V30 38 1 18 35
M  V30 39 1 19 36
M  V30 40 1 20 37
M  V30 41 1 21 38
M  V30 42 1 24 39
M  V30 END BOND
M  V30 END CTAB
M  END
>  <Dataset>  (6) 
ChEMBL_Kinases

>  <Ligand_Instance>  (6) 
nan

>  <PDB_ID>  (6) 
nan

>  <Standardized_SMILES>  (6) 
NC(=O)c1ccc2[nH]c(-c3ccc(-c4ccccc4)cc3)nc2c1

>  <Name>  (6) 
nan

>  <Pocket>  (6) 
nan

>  <ATP_Site>  (6) 
nan

>  <Peripheral>  (6) 
nan

>  <Num_H_Atoms_ProtBoundConf>  (6) 
nan

>  <Num_Resolved_Atoms>  (6) 
nan

>  <Num_Not_Resolved_Atoms>  (6) 
nan

$$$$
CHEMBL1933290
     RDKit          3D

  0  0  0  0  0  0  0  0  0  0999 V3000
M  V30 BEGIN CTAB
M  V30 COUNTS 67 71 0 0 0
M  V30 BEGIN ATOM
M  V30 1 C 4.008632 0.409550 4.817556 0
M  V30 2 N 2.571029 0.261320 4.706488 0
M  V30 3 C 2.027424 -0.511047 5.807236 0
M  V30 4 C 2.182136 -0.293266 3.426037 0
M  V30 5 C 2.419466 0.610962 2.267172 0
M  V30 6 C 1.678858 1.921437 2.349051 0
M  V30 7 N 1.972882 2.744765 1.167270 0
M  V30 8 C 1.303280 2.797023 -0.022535 0
M  V30 9 N 0.148174 2.008117 -0.268226 0
M  V30 10 C -0.074700 0.722457 -0.795805 0
M  V30 11 O 0.953265 0.052775 -1.158628 0
M  V30 12 C -1.426707 0.192212 -0.916403 0
M  V30 13 C -2.588523 0.859164 -0.585929 0
M  V30 14 C -3.842624 0.300532 -0.717793 0
M  V30 15 C -3.965987 -0.986157 -1.201356 0
M  V30 16 C -5.042492 -1.842063 -1.457647 0
M  V30 17 C -4.484934 -3.014770 -1.941118 0
M  V30 18 N -3.125137 -2.882657 -1.979329 0
M  V30 19 C -2.817818 -1.650387 -1.529676 0
M  V30 20 C -1.555122 -1.093047 -1.399240 0
M  V30 21 C -2.271001 -3.958693 -2.441752 0
M  V30 22 C -2.492428 -5.238028 -1.682449 0
M  V30 23 C -1.177190 -5.992024 -1.717056 0
M  V30 24 C -2.748541 -4.928302 -0.208403 0
M  V30 25 C -3.538714 -6.133645 -2.254944 0
M  V30 26 N -4.804843 -5.462859 -2.531623 0
M  V30 27 C -5.344005 -4.141461 -2.313934 0
M  V30 28 O -6.574881 -3.985025 -2.453188 0
M  V30 29 N 1.951110 3.692591 -0.804170 0
M  V30 30 C 3.006572 4.187828 -0.107575 0
M  V30 31 C 3.979626 5.112976 -0.424427 0
M  V30 32 C 4.947918 5.424715 0.505143 0
M  V30 33 C 4.969567 4.832984 1.749223 0
M  V30 34 C 4.005350 3.900272 2.095615 0
M  V30 35 C 3.035702 3.596583 1.147289 0
M  V30 36 H 4.325474 1.288189 5.379790 0
M  V30 37 H 4.353383 -0.485894 5.415587 0
M  V30 38 H 4.493153 0.288969 3.835808 0
M  V30 39 H 0.987457 -0.197644 5.990606 0
M  V30 40 H 2.096781 -1.593338 5.536473 0
M  V30 41 H 2.616529 -0.317235 6.709864 0
M  V30 42 H 1.123332 -0.561560 3.439181 0
M  V30 43 H 2.808998 -1.201580 3.293463 0
M  V30 44 H 2.027456 0.097920 1.365665 0
M  V30 45 H 3.502116 0.740707 2.102142 0
M  V30 46 H 0.594922 1.654446 2.317802 0
M  V30 47 H 1.888464 2.518842 3.236116 0
M  V30 48 H -0.620830 2.633944 0.057086 0
M  V30 49 H -2.483676 1.863071 -0.210030 0
M  V30 50 H -4.720507 0.843165 -0.452894 0
M  V30 51 H -6.074817 -1.619544 -1.305874 0
M  V30 52 H -0.660962 -1.657884 -1.675132 0
M  V30 53 H -2.450522 -4.181356 -3.510678 0
M  V30 54 H -1.226538 -3.662226 -2.317491 0
M  V30 55 H -1.181729 -6.564714 -2.667244 0
M  V30 56 H -1.164673 -6.745631 -0.908530 0
M  V30 57 H -0.304789 -5.320726 -1.738219 0
M  V30 58 H -3.689997 -4.392070 -0.065591 0
M  V30 59 H -2.705454 -5.850864 0.399242 0
M  V30 60 H -1.868000 -4.304773 0.122557 0
M  V30 61 H -3.171938 -6.542778 -3.197516 0
M  V30 62 H -3.779076 -6.922682 -1.507325 0
M  V30 63 H -5.452666 -6.127177 -2.999624 0
M  V30 64 H 3.993219 5.602670 -1.404515 0
M  V30 65 H 5.706712 6.164020 0.220313 0
M  V30 66 H 5.759223 5.119312 2.443085 0
M  V30 67 H 4.004373 3.419371 3.075782 0
M  V30 END ATOM
M  V30 BEGIN BOND
M  V30 1 1 1 2
M  V30 2 1 2 3
M  V30 3 1 2 4
M  V30 4 1 4 5
M  V30 5 1 5 6
M  V30 6 1 6 7
M  V30 7 1 7 8
M  V30 8 1 8 9
M  V30 9 1 9 10
M  V30 10 2 10 11
M  V30 11 1 10 12
M  V30 12 2 12 13
M  V30 13 1 13 14
M  V30 14 2 14 15
M  V30 15 1 15 16
M  V30 16 2 16 17
M  V30 17 1 17 18
M  V30 18 1 18 19
M  V30 19 2 19 20
M  V30 20 1 18 21
M  V30 21 1 21 22
M  V30 22 1 22 23
M  V30 23 1 22 24
M  V30 24 1 22 25
M  V30 25 1 25 26
M  V30 26 1 26 27
M  V30 27 2 27 28
M  V30 28 2 8 29
M  V30 29 1 29 30
M  V30 30 2 30 31
M  V30 31 1 31 32
M  V30 32 2 32 33
M  V30 33 1 33 34
M  V30 34 2 34 35
M  V30 35 1 35 7
M  V30 36 1 20 12
M  V30 37 1 35 30
M  V30 38 1 19 15
M  V30 39 1 27 17
M  V30 40 1 1 36
M  V30 41 1 1 37
M  V30 42 1 1 38
M  V30 43 1 3 39
M  V30 44 1 3 40
M  V30 45 1 3 41
M  V30 46 1 4 42
M  V30 47 1 4 43
M  V30 48 1 5 44
M  V30 49 1 5 45
M  V30 50 1 6 46
M  V30 51 1 6 47
M  V30 52 1 9 48
M  V30 53 1 13 49
M  V30 54 1 14 50
M  V30 55 1 16 51
M  V30 56 1 20 52
M  V30 57 1 21 53
M  V30 58 1 21 54
M  V30 59 1 23 55
M  V30 60 1 23 56
M  V30 61 1 23 57
M  V30 62 1 24 58
M  V30 63 1 24 59
M  V30 64 1 24 60
M  V30 65 1 25 61
M  V30 66 1 25 62
M  V30 67 1 26 63
M  V30 68 1 31 64
M  V30 69 1 32 65
M  V30 70 1 33 66
M  V30 71 1 34 67
M  V30 END BOND
M  V30 END CTAB
M  END
>  <Dataset>  (7) 
ChEMBL_Kinases

>  <Ligand_Instance>  (7) 
nan

>  <PDB_ID>  (7) 
nan

>  <Standardized_SMILES>  (7) 
CN(C)CCCn1c(NC(=O)c2ccc3cc4n(c3c2)CC(C)(C)CNC4=O)nc2ccccc21

>  <Name>  (7) 
nan

>  <Pocket>  (7) 
nan

>  <ATP_Site>  (7) 
nan

>  <Peripheral>  (7) 
nan

>  <Num_H_Atoms_ProtBoundConf>  (7) 
nan

>  <Num_Resolved_Atoms>  (7) 
nan

>  <Num_Not_Resolved_Atoms>  (7) 
nan

$$$$
CHEMBL193367
     RDKit          3D

  0  0  0  0  0  0  0  0  0  0999 V3000
M  V30 BEGIN CTAB
M  V30 COUNTS 40 43 0 0 0
M  V30 BEGIN ATOM
M  V30 1 F 3.094734 -3.613676 3.248336 0
M  V30 2 C 2.608572 -4.049369 2.029109 0
M  V30 3 F 1.384947 -4.661935 2.168347 0
M  V30 4 F 3.542250 -4.922982 1.497546 0
M  V30 5 C 2.467224 -2.913681 1.102997 0
M  V30 6 C 3.134165 -2.829756 -0.096974 0
M  V30 7 N 2.975108 -1.781887 -0.900423 0
M  V30 8 C 2.184123 -0.759626 -0.621964 0
M  V30 9 N 2.054465 0.332637 -1.520486 0
M  V30 10 C 1.258405 1.504162 -1.421183 0
M  V30 11 C 1.282597 2.455006 -2.414301 0
M  V30 12 C 0.531908 3.605938 -2.372406 0
M  V30 13 C -0.296943 3.858820 -1.304199 0
M  V30 14 N -1.142220 4.884187 -0.986433 0
M  V30 15 C -1.716113 4.596887 0.216862 0
M  V30 16 N -1.214784 3.396451 0.623244 0
M  V30 17 C -0.339802 2.922346 -0.295744 0
M  V30 18 C 0.422601 1.774730 -0.359907 0
M  V30 19 N 1.542957 -0.856880 0.548969 0
M  V30 20 C 1.638355 -1.866559 1.419711 0
M  V30 21 N 0.874084 -1.795007 2.616107 0
M  V30 22 C -0.469538 -2.260396 2.703540 0
M  V30 23 C -1.189247 -2.215722 3.865705 0
M  V30 24 C -2.492557 -2.649354 4.003681 0
M  V30 25 C -3.120095 -3.172031 2.870643 0
M  V30 26 Cl -4.760555 -3.769374 2.846917 0
M  V30 27 C -2.448538 -3.246782 1.660439 0
M  V30 28 C -1.146906 -2.788362 1.618971 0
M  V30 29 H 3.804400 -3.632681 -0.398895 0
M  V30 30 H 2.643343 0.265434 -2.403763 0
M  V30 31 H 1.923202 2.313100 -3.293237 0
M  V30 32 H 0.599530 4.312275 -3.189649 0
M  V30 33 H -1.311162 5.720480 -1.557579 0
M  V30 34 H -2.444642 5.205459 0.767273 0
M  V30 35 H 0.324555 1.101742 0.472435 0
M  V30 36 H 1.298875 -1.389012 3.470155 0
M  V30 37 H -0.749628 -1.819958 4.775246 0
M  V30 38 H -3.057447 -2.617002 4.907191 0
M  V30 39 H -2.873801 -3.640810 0.743454 0
M  V30 40 H -0.612944 -2.845256 0.666095 0
M  V30 END ATOM
M  V30 BEGIN BOND
M  V30 1 1 1 2
M  V30 2 1 2 3
M  V30 3 1 2 4
M  V30 4 1 2 5
M  V30 5 2 5 6
M  V30 6 1 6 7
M  V30 7 2 7 8
M  V30 8 1 8 9
M  V30 9 1 9 10
M  V30 10 2 10 11
M  V30 11 1 11 12
M  V30 12 2 12 13
M  V30 13 1 13 14
M  V30 14 1 14 15
M  V30 15 2 15 16
M  V30 16 1 16 17
M  V30 17 2 17 18
M  V30 18 1 8 19
M  V30 19 2 19 20
M  V30 20 1 20 21
M  V30 21 1 21 22
M  V30 22 2 22 23
M  V30 23 1 23 24
M  V30 24 2 24 25
M  V30 25 1 25 26
M  V30 26 1 25 27
M  V30 27 2 27 28
M  V30 28 1 20 5
M  V30 29 1 28 22
M  V30 30 1 18 10
M  V30 31 1 17 13
M  V30 32 1 6 29
M  V30 33 1 9 30
M  V30 34 1 11 31
M  V30 35 1 12 32
M  V30 36 1 14 33
M  V30 37 1 15 34
M  V30 38 1 18 35
M  V30 39 1 21 36
M  V30 40 1 23 37
M  V30 41 1 24 38
M  V30 42 1 27 39
M  V30 43 1 28 40
M  V30 END BOND
M  V30 END CTAB
M  END
>  <Dataset>  (8) 
ChEMBL_Kinases

>  <Ligand_Instance>  (8) 
nan

>  <PDB_ID>  (8) 
nan

>  <Standardized_SMILES>  (8) 
FC(F)(F)c1cnc(Nc2ccc3[nH]cnc3c2)nc1Nc1ccc(Cl)cc1

>  <Name>  (8) 
nan

>  <Pocket>  (8) 
nan

>  <ATP_Site>  (8) 
nan

>  <Peripheral>  (8) 
nan

>  <Num_H_Atoms_ProtBoundConf>  (8) 
nan

>  <Num_Resolved_Atoms>  (8) 
nan

>  <Num_Not_Resolved_Atoms>  (8) 
nan

$$$$
CHEMBL1933803
     RDKit          3D

  0  0  0  0  0  0  0  0  0  0999 V3000
M  V30 BEGIN CTAB
M  V30 COUNTS 39 41 0 0 0
M  V30 BEGIN ATOM
M  V30 1 C 0.545539 4.196994 3.087614 0
M  V30 2 O -0.791435 3.834861 3.466078 0
M  V30 3 C -1.290580 2.662580 2.927709 0
M  V30 4 C -2.593625 2.273652 3.277398 0
M  V30 5 C -2.932042 1.118982 2.673901 0
M  V30 6 C -2.535800 0.203614 1.886795 0
M  V30 7 C -2.343396 -0.866910 1.101282 0
M  V30 8 Cl -3.916021 -1.737249 1.253959 0
M  V30 9 C -1.598670 -1.497002 0.347902 0
M  V30 10 C -1.220659 -2.576436 -0.534956 0
M  V30 11 O -0.920376 -3.682558 -0.014354 0
M  V30 12 N -1.224894 -2.263363 -1.923268 0
M  V30 13 C -1.611232 -0.949562 -2.464013 0
M  V30 14 C -0.820161 -3.239377 -2.878084 0
M  V30 15 C 0.616704 -3.218274 -3.241654 0
M  V30 16 C 1.212751 -2.494104 -4.244883 0
M  V30 17 C 2.564753 -2.602373 -4.457437 0
M  V30 18 C 3.401136 -3.397820 -3.730431 0
M  V30 19 C 2.890296 -4.190810 -2.668159 0
M  V30 20 C 1.508124 -4.015672 -2.526015 0
M  V30 21 S -0.222008 -0.354152 0.457742 0
M  V30 22 C -1.192701 0.793322 1.652219 0
M  V30 23 C -0.495631 1.925791 2.074448 0
M  V30 24 H 0.604017 4.244768 1.957564 0
M  V30 25 H 1.282008 3.419586 3.372173 0
M  V30 26 H 0.825229 5.198171 3.431078 0
M  V30 27 H -3.259022 2.791189 3.929911 0
M  V30 28 H -3.972838 0.756741 2.909660 0
M  V30 29 H -2.009798 -1.072575 -3.499527 0
M  V30 30 H -2.419054 -0.523213 -1.839646 0
M  V30 31 H -0.719141 -0.310370 -2.458102 0
M  V30 32 H -1.041594 -4.289157 -2.531292 0
M  V30 33 H -1.368850 -3.070080 -3.824964 0
M  V30 34 H 0.558747 -1.859475 -4.823839 0
M  V30 35 H 2.977138 -1.994729 -5.274273 0
M  V30 36 H 4.466591 -3.500902 -3.877703 0
M  V30 37 H 3.440359 -4.846875 -2.030345 0
M  V30 38 H 1.071074 -4.610463 -1.712932 0
M  V30 39 H 0.482954 2.233587 1.824246 0
M  V30 END ATOM
M  V30 BEGIN BOND
M  V30 1 1 1 2
M  V30 2 1 2 3
M  V30 3 2 3 4
M  V30 4 1 4 5
M  V30 5 2 5 6
M  V30 6 1 6 7
M  V30 7 1 7 8
M  V30 8 2 7 9
M  V30 9 1 9 10
M  V30 10 2 10 11
M  V30 11 1 10 12
M  V30 12 1 12 13
M  V30 13 1 12 14
M  V30 14 1 14 15
M  V30 15 2 15 16
M  V30 16 1 16 17
M  V30 17 2 17 18
M  V30 18 1 18 19
M  V30 19 2 19 20
M  V30 20 1 9 21
M  V30 21 1 21 22
M  V30 22 2 22 23
M  V30 23 1 23 3
M  V30 24 1 22 6
M  V30 25 1 20 15
M  V30 26 1 1 24
M  V30 27 1 1 25
M  V30 28 1 1 26
M  V30 29 1 4 27
M  V30 30 1 5 28
M  V30 31 1 13 29
M  V30 32 1 13 30
M  V30 33 1 13 31
M  V30 34 1 14 32
M  V30 35 1 14 33
M  V30 36 1 16 34
M  V30 37 1 17 35
M  V30 38 1 18 36
M  V30 39 1 19 37
M  V30 40 1 20 38
M  V30 41 1 23 39
M  V30 END BOND
M  V30 END CTAB
M  END
>  <Dataset>  (9) 
ChEMBL_Kinases

>  <Ligand_Instance>  (9) 
nan

>  <PDB_ID>  (9) 
nan

>  <Standardized_SMILES>  (9) 
COc1ccc2c(Cl)c(C(=O)N(C)Cc3ccccc3)sc2c1

>  <Name>  (9) 
nan

>  <Pocket>  (9) 
nan

>  <ATP_Site>  (9) 
nan

>  <Peripheral>  (9) 
nan

>  <Num_H_Atoms_ProtBoundConf>  (9) 
nan

>  <Num_Resolved_Atoms>  (9) 
nan

>  <Num_Not_Resolved_Atoms>  (9) 
nan

$$$$
CHEMBL1933805
     RDKit          3D

  0  0  0  0  0  0  0  0  0  0999 V3000
M  V30 BEGIN CTAB
M  V30 COUNTS 43 46 0 0 0
M  V30 BEGIN ATOM
M  V30 1 C 1.713447 -7.866440 2.082889 0
M  V30 2 C 1.594367 -6.543524 1.410794 0
M  V30 3 C 2.468309 -5.524442 1.638912 0
M  V30 4 C 2.389319 -4.288535 1.035949 0
M  V30 5 C 1.374904 -4.062720 0.153442 0
M  V30 6 C 1.095794 -2.843530 -0.596743 0
M  V30 7 O 0.161607 -2.621070 -1.415737 0
M  V30 8 N 1.952286 -1.719623 -0.428157 0
M  V30 9 C 1.888604 -0.432529 -1.041749 0
M  V30 10 N 2.485076 -0.077930 -2.199908 0
M  V30 11 C 2.338666 1.187921 -2.668403 0
M  V30 12 C 1.572050 2.051108 -1.913766 0
M  V30 13 C 0.952121 1.716226 -0.728794 0
M  V30 14 C 0.145522 2.652147 0.049793 0
M  V30 15 C -0.087465 3.964309 -0.305016 0
M  V30 16 C -0.856328 4.775733 0.482066 0
M  V30 17 C -1.420946 4.313546 1.648807 0
M  V30 18 C -1.209436 2.997249 2.040514 0
M  V30 19 C -0.418658 2.183981 1.219153 0
M  V30 20 O -1.720829 2.393622 3.200221 0
M  V30 21 C -2.362877 3.262033 4.115802 0
M  V30 22 C -3.112289 4.349342 3.379604 0
M  V30 23 O -2.216138 5.046190 2.522136 0
M  V30 24 N 1.151837 0.439501 -0.340118 0
M  V30 25 C 0.473403 -5.081229 -0.096212 0
M  V30 26 C 0.557598 -6.328823 0.515895 0
M  V30 27 H 2.759537 -8.103487 2.379895 0
M  V30 28 H 1.339947 -8.673886 1.402251 0
M  V30 29 H 1.132614 -7.879977 3.035526 0
M  V30 30 H 3.274960 -5.693767 2.336186 0
M  V30 31 H 3.060751 -3.463337 1.192676 0
M  V30 32 H 2.789517 -1.697159 0.208558 0
M  V30 33 H 2.815257 1.474923 -3.595837 0
M  V30 34 H 1.475439 3.039746 -2.308241 0
M  V30 35 H 0.350806 4.338507 -1.219268 0
M  V30 36 H -1.058393 5.809389 0.232425 0
M  V30 37 H -0.242587 1.138332 1.517361 0
M  V30 38 H -3.077538 2.733154 4.771330 0
M  V30 39 H -1.557764 3.770987 4.688539 0
M  V30 40 H -3.987303 3.938613 2.835918 0
M  V30 41 H -3.503350 5.083324 4.099312 0
M  V30 42 H -0.366018 -5.003685 -0.778538 0
M  V30 43 H -0.140857 -7.133570 0.329326 0
M  V30 END ATOM
M  V30 BEGIN BOND
M  V30 1 1 1 2
M  V30 2 2 2 3
M  V30 3 1 3 4
M  V30 4 2 4 5
M  V30 5 1 5 6
M  V30 6 2 6 7
M  V30 7 1 6 8
M  V30 8 1 8 9
M  V30 9 2 9 10
M  V30 10 1 10 11
M  V30 11 2 11 12
M  V30 12 1 12 13
M  V30 13 1 13 14
M  V30 14 2 14 15
M  V30 15 1 15 16
M  V30 16 2 16 17
M  V30 17 1 17 18
M  V30 18 2 18 19
M  V30 19 1 18 20
M  V30 20 1 20 21
M  V30 21 1 21 22
M  V30 22 1 22 23
M  V30 23 2 13 24
M  V30 24 1 5 25
M  V30 25 2 25 26
M  V30 26 1 26 2
M  V30 27 1 24 9
M  V30 28 1 19 14
M  V30 29 1 23 17
M  V30 30 1 1 27
M  V30 31 1 1 28
M  V30 32 1 1 29
M  V30 33 1 3 30
M  V30 34 1 4 31
M  V30 35 1 8 32
M  V30 36 1 11 33
M  V30 37 1 12 34
M  V30 38 1 15 35
M  V30 39 1 16 36
M  V30 40 1 19 37
M  V30 41 1 21 38
M  V30 42 1 21 39
M  V30 43 1 22 40
M  V30 44 1 22 41
M  V30 45 1 25 42
M  V30 46 1 26 43
M  V30 END BOND
M  V30 END CTAB
M  END
>  <Dataset>  (10) 
ChEMBL_Kinases

>  <Ligand_Instance>  (10) 
nan

>  <PDB_ID>  (10) 
nan

>  <Standardized_SMILES>  (10) 
Cc1ccc(C(=O)Nc2nccc(-c3ccc4c(c3)OCCO4)n2)cc1

>  <Name>  (10) 
nan

>  <Pocket>  (10) 
nan

>  <ATP_Site>  (10) 
nan

>  <Peripheral>  (10) 
nan

>  <Num_H_Atoms_ProtBoundConf>  (10) 
nan

>  <Num_Resolved_Atoms>  (10) 
nan

>  <Num_Not_Resolved_Atoms>  (10) 
nan

$$$$
CHEMBL1933806
     RDKit          3D

  0  0  0  0  0  0  0  0  0  0999 V3000
M  V30 BEGIN CTAB
M  V30 COUNTS 28 29 0 0 0
M  V30 BEGIN ATOM
M  V30 1 C -1.651519 -4.134180 4.563074 0
M  V30 2 C -0.969414 -3.023919 3.822763 0
M  V30 3 O -1.375868 -1.841138 3.929521 0
M  V30 4 N 0.150834 -3.319887 2.991164 0
M  V30 5 C 0.660942 -2.126619 2.371723 0
M  V30 6 C 0.234328 -1.644316 1.149957 0
M  V30 7 C 0.969737 -0.498766 0.932433 0
M  V30 8 C 0.894217 0.389440 -0.227498 0
M  V30 9 C 1.718186 1.496296 -0.263629 0
M  V30 10 C 1.670136 2.365974 -1.359684 0
M  V30 11 C 0.769731 2.030392 -2.347509 0
M  V30 12 N 0.686705 2.883176 -3.477436 0 CHG=1 VAL=4
M  V30 13 O -0.061796 2.728458 -4.444701 0
M  V30 14 O 1.372787 4.034679 -3.777753 0 CHG=-1 VAL=1
M  V30 15 C -0.071073 0.935715 -2.351531 0
M  V30 16 C -0.000647 0.084289 -1.242584 0
M  V30 17 N 1.803539 -0.305970 1.985778 0
M  V30 18 N 1.617617 -1.299269 2.867857 0
M  V30 19 H -2.728104 -3.810541 4.651918 0
M  V30 20 H -1.238185 -4.322312 5.554180 0
M  V30 21 H -1.683879 -5.057840 3.916870 0
M  V30 22 H 0.506496 -4.300758 2.887942 0
M  V30 23 H -0.505973 -2.057798 0.499529 0
M  V30 24 H 2.423646 1.753921 0.516546 0
M  V30 25 H 2.288089 3.247627 -1.447383 0
M  V30 26 H -0.748680 0.751453 -3.175188 0
M  V30 27 H -0.643576 -0.781837 -1.211480 0
M  V30 28 H 2.117327 -1.429259 3.787731 0
M  V30 END ATOM
M  V30 BEGIN BOND
M  V30 1 1 1 2
M  V30 2 2 2 3
M  V30 3 1 2 4
M  V30 4 1 4 5
M  V30 5 2 5 6
M  V30 6 1 6 7
M  V30 7 1 7 8
M  V30 8 2 8 9
M  V30 9 1 9 10
M  V30 10 2 10 11
M  V30 11 1 11 12
M  V30 12 2 12 13
M  V30 13 1 12 14
M  V30 14 1 11 15
M  V30 15 2 15 16
M  V30 16 2 7 17
M  V30 17 1 17 18
M  V30 18 1 18 5
M  V30 19 1 16 8
M  V30 20 1 1 19
M  V30 21 1 1 20
M  V30 22 1 1 21
M  V30 23 1 4 22
M  V30 24 1 6 23
M  V30 25 1 9 24
M  V30 26 1 10 25
M  V30 27 1 15 26
M  V30 28 1 16 27
M  V30 29 1 18 28
M  V30 END BOND
M  V30 END CTAB
M  END
>  <Dataset>  (11) 
ChEMBL_Kinases

>  <Ligand_Instance>  (11) 
nan

>  <PDB_ID>  (11) 
nan

>  <Standardized_SMILES>  (11) 
CC(=O)Nc1cc(-c2ccc([N+](=O)[O-])cc2)n[nH]1

>  <Name>  (11) 
nan

>  <Pocket>  (11) 
nan

>  <ATP_Site>  (11) 
nan

>  <Peripheral>  (11) 
nan

>  <Num_H_Atoms_ProtBoundConf>  (11) 
nan

>  <Num_Resolved_Atoms>  (11) 
nan

>  <Num_Not_Resolved_Atoms>  (11) 
nan

$$$$
CHEMBL193394
     RDKit          3D

  0  0  0  0  0  0  0  0  0  0999 V3000
M  V30 BEGIN CTAB
M  V30 COUNTS 43 46 0 0 0
M  V30 BEGIN ATOM
M  V30 1 N -1.201039 -9.261453 -1.083924 0
M  V30 2 C -0.813993 -7.963783 -1.492018 0
M  V30 3 O -0.515051 -7.832982 -2.707004 0
M  V30 4 C -0.794743 -6.906728 -0.487550 0
M  V30 5 C -1.117604 -7.027684 0.846164 0
M  V30 6 C -1.058157 -5.943725 1.696909 0
M  V30 7 C -0.673521 -4.694518 1.249128 0
M  V30 8 N -0.512596 -3.468304 1.788189 0
M  V30 9 C -0.104891 -2.593899 0.849076 0
M  V30 10 C 0.175294 -1.171563 1.051680 0
M  V30 11 C 0.023672 -0.618502 2.307900 0
M  V30 12 C 0.295863 0.744366 2.484900 0
M  V30 13 C 0.707660 1.496903 1.400881 0
M  V30 14 C 0.978173 2.912635 1.639574 0
M  V30 15 O 0.817021 3.347942 2.816079 0
M  V30 16 N 1.402973 3.835673 0.673559 0
M  V30 17 C 1.636104 5.198102 1.026137 0
M  V30 18 C 2.883478 5.604747 1.449626 0
M  V30 19 C 3.105114 6.915175 1.788010 0
M  V30 20 C 2.062957 7.836016 1.702095 0
M  V30 21 C 0.797105 7.466482 1.281498 0
M  V30 22 C 0.607141 6.126182 0.945324 0
M  V30 23 C 0.857024 0.937482 0.148343 0
M  V30 24 C 0.587501 -0.412668 -0.027593 0
M  V30 25 N -0.012007 -3.285783 -0.284946 0
M  V30 26 C -0.349793 -4.583032 -0.098313 0
M  V30 27 C -0.402785 -5.663616 -0.974716 0
M  V30 28 H -1.442731 -9.584545 -0.122552 0
M  V30 29 H -1.295132 -10.083470 -1.719111 0
M  V30 30 H -1.413560 -8.008213 1.170791 0
M  V30 31 H -1.315632 -6.069447 2.730413 0
M  V30 32 H -0.695649 -3.283440 2.806023 0
M  V30 33 H -0.296839 -1.215411 3.140059 0
M  V30 34 H 0.160745 1.125713 3.489208 0
M  V30 35 H 1.541082 3.493667 -0.303152 0
M  V30 36 H 3.680965 4.866963 1.508330 0
M  V30 37 H 4.095362 7.235924 2.123772 0
M  V30 38 H 2.222249 8.854615 1.961614 0
M  V30 39 H -0.022092 8.181125 1.212001 0
M  V30 40 H -0.388838 5.865046 0.620670 0
M  V30 41 H 1.178679 1.525439 -0.698288 0
M  V30 42 H 0.711455 -0.830843 -1.019487 0
M  V30 43 H -0.125995 -5.445969 -2.000509 0
M  V30 END ATOM
M  V30 BEGIN BOND
M  V30 1 1 1 2
M  V30 2 2 2 3
M  V30 3 1 2 4
M  V30 4 2 4 5
M  V30 5 1 5 6
M  V30 6 2 6 7
M  V30 7 1 7 8
M  V30 8 1 8 9
M  V30 9 1 9 10
M  V30 10 2 10 11
M  V30 11 1 11 12
M  V30 12 2 12 13
M  V30 13 1 13 14
M  V30 14 2 14 15
M  V30 15 1 14 16
M  V30 16 1 16 17
M  V30 17 2 17 18
M  V30 18 1 18 19
M  V30 19 2 19 20
M  V30 20 1 20 21
M  V30 21 2 21 22
M  V30 22 1 13 23
M  V30 23 2 23 24
M  V30 24 2 9 25
M  V30 25 1 25 26
M  V30 26 2 26 27
M  V30 27 1 27 4
M  V30 28 1 26 7
M  V30 29 1 24 10
M  V30 30 1 22 17
M  V30 31 1 1 28
M  V30 32 1 1 29
M  V30 33 1 5 30
M  V30 34 1 6 31
M  V30 35 1 8 32
M  V30 36 1 11 33
M  V30 37 1 12 34
M  V30 38 1 16 35
M  V30 39 1 18 36
M  V30 40 1 19 37
M  V30 41 1 20 38
M  V30 42 1 21 39
M  V30 43 1 22 40
M  V30 44 1 23 41
M  V30 45 1 24 42
M  V30 46 1 27 43
M  V30 END BOND
M  V30 END CTAB
M  END
>  <Dataset>  (12) 
ChEMBL_Kinases

>  <Ligand_Instance>  (12) 
nan

>  <PDB_ID>  (12) 
nan

>  <Standardized_SMILES>  (12) 
NC(=O)c1ccc2[nH]c(-c3ccc(C(=O)Nc4ccccc4)cc3)nc2c1

>  <Name>  (12) 
nan

>  <Pocket>  (12) 
nan

>  <ATP_Site>  (12) 
nan

>  <Peripheral>  (12) 
nan

>  <Num_H_Atoms_ProtBoundConf>  (12) 
nan

>  <Num_Resolved_Atoms>  (12) 
nan

>  <Num_Not_Resolved_Atoms>  (12) 
nan

$$$$
CHEMBL193397
     RDKit          3D

  0  0  0  0  0  0  0  0  0  0999 V3000
M  V30 BEGIN CTAB
M  V30 COUNTS 42 45 0 0 0
M  V30 BEGIN ATOM
M  V30 1 N 1.471794 -8.839072 -1.165977 0
M  V30 2 C 2.008916 -7.706127 -0.464291 0
M  V30 3 O 2.916304 -8.194992 0.257998 0
M  V30 4 C 1.462201 -6.373917 -0.699486 0
M  V30 5 C 0.427108 -6.212229 -1.599570 0
M  V30 6 C 0.004897 -4.904577 -1.727521 0
M  V30 7 C 0.514867 -3.807854 -1.057459 0
M  V30 8 N 0.207717 -2.508781 -1.083558 0
M  V30 9 C 1.054522 -1.924434 -0.209165 0
M  V30 10 C 1.069102 -0.481478 0.081847 0
M  V30 11 C 0.162409 0.324284 -0.578722 0
M  V30 12 C 0.177824 1.681336 -0.303559 0
M  V30 13 C 1.084444 2.220902 0.615984 0
M  V30 14 O 1.009713 3.594884 0.813298 0
M  V30 15 C 0.204775 4.201036 1.771965 0
M  V30 16 C -0.567707 3.386653 2.577038 0
M  V30 17 C -1.342372 4.051461 3.506367 0
M  V30 18 C -1.327846 5.431329 3.603577 0
M  V30 19 N -2.138580 6.094864 4.573566 0 CHG=1 VAL=4
M  V30 20 O -2.861210 5.444861 5.335845 0
M  V30 21 O -2.951784 5.384256 5.433107 0 CHG=-1 VAL=1
M  V30 22 C -0.540845 6.210026 2.779173 0
M  V30 23 C 0.261862 5.581887 1.821206 0
M  V30 24 C 1.973927 1.373947 1.253141 0
M  V30 25 C 1.980466 0.012600 0.996901 0
M  V30 26 N 1.858730 -2.857634 0.334592 0
M  V30 27 C 1.543652 -4.081456 -0.184607 0
M  V30 28 C 2.044828 -5.352074 0.021520 0
M  V30 29 H 0.603385 -9.390195 -1.341863 0
M  V30 30 H 1.979667 -9.498818 -1.798227 0
M  V30 31 H -0.017267 -7.012702 -2.153554 0
M  V30 32 H -0.813234 -4.701377 -2.424421 0
M  V30 33 H -0.544317 -2.061132 -1.673900 0
M  V30 34 H -0.558890 -0.052682 -1.300223 0
M  V30 35 H -0.527339 2.334540 -0.812194 0
M  V30 36 H -0.540418 2.313474 2.457866 0
M  V30 37 H -1.970554 3.451632 4.166191 0
M  V30 38 H -0.546503 7.284866 2.874055 0
M  V30 39 H 0.890829 6.136625 1.156781 0
M  V30 40 H 2.662440 1.820637 1.958574 0
M  V30 41 H 2.687282 -0.633145 1.508471 0
M  V30 42 H 2.850096 -5.533969 0.710950 0
M  V30 END ATOM
M  V30 BEGIN BOND
M  V30 1 1 1 2
M  V30 2 2 2 3
M  V30 3 1 2 4
M  V30 4 2 4 5
M  V30 5 1 5 6
M  V30 6 2 6 7
M  V30 7 1 7 8
M  V30 8 1 8 9
M  V30 9 1 9 10
M  V30 10 2 10 11
M  V30 11 1 11 12
M  V30 12 2 12 13
M  V30 13 1 13 14
M  V30 14 1 14 15
M  V30 15 2 15 16
M  V30 16 1 16 17
M  V30 17 2 17 18
M  V30 18 1 18 19
M  V30 19 2 19 20
M  V30 20 1 19 21
M  V30 21 1 18 22
M  V30 22 2 22 23
M  V30 23 1 13 24
M  V30 24 2 24 25
M  V30 25 2 9 26
M  V30 26 1 26 27
M  V30 27 2 27 28
M  V30 28 1 28 4
M  V30 29 1 27 7
M  V30 30 1 25 10
M  V30 31 1 23 15
M  V30 32 1 1 29
M  V30 33 1 1 30
M  V30 34 1 5 31
M  V30 35 1 6 32
M  V30 36 1 8 33
M  V30 37 1 11 34
M  V30 38 1 12 35
M  V30 39 1 16 36
M  V30 40 1 17 37
M  V30 41 1 22 38
M  V30 42 1 23 39
M  V30 43 1 24 40
M  V30 44 1 25 41
M  V30 45 1 28 42
M  V30 END BOND
M  V30 END CTAB
M  END
>  <Dataset>  (13) 
ChEMBL_Kinases

>  <Ligand_Instance>  (13) 
nan

>  <PDB_ID>  (13) 
nan

>  <Standardized_SMILES>  (13) 
NC(=O)c1ccc2[nH]c(-c3ccc(Oc4ccc([N+](=O)[O-])cc4)cc3)nc2c1

>  <Name>  (13) 
nan

>  <Pocket>  (13) 
nan

>  <ATP_Site>  (13) 
nan

>  <Peripheral>  (13) 
nan

>  <Num_H_Atoms_ProtBoundConf>  (13) 
nan

>  <Num_Resolved_Atoms>  (13) 
nan

>  <Num_Not_Resolved_Atoms>  (13) 
nan

$$$$
CHEMBL193456
     RDKit          3D

  0  0  0  0  0  0  0  0  0  0999 V3000
M  V30 BEGIN CTAB
M  V30 COUNTS 48 50 0 0 0
M  V30 BEGIN ATOM
M  V30 1 C 6.995703 -0.673537 -1.467132 0
M  V30 2 N 6.309469 -1.906759 -1.763757 0
M  V30 3 C 7.207785 -2.996926 -2.119943 0
M  V30 4 S 5.323135 -2.470629 -0.477344 0
M  V30 5 O 4.794939 -3.822327 -0.893589 0
M  V30 6 O 6.180144 -2.699448 0.745683 0
M  V30 7 C 4.042359 -1.382938 -0.043539 0
M  V30 8 C 4.219893 -0.377343 0.891041 0
M  V30 9 C 3.203115 0.469628 1.236562 0
M  V30 10 C 1.923223 0.372969 0.669365 0
M  V30 11 N 0.864353 1.252393 1.003030 0
M  V30 12 C -0.519284 1.017652 1.198221 0
M  V30 13 C -1.067728 -0.243150 1.214934 0
M  V30 14 C -2.429459 -0.311729 1.405186 0
M  V30 15 C -3.289856 0.750878 1.579599 0
M  V30 16 C -4.709582 0.707105 1.743613 0
M  V30 17 O -5.234092 1.873628 1.601492 0
M  V30 18 C -5.728930 -0.244191 2.018001 0
M  V30 19 C -7.015412 0.018321 1.580218 0
M  V30 20 F -7.354935 1.131437 0.870816 0
M  V30 21 C -8.097792 -0.837358 1.822757 0
M  V30 22 C -7.860777 -1.986218 2.528098 0
M  V30 23 C -6.617582 -2.325583 3.000770 0
M  V30 24 C -5.614960 -1.425167 2.715415 0
M  V30 25 F -4.431174 -1.806345 3.251495 0
M  V30 26 C -2.649778 1.971262 1.546522 0
M  V30 27 N -3.312282 3.229343 1.704614 0
M  V30 28 N -1.313483 2.084464 1.362027 0
M  V30 29 C 1.769499 -0.635896 -0.260183 0
M  V30 30 C 2.780269 -1.492970 -0.616582 0
M  V30 31 H 8.050070 -0.826263 -1.161785 0
M  V30 32 H 6.975505 0.039647 -2.326211 0
M  V30 33 H 6.480574 -0.166081 -0.627182 0
M  V30 34 H 7.988236 -3.111357 -1.317613 0
M  V30 35 H 6.587153 -3.928600 -2.066924 0
M  V30 36 H 7.642510 -2.861737 -3.130875 0
M  V30 37 H 5.172486 -0.231316 1.379587 0
M  V30 38 H 3.293636 1.272434 1.963211 0
M  V30 39 H 1.255625 2.221108 1.103251 0
M  V30 40 H -0.463704 -1.131203 1.097133 0
M  V30 41 H -2.810545 -1.318105 1.382847 0
M  V30 42 H -9.096353 -0.612795 1.470493 0
M  V30 43 H -8.712570 -2.636444 2.704686 0
M  V30 44 H -6.502797 -3.232353 3.541185 0
M  V30 45 H -3.292820 3.536549 2.703772 0
M  V30 46 H -3.731976 3.704648 0.869087 0
M  V30 47 H 0.868223 -0.826668 -0.784738 0
M  V30 48 H 2.673988 -2.299244 -1.352584 0
M  V30 END ATOM
M  V30 BEGIN BOND
M  V30 1 1 1 2
M  V30 2 1 2 3
M  V30 3 1 2 4
M  V30 4 2 4 5
M  V30 5 2 4 6
M  V30 6 1 4 7
M  V30 7 2 7 8
M  V30 8 1 8 9
M  V30 9 2 9 10
M  V30 10 1 10 11
M  V30 11 1 11 12
M  V30 12 2 12 13
M  V30 13 1 13 14
M  V30 14 2 14 15
M  V30 15 1 15 16
M  V30 16 2 16 17
M  V30 17 1 16 18
M  V30 18 2 18 19
M  V30 19 1 19 20
M  V30 20 1 19 21
M  V30 21 2 21 22
M  V30 22 1 22 23
M  V30 23 2 23 24
M  V30 24 1 24 25
M  V30 25 1 15 26
M  V30 26 1 26 27
M  V30 27 2 26 28
M  V30 28 1 10 29
M  V30 29 2 29 30
M  V30 30 1 30 7
M  V30 31 1 28 12
M  V30 32 1 24 18
M  V30 33 1 1 31
M  V30 34 1 1 32
M  V30 35 1 1 33
M  V30 36 1 3 34
M  V30 37 1 3 35
M  V30 38 1 3 36
M  V30 39 1 8 37
M  V30 40 1 9 38
M  V30 41 1 11 39
M  V30 42 1 13 40
M  V30 43 1 14 41
M  V30 44 1 21 42
M  V30 45 1 22 43
M  V30 46 1 23 44
M  V30 47 1 27 45
M  V30 48 1 27 46
M  V30 49 1 29 47
M  V30 50 1 30 48
M  V30 END BOND
M  V30 END CTAB
M  END
>  <Dataset>  (14) 
ChEMBL_Kinases

>  <Ligand_Instance>  (14) 
nan

>  <PDB_ID>  (14) 
nan

>  <Standardized_SMILES>  (14) 
CN(C)S(=O)(=O)c1ccc(Nc2ccc(C(=O)c3c(F)cccc3F)c(N)n2)cc1

>  <Name>  (14) 
nan

>  <Pocket>  (14) 
nan

>  <ATP_Site>  (14) 
nan

>  <Peripheral>  (14) 
nan

>  <Num_H_Atoms_ProtBoundConf>  (14) 
nan

>  <Num_Resolved_Atoms>  (14) 
nan

>  <Num_Not_Resolved_Atoms>  (14) 
nan

$$$$
CHEMBL1933289
     RDKit          3D

  0  0  0  0  0  0  0  0  0  0999 V3000
M  V30 BEGIN CTAB
M  V30 COUNTS 64 68 0 0 0
M  V30 BEGIN ATOM
M  V30 1 C 2.822858 1.573012 -1.039781 0
M  V30 2 C 2.904953 1.550175 0.452003 0 CFG=1
M  V30 3 C 4.348981 1.695778 0.866261 0
M  V30 4 C 5.103823 2.645534 -0.039695 0
M  V30 5 N 4.727584 4.024817 0.201121 0
M  V30 6 C 3.574288 4.549939 0.845872 0
M  V30 7 O 3.552007 5.766565 1.145894 0
M  V30 8 C 2.342716 3.875764 1.240119 0
M  V30 9 C 1.248103 4.423402 1.855724 0
M  V30 10 C 0.281046 3.450805 2.063220 0
M  V30 11 C -0.995110 3.471992 2.638722 0
M  V30 12 C -1.687994 2.258403 2.668434 0
M  V30 13 C -1.175369 1.080007 2.167269 0
M  V30 14 C -1.987566 -0.135064 2.251675 0
M  V30 15 O -3.118393 -0.003837 2.789742 0
M  V30 16 N -1.524770 -1.384159 1.755809 0
M  V30 17 C -2.192169 -2.625372 1.770027 0
M  V30 18 N -2.082538 -3.512110 2.777177 0
M  V30 19 C -2.825173 -4.610095 2.537507 0
M  V30 20 C -3.024334 -5.764834 3.269760 0
M  V30 21 C -3.859951 -6.734552 2.753302 0
M  V30 22 C -4.474711 -6.538354 1.531169 0
M  V30 23 C -4.245309 -5.365517 0.833257 0
M  V30 24 C -3.419842 -4.356745 1.296027 0
M  V30 25 N -3.022438 -3.150152 0.850793 0
M  V30 26 C -3.439167 -2.553027 -0.400088 0
M  V30 27 C -2.529456 -2.918522 -1.539313 0
M  V30 28 C -1.118258 -2.483784 -1.330587 0
M  V30 29 N -0.274740 -2.854183 -2.449788 0
M  V30 30 C 1.087751 -2.434927 -2.250496 0
M  V30 31 C -0.775692 -2.316373 -3.700645 0
M  V30 32 C 0.085991 1.133259 1.615542 0
M  V30 33 C 0.844120 2.283232 1.541977 0
M  V30 34 N 2.072237 2.567928 1.058934 0
M  V30 35 H 1.862051 1.157877 -1.418968 0
M  V30 36 H 2.859177 2.607893 -1.446888 0
M  V30 37 H 3.606057 0.909340 -1.448583 0
M  V30 38 H 2.583132 0.550518 0.807388 0
M  V30 39 H 4.835955 0.703710 0.772325 0
M  V30 40 H 4.398529 2.073445 1.891469 0
M  V30 41 H 6.176842 2.554339 0.230410 0
M  V30 42 H 4.976428 2.394992 -1.092111 0
M  V30 43 H 5.384572 4.744301 -0.140379 0
M  V30 44 H 1.157399 5.473665 2.138768 0
M  V30 45 H -1.402900 4.391069 3.033165 0
M  V30 46 H -2.664637 2.333248 3.122266 0
M  V30 47 H -0.580616 -1.459210 1.316544 0
M  V30 48 H -2.490227 -5.826250 4.230170 0
M  V30 49 H -3.983061 -7.623976 3.368770 0
M  V30 50 H -5.126953 -7.320718 1.152343 0
M  V30 51 H -4.740829 -5.243600 -0.119003 0
M  V30 52 H -4.491313 -2.798202 -0.593446 0
M  V30 53 H -3.410271 -1.429914 -0.339252 0
M  V30 54 H -2.897230 -2.505381 -2.498824 0
M  V30 55 H -2.548471 -4.036230 -1.699099 0
M  V30 56 H -1.045528 -1.430584 -1.059901 0
M  V30 57 H -0.711029 -3.068237 -0.457770 0
M  V30 58 H 1.164576 -1.437570 -1.789498 0
M  V30 59 H 1.565306 -2.426801 -3.269386 0
M  V30 60 H 1.635360 -3.216896 -1.676676 0
M  V30 61 H -1.223999 -1.310528 -3.575852 0
M  V30 62 H -1.498972 -2.992463 -4.167740 0
M  V30 63 H 0.082265 -2.212089 -4.382781 0
M  V30 64 H 0.515377 0.249867 1.219308 0
M  V30 END ATOM
M  V30 BEGIN BOND
M  V30 1 1 1 2
M  V30 2 1 2 3
M  V30 3 1 3 4
M  V30 4 1 4 5
M  V30 5 1 5 6
M  V30 6 2 6 7
M  V30 7 1 6 8
M  V30 8 2 8 9
M  V30 9 1 9 10
M  V30 10 2 10 11
M  V30 11 1 11 12
M  V30 12 2 12 13
M  V30 13 1 13 14
M  V30 14 2 14 15
M  V30 15 1 14 16
M  V30 16 1 16 17
M  V30 17 2 17 18
M  V30 18 1 18 19
M  V30 19 2 19 20
M  V30 20 1 20 21
M  V30 21 2 21 22
M  V30 22 1 22 23
M  V30 23 2 23 24
M  V30 24 1 24 25
M  V30 25 1 25 26
M  V30 26 1 26 27
M  V30 27 1 27 28
M  V30 28 1 28 29
M  V30 29 1 29 30
M  V30 30 1 29 31
M  V30 31 1 13 32
M  V30 32 2 32 33
M  V30 33 1 33 34
M  V30 34 1 34 2
M  V30 35 1 34 8
M  V30 36 1 33 10
M  V30 37 1 25 17
M  V30 38 1 24 19
M  V30 39 1 1 35
M  V30 40 1 1 36
M  V30 41 1 1 37
M  V30 42 1 2 38 CFG=1
M  V30 43 1 3 39
M  V30 44 1 3 40
M  V30 45 1 4 41
M  V30 46 1 4 42
M  V30 47 1 5 43
M  V30 48 1 9 44
M  V30 49 1 11 45
M  V30 50 1 12 46
M  V30 51 1 16 47
M  V30 52 1 20 48
M  V30 53 1 21 49
M  V30 54 1 22 50
M  V30 55 1 23 51
M  V30 56 1 26 52
M  V30 57 1 26 53
M  V30 58 1 27 54
M  V30 59 1 27 55
M  V30 60 1 28 56
M  V30 61 1 28 57
M  V30 62 1 30 58
M  V30 63 1 30 59
M  V30 64 1 30 60
M  V30 65 1 31 61
M  V30 66 1 31 62
M  V30 67 1 31 63
M  V30 68 1 32 64
M  V30 END BOND
M  V30 END CTAB
M  END
>  <Dataset>  (15) 
ChEMBL_Kinases

>  <Ligand_Instance>  (15) 
nan

>  <PDB_ID>  (15) 
nan

>  <Standardized_SMILES>  (15) 
C[C@H]1CCNC(=O)c2cc3ccc(C(=O)Nc4nc5ccccc5n4CCCN(C)C)cc3n21

>  <Name>  (15) 
nan

>  <Pocket>  (15) 
nan

>  <ATP_Site>  (15) 
nan

>  <Peripheral>  (15) 
nan

>  <Num_H_Atoms_ProtBoundConf>  (15) 
nan

>  <Num_Resolved_Atoms>  (15) 
nan

>  <Num_Not_Resolved_Atoms>  (15) 
nan

$$$$
CHEMBL1940510
     RDKit          3D

  0  0  0  0  0  0  0  0  0  0999 V3000
M  V30 BEGIN CTAB
M  V30 COUNTS 65 69 0 0 0
M  V30 BEGIN ATOM
M  V30 1 O 0.572006 0.425932 4.202346 0
M  V30 2 C 0.348485 -0.155308 3.123953 0
M  V30 3 C 1.487271 -0.241030 2.195017 0
M  V30 4 C 2.477572 -1.101791 1.765568 0
M  V30 5 C 3.197039 -0.409200 0.816379 0
M  V30 6 C 2.630512 0.841447 0.696238 0
M  V30 7 C 3.096624 1.892161 -0.209497 0
M  V30 8 C 2.355524 3.061340 -0.120779 0
M  V30 9 C 2.731403 4.121510 -0.956380 0
M  V30 10 C 3.816950 3.960608 -1.828463 0
M  V30 11 Cl 4.238344 5.320078 -2.848185 0
M  V30 12 C 4.540019 2.763053 -1.888087 0
M  V30 13 C 4.162655 1.707700 -1.053399 0
M  V30 14 O 1.618706 0.907050 1.527886 0
M  V30 15 N -0.945719 -0.666608 2.894657 0
M  V30 16 C -1.886247 -0.423219 4.003789 0
M  V30 17 C -2.620082 0.830871 3.809604 0
M  V30 18 C -2.335170 2.085269 4.245036 0
M  V30 19 C -3.123822 3.166483 3.964966 0
M  V30 20 C -4.269703 2.982832 3.200695 0
M  V30 21 C -4.539970 1.716403 2.772129 0
M  V30 22 N -3.748111 0.644616 3.056180 0
M  V30 23 C -1.468893 -1.373854 1.768995 0
M  V30 24 C -0.844051 -2.765623 1.587529 0
M  V30 25 C -1.846472 -3.516380 0.725547 0
M  V30 26 C -1.942081 -2.884101 -0.668432 0
M  V30 27 N -0.763197 -3.094561 -1.421052 0
M  V30 28 C -0.905212 -2.665419 -2.778112 0
M  V30 29 C 0.480395 -2.446918 -3.367094 0
M  V30 30 N 1.395249 -3.451812 -2.881202 0
M  V30 31 C 0.723225 -4.675232 -2.486116 0
M  V30 32 C -0.331756 -4.480672 -1.446600 0
M  V30 33 C -2.261433 -1.430911 -0.538634 0
M  V30 34 C -1.350103 -0.695817 0.452570 0
M  V30 35 H 2.452187 -2.047322 2.244685 0
M  V30 36 H 4.024712 -0.877608 0.336181 0
M  V30 37 H 1.516437 3.225924 0.533649 0
M  V30 38 H 2.175923 5.053839 -0.916118 0
M  V30 39 H 5.372543 2.691128 -2.584006 0
M  V30 40 H 4.709968 0.771295 -1.084309 0
M  V30 41 H -1.335421 -0.360682 4.973212 0
M  V30 42 H -2.556373 -1.298971 4.120846 0
M  V30 43 H -1.446132 2.163148 4.827324 0
M  V30 44 H -2.902892 4.153083 4.305615 0
M  V30 45 H -4.929015 3.779413 2.944305 0
M  V30 46 H -5.443787 1.565552 2.164926 0
M  V30 47 H -2.563859 -1.606061 1.934657 0
M  V30 48 H 0.138678 -2.681946 1.122402 0
M  V30 49 H -0.832110 -3.268912 2.562043 0
M  V30 50 H -2.838474 -3.366802 1.195975 0
M  V30 51 H -1.654205 -4.576002 0.614896 0
M  V30 52 H -2.814340 -3.366288 -1.152021 0
M  V30 53 H -1.563747 -1.833125 -2.985835 0
M  V30 54 H -1.333226 -3.564811 -3.329023 0
M  V30 55 H 0.381000 -2.399139 -4.456040 0
M  V30 56 H 0.835768 -1.462370 -2.985087 0
M  V30 57 H 2.093486 -3.115907 -2.201297 0
M  V30 58 H 0.354014 -5.122412 -3.437457 0
M  V30 59 H 1.541259 -5.383346 -2.166284 0
M  V30 60 H 0.055384 -4.833743 -0.471882 0
M  V30 61 H -1.235294 -5.077228 -1.767717 0
M  V30 62 H -3.322096 -1.349043 -0.149062 0
M  V30 63 H -2.227655 -0.868661 -1.454265 0
M  V30 64 H -0.315246 -0.839147 0.084632 0
M  V30 65 H -1.708505 0.339438 0.462791 0
M  V30 END ATOM
M  V30 BEGIN BOND
M  V30 1 2 1 2
M  V30 2 1 2 3
M  V30 3 2 3 4
M  V30 4 1 4 5
M  V30 5 2 5 6
M  V30 6 1 6 7
M  V30 7 2 7 8
M  V30 8 1 8 9
M  V30 9 2 9 10
M  V30 10 1 10 11
M  V30 11 1 10 12
M  V30 12 2 12 13
M  V30 13 1 6 14
M  V30 14 1 2 15
M  V30 15 1 15 16
M  V30 16 1 16 17
M  V30 17 2 17 18
M  V30 18 1 18 19
M  V30 19 2 19 20
M  V30 20 1 20 21
M  V30 21 2 21 22
M  V30 22 1 15 23
M  V30 23 1 23 24
M  V30 24 1 24 25
M  V30 25 1 25 26
M  V30 26 1 26 27
M  V30 27 1 27 28
M  V30 28 1 28 29
M  V30 29 1 29 30
M  V30 30 1 30 31
M  V30 31 1 31 32
M  V30 32 1 26 33
M  V30 33 1 33 34
M  V30 34 1 14 3
M  V30 35 1 22 17
M  V30 36 1 34 23
M  V30 37 1 13 7
M  V30 38 1 32 27
M  V30 39 1 4 35
M  V30 40 1 5 36
M  V30 41 1 8 37
M  V30 42 1 9 38
M  V30 43 1 12 39
M  V30 44 1 13 40
M  V30 45 1 16 41
M  V30 46 1 16 42
M  V30 47 1 18 43
M  V30 48 1 19 44
M  V30 49 1 20 45
M  V30 50 1 21 46
M  V30 51 1 23 47
M  V30 52 1 24 48
M  V30 53 1 24 49
M  V30 54 1 25 50
M  V30 55 1 25 51
M  V30 56 1 26 52
M  V30 57 1 28 53
M  V30 58 1 28 54
M  V30 59 1 29 55
M  V30 60 1 29 56
M  V30 61 1 30 57
M  V30 62 1 31 58
M  V30 63 1 31 59
M  V30 64 1 32 60
M  V30 65 1 32 61
M  V30 66 1 33 62
M  V30 67 1 33 63
M  V30 68 1 34 64
M  V30 69 1 34 65
M  V30 END BOND
M  V30 END CTAB
M  END
>  <Dataset>  (16) 
ChEMBL_Kinases

>  <Ligand_Instance>  (16) 
nan

>  <PDB_ID>  (16) 
nan

>  <Standardized_SMILES>  (16) 
O=C(c1ccc(-c2ccc(Cl)cc2)o1)N(Cc1ccccn1)C1CCC(N2CCNCC2)CC1

>  <Name>  (16) 
nan

>  <Pocket>  (16) 
nan

>  <ATP_Site>  (16) 
nan

>  <Peripheral>  (16) 
nan

>  <Num_H_Atoms_ProtBoundConf>  (16) 
nan

>  <Num_Resolved_Atoms>  (16) 
nan

>  <Num_Not_Resolved_Atoms>  (16) 
nan

$$$$
CHEMBL1940509
     RDKit          3D

  0  0  0  0  0  0  0  0  0  0999 V3000
M  V30 BEGIN CTAB
M  V30 COUNTS 60 64 0 0 0
M  V30 BEGIN ATOM
M  V30 1 N 4.571811 -5.225712 7.524964 0
M  V30 2 C 4.288212 -4.428729 6.760551 0
M  V30 3 C 3.921713 -3.402498 5.795849 0
M  V30 4 C 4.877896 -2.865724 4.942594 0
M  V30 5 C 4.654142 -1.904748 4.000359 0
M  V30 6 C 3.351568 -1.423590 3.887970 0
M  V30 7 C 2.967949 -0.402205 2.905218 0
M  V30 8 C 3.909081 0.099278 1.994349 0
M  V30 9 C 3.171534 1.009554 1.265226 0
M  V30 10 C 1.860244 1.039297 1.727693 0
M  V30 11 C 0.806486 1.883421 1.188137 0
M  V30 12 O 1.260448 3.054329 1.433183 0
M  V30 13 N -0.445432 1.761345 0.538225 0
M  V30 14 C -1.069147 3.040738 0.163573 0
M  V30 15 C -0.695123 3.330455 -1.235874 0
M  V30 16 C 0.417428 4.050427 -1.590387 0
M  V30 17 C 0.806920 4.346674 -2.902402 0
M  V30 18 C -0.027586 3.854432 -3.907214 0
M  V30 19 C -1.132086 3.137656 -3.489707 0
M  V30 20 N -1.485948 2.865430 -2.223831 0
M  V30 21 C -1.120643 0.561066 0.198379 0
M  V30 22 C -2.407449 0.504687 -0.279881 0
M  V30 23 C -3.055107 -0.660484 -0.616951 0
M  V30 24 C -2.427975 -1.878694 -0.489586 0
M  V30 25 N -3.087823 -3.107648 -0.826898 0
M  V30 26 C -2.635901 -4.459526 -0.526555 0
M  V30 27 C -2.458642 -5.193635 -1.823360 0
M  V30 28 N -2.789504 -4.377657 -2.980940 0
M  V30 29 C -4.135205 -3.844924 -2.875690 0
M  V30 30 C -4.347606 -3.184757 -1.538946 0
M  V30 31 C -1.128248 -1.906132 -0.016148 0
M  V30 32 C -0.551147 -0.687743 0.299798 0
M  V30 33 O 1.814878 0.171671 2.706486 0
M  V30 34 C 2.332747 -1.919547 4.717570 0
M  V30 35 C 2.645121 -2.908463 5.662791 0
M  V30 36 H 5.925649 -3.197031 4.972750 0
M  V30 37 H 5.401578 -1.487045 3.333990 0
M  V30 38 H 4.966405 -0.093909 1.810462 0
M  V30 39 H 3.517063 1.639783 0.437026 0
M  V30 40 H -2.151657 3.022847 0.355612 0
M  V30 41 H -0.663857 3.860128 0.824815 0
M  V30 42 H 1.092787 4.458557 -0.867864 0
M  V30 43 H 1.684606 4.914417 -3.164192 0
M  V30 44 H 0.152318 4.007120 -4.963814 0
M  V30 45 H -1.795125 2.746367 -4.257180 0
M  V30 46 H -2.972646 1.415665 -0.405717 0
M  V30 47 H -4.072267 -0.570042 -0.980818 0
M  V30 48 H -3.487095 -4.941299 0.044319 0
M  V30 49 H -1.738778 -4.433416 0.117743 0
M  V30 50 H -3.086294 -6.120516 -1.844080 0
M  V30 51 H -1.405767 -5.476601 -1.897099 0
M  V30 52 H -2.132800 -3.570264 -3.014996 0
M  V30 53 H -4.296192 -3.157373 -3.720004 0
M  V30 54 H -4.816589 -4.690577 -3.013541 0
M  V30 55 H -4.829848 -2.221441 -1.717018 0
M  V30 56 H -5.068354 -3.829038 -0.961728 0
M  V30 57 H -0.572411 -2.825530 0.103618 0
M  V30 58 H 0.466893 -0.791373 0.648970 0
M  V30 59 H 1.305284 -1.606448 4.699946 0
M  V30 60 H 1.876168 -3.325993 6.335126 0
M  V30 END ATOM
M  V30 BEGIN BOND
M  V30 1 3 1 2
M  V30 2 1 2 3
M  V30 3 2 3 4
M  V30 4 1 4 5
M  V30 5 2 5 6
M  V30 6 1 6 7
M  V30 7 2 7 8
M  V30 8 1 8 9
M  V30 9 2 9 10
M  V30 10 1 10 11
M  V30 11 2 11 12
M  V30 12 1 11 13
M  V30 13 1 13 14
M  V30 14 1 14 15
M  V30 15 2 15 16
M  V30 16 1 16 17
M  V30 17 2 17 18
M  V30 18 1 18 19
M  V30 19 2 19 20
M  V30 20 1 13 21
M  V30 21 2 21 22
M  V30 22 1 22 23
M  V30 23 2 23 24
M  V30 24 1 24 25
M  V30 25 1 25 26
M  V30 26 1 26 27
M  V30 27 1 27 28
M  V30 28 1 28 29
M  V30 29 1 29 30
M  V30 30 1 24 31
M  V30 31 2 31 32
M  V30 32 1 10 33
M  V30 33 1 6 34
M  V30 34 2 34 35
M  V30 35 1 35 3
M  V30 36 1 33 7
M  V30 37 1 20 15
M  V30 38 1 32 21
M  V30 39 1 30 25
M  V30 40 1 4 36
M  V30 41 1 5 37
M  V30 42 1 8 38
M  V30 43 1 9 39
M  V30 44 1 14 40
M  V30 45 1 14 41
M  V30 46 1 16 42
M  V30 47 1 17 43
M  V30 48 1 18 44
M  V30 49 1 19 45
M  V30 50 1 22 46
M  V30 51 1 23 47
M  V30 52 1 26 48
M  V30 53 1 26 49
M  V30 54 1 27 50
M  V30 55 1 27 51
M  V30 56 1 28 52
M  V30 57 1 29 53
M  V30 58 1 29 54
M  V30 59 1 30 55
M  V30 60 1 30 56
M  V30 61 1 31 57
M  V30 62 1 32 58
M  V30 63 1 34 59
M  V30 64 1 35 60
M  V30 END BOND
M  V30 END CTAB
M  END
>  <Dataset>  (17) 
ChEMBL_Kinases

>  <Ligand_Instance>  (17) 
nan

>  <PDB_ID>  (17) 
nan

>  <Standardized_SMILES>  (17) 
N#Cc1ccc(-c2ccc(C(=O)N(Cc3ccccn3)c3ccc(N4CCNCC4)cc3)o2)cc1

>  <Name>  (17) 
nan

>  <Pocket>  (17) 
nan

>  <ATP_Site>  (17) 
nan

>  <Peripheral>  (17) 
nan

>  <Num_H_Atoms_ProtBoundConf>  (17) 
nan

>  <Num_Resolved_Atoms>  (17) 
nan

>  <Num_Not_Resolved_Atoms>  (17) 
nan

$$$$
CHEMBL1940505
     RDKit          3D

  0  0  0  0  0  0  0  0  0  0999 V3000
M  V30 BEGIN CTAB
M  V30 COUNTS 70 74 0 0 0
M  V30 BEGIN ATOM
M  V30 1 O 2.537409 -0.283874 3.269245 0
M  V30 2 C 3.031835 0.712638 3.826771 0
M  V30 3 O 4.184219 0.654533 4.575986 0
M  V30 4 C 2.360483 2.030649 3.687078 0
M  V30 5 C 1.130104 1.922288 2.847773 0
M  V30 6 C 1.149077 2.089312 1.473011 0
M  V30 7 C 0.005952 1.987486 0.701877 0
M  V30 8 C -1.181446 1.708615 1.353575 0
M  V30 9 N -2.452175 1.570310 0.706088 0
M  V30 10 N -3.596657 2.202206 1.017449 0
M  V30 11 C -4.583470 1.812997 0.181424 0
M  V30 12 C -5.923891 2.411884 0.382542 0
M  V30 13 C -6.942979 1.320502 0.558668 0
M  V30 14 C -7.364758 0.966410 -0.824604 0
M  V30 15 C -6.966194 2.101484 -1.725262 0
M  V30 16 C -6.393913 3.159587 -0.828876 0
M  V30 17 C -3.975335 0.917058 -0.646269 0
M  V30 18 C -2.643962 0.760609 -0.324327 0
M  V30 19 N -1.724464 -0.097493 -0.988219 0
M  V30 20 C -1.367563 -1.459395 -0.756807 0
M  V30 21 O -2.009621 -1.930144 0.216370 0
M  V30 22 N -0.400911 -2.032034 -1.612314 0
M  V30 23 C -0.134230 -3.442237 -1.251239 0
M  V30 24 N 0.657682 -3.921301 -0.504411 0
M  V30 25 C 0.798160 -5.221707 -0.264934 0
M  V30 26 C 1.783911 -5.830648 0.665386 0
M  V30 27 C 2.634518 -4.771710 1.328443 0
M  V30 28 O 3.289606 -4.103101 0.293503 0
M  V30 29 C 4.120307 -3.090902 0.707066 0
M  V30 30 C 4.791163 -2.413849 -0.433686 0
M  V30 31 C 4.331694 -1.325914 -1.136473 0
M  V30 32 C 5.039321 -0.780083 -2.178738 0
M  V30 33 C 6.247907 -1.324861 -2.546154 0
M  V30 34 C 6.709599 -2.413300 -1.844516 0
M  V30 35 C 5.995875 -2.964698 -0.792445 0
M  V30 36 C -0.109421 -6.074092 -0.997446 0
M  V30 37 S -1.089808 -4.784070 -1.983381 0
M  V30 38 C -1.223474 1.536880 2.735093 0
M  V30 39 C -0.074010 1.640457 3.500587 0
M  V30 40 H 4.491925 -0.251008 4.961399 0
M  V30 41 H 2.173244 2.521326 4.649366 0
M  V30 42 H 3.074996 2.673523 3.111421 0
M  V30 43 H 2.099022 2.309284 0.978051 0
M  V30 44 H -0.030662 2.106719 -0.350775 0
M  V30 45 H -5.900945 3.087563 1.287659 0
M  V30 46 H -7.828399 1.779921 1.063262 0
M  V30 47 H -6.547760 0.457722 1.132787 0
M  V30 48 H -8.459823 0.789570 -0.919118 0
M  V30 49 H -6.868519 0.007754 -1.132159 0
M  V30 50 H -7.861589 2.490416 -2.269075 0
M  V30 51 H -6.218603 1.747195 -2.482957 0
M  V30 52 H -5.583079 3.739080 -1.318341 0
M  V30 53 H -7.222129 3.829491 -0.484733 0
M  V30 54 H -4.544612 0.437961 -1.427874 0
M  V30 55 H -1.297444 0.473737 -1.758113 0
M  V30 56 H 0.027303 -1.464707 -2.382127 0
M  V30 57 H 2.512300 -6.490728 0.123197 0
M  V30 58 H 1.307386 -6.474630 1.427820 0
M  V30 59 H 3.327730 -5.173410 2.063497 0
M  V30 60 H 1.923003 -4.025917 1.774109 0
M  V30 61 H 3.499702 -2.291210 1.200562 0
M  V30 62 H 4.861973 -3.394852 1.459131 0
M  V30 63 H 3.386236 -0.930178 -0.819958 0
M  V30 64 H 4.646324 0.077624 -2.710279 0
M  V30 65 H 6.779278 -0.877766 -3.364404 0
M  V30 66 H 7.674224 -2.781175 -2.201764 0
M  V30 67 H 6.530433 -3.822408 -0.365066 0
M  V30 68 H -0.085259 -7.252634 -0.872120 0
M  V30 69 H -2.139478 1.316927 3.278166 0
M  V30 70 H -0.085545 1.509992 4.579108 0
M  V30 END ATOM
M  V30 BEGIN BOND
M  V30 1 2 1 2
M  V30 2 1 2 3
M  V30 3 1 2 4
M  V30 4 1 4 5
M  V30 5 2 5 6
M  V30 6 1 6 7
M  V30 7 2 7 8
M  V30 8 1 8 9
M  V30 9 1 9 10
M  V30 10 2 10 11
M  V30 11 1 11 12
M  V30 12 1 12 13
M  V30 13 1 13 14
M  V30 14 1 14 15
M  V30 15 1 15 16
M  V30 16 1 11 17
M  V30 17 2 17 18
M  V30 18 1 18 19
M  V30 19 1 19 20
M  V30 20 2 20 21
M  V30 21 1 20 22
M  V30 22 1 22 23
M  V30 23 2 23 24
M  V30 24 1 24 25
M  V30 25 1 25 26
M  V30 26 1 26 27
M  V30 27 1 27 28
M  V30 28 1 28 29
M  V30 29 1 29 30
M  V30 30 2 30 31
M  V30 31 1 31 32
M  V30 32 2 32 33
M  V30 33 1 33 34
M  V30 34 2 34 35
M  V30 35 2 25 36
M  V30 36 1 36 37
M  V30 37 1 8 38
M  V30 38 2 38 39
M  V30 39 1 39 5
M  V30 40 1 18 9
M  V30 41 1 37 23
M  V30 42 1 16 12
M  V30 43 1 35 30
M  V30 44 1 3 40
M  V30 45 1 4 41
M  V30 46 1 4 42
M  V30 47 1 6 43
M  V30 48 1 7 44
M  V30 49 1 12 45
M  V30 50 1 13 46
M  V30 51 1 13 47
M  V30 52 1 14 48
M  V30 53 1 14 49
M  V30 54 1 15 50
M  V30 55 1 15 51
M  V30 56 1 16 52
M  V30 57 1 16 53
M  V30 58 1 17 54
M  V30 59 1 19 55
M  V30 60 1 22 56
M  V30 61 1 26 57
M  V30 62 1 26 58
M  V30 63 1 27 59
M  V30 64 1 27 60
M  V30 65 1 29 61
M  V30 66 1 29 62
M  V30 67 1 31 63
M  V30 68 1 32 64
M  V30 69 1 33 65
M  V30 70 1 34 66
M  V30 71 1 35 67
M  V30 72 1 36 68
M  V30 73 1 38 69
M  V30 74 1 39 70
M  V30 END BOND
M  V30 END CTAB
M  END
>  <Dataset>  (18) 
ChEMBL_Kinases

>  <Ligand_Instance>  (18) 
nan

>  <PDB_ID>  (18) 
nan

>  <Standardized_SMILES>  (18) 
O=C(O)Cc1ccc(-n2nc(C3CCCC3)cc2NC(=O)Nc2nc(CCOCc3ccccc3)cs2)cc1

>  <Name>  (18) 
nan

>  <Pocket>  (18) 
nan

>  <ATP_Site>  (18) 
nan

>  <Peripheral>  (18) 
nan

>  <Num_H_Atoms_ProtBoundConf>  (18) 
nan

>  <Num_Resolved_Atoms>  (18) 
nan

>  <Num_Not_Resolved_Atoms>  (18) 
nan

$$$$
CHEMBL1940504
     RDKit          3D

  0  0  0  0  0  0  0  0  0  0999 V3000
M  V30 BEGIN CTAB
M  V30 COUNTS 70 74 0 0 0
M  V30 BEGIN ATOM
M  V30 1 O 4.145676 -2.774963 3.660523 0
M  V30 2 C 5.162294 -2.413771 2.982411 0
M  V30 3 O 5.995851 -3.282318 2.317627 0
M  V30 4 C 5.430797 -0.937167 2.932264 0
M  V30 5 C 4.408700 -0.197362 3.717709 0
M  V30 6 C 4.536468 0.100906 5.052450 0
M  V30 7 C 3.497277 0.798242 5.652906 0
M  V30 8 C 2.375975 1.182987 4.952089 0
M  V30 9 C 2.261602 0.875824 3.609965 0
M  V30 10 N 1.104637 1.261396 2.847340 0
M  V30 11 N 0.703853 2.508347 2.666606 0
M  V30 12 C -0.391057 2.535798 1.919725 0
M  V30 13 C -1.205496 3.689204 1.449640 0
M  V30 14 C -2.610710 3.430051 1.981275 0
M  V30 15 C -3.569203 3.916219 0.913161 0
M  V30 16 C -2.840738 3.517230 -0.347422 0
M  V30 17 C -1.367848 3.558993 -0.041408 0
M  V30 18 C -0.656939 1.212984 1.638701 0
M  V30 19 C 0.297234 0.414616 2.231613 0
M  V30 20 N 0.427318 -0.999819 2.215102 0
M  V30 21 C -0.441214 -1.897556 1.552914 0
M  V30 22 O -1.417454 -1.424778 0.917606 0
M  V30 23 N -0.249867 -3.280497 1.582529 0
M  V30 24 C -1.219782 -4.113655 0.855037 0
M  V30 25 N -2.190010 -3.772710 0.210957 0
M  V30 26 C -2.990647 -4.641078 -0.401774 0
M  V30 27 C -4.166638 -4.173921 -1.176647 0
M  V30 28 C -3.705824 -3.939439 -2.612734 0
M  V30 29 O -2.700525 -2.989265 -2.704396 0
M  V30 30 C -2.391749 -2.891315 -4.079959 0
M  V30 31 C -1.324641 -1.905115 -4.322397 0
M  V30 32 C -1.538612 -0.551033 -4.570032 0
M  V30 33 C -0.491925 0.291847 -4.784127 0
M  V30 34 C 0.820941 -0.127511 -4.770831 0
M  V30 35 C 1.094495 -1.468677 -4.528639 0
M  V30 36 C 0.016086 -2.305655 -4.314029 0
M  V30 37 C -2.593378 -6.085532 -0.230223 0
M  V30 38 S -1.048512 -5.880804 0.848085 0
M  V30 39 C 3.278466 0.186541 2.996839 0
M  V30 40 H 5.891993 -4.284877 2.479331 0
M  V30 41 H 6.462484 -0.746378 3.337015 0
M  V30 42 H 5.460011 -0.652500 1.877428 0
M  V30 43 H 5.439574 -0.226886 5.550972 0
M  V30 44 H 3.597961 1.030623 6.695254 0
M  V30 45 H 1.575170 1.722622 5.423177 0
M  V30 46 H -0.813234 4.643241 1.793595 0
M  V30 47 H -2.796456 2.331876 2.063576 0
M  V30 48 H -2.807595 3.961090 2.923495 0
M  V30 49 H -3.781071 4.987827 0.973765 0
M  V30 50 H -4.524546 3.337199 0.987996 0
M  V30 51 H -3.058231 4.188858 -1.184694 0
M  V30 52 H -3.172467 2.501063 -0.630140 0
M  V30 53 H -0.864606 4.379434 -0.596449 0
M  V30 54 H -0.916182 2.622542 -0.428222 0
M  V30 55 H -1.496098 0.889336 1.040303 0
M  V30 56 H 1.215740 -1.454055 2.722539 0
M  V30 57 H 0.532556 -3.699591 2.088819 0
M  V30 58 H -4.955261 -4.955624 -1.235624 0
M  V30 59 H -4.594360 -3.272063 -0.742709 0
M  V30 60 H -4.557457 -3.578851 -3.237774 0
M  V30 61 H -3.292389 -4.878395 -3.020637 0
M  V30 62 H -3.284539 -2.626129 -4.649809 0
M  V30 63 H -2.008885 -3.867187 -4.426503 0
M  V30 64 H -2.562892 -0.220748 -4.581152 0
M  V30 65 H -0.665823 1.340759 -4.975628 0
M  V30 66 H 1.679485 0.520663 -4.938066 0
M  V30 67 H 2.099924 -1.844495 -4.507858 0
M  V30 68 H 0.236519 -3.340494 -4.127606 0
M  V30 69 H -3.368744 -6.826767 -0.816922 0
M  V30 70 H 3.166287 -0.043665 1.940577 0
M  V30 END ATOM
M  V30 BEGIN BOND
M  V30 1 2 1 2
M  V30 2 1 2 3
M  V30 3 1 2 4
M  V30 4 1 4 5
M  V30 5 2 5 6
M  V30 6 1 6 7
M  V30 7 2 7 8
M  V30 8 1 8 9
M  V30 9 1 9 10
M  V30 10 1 10 11
M  V30 11 2 11 12
M  V30 12 1 12 13
M  V30 13 1 13 14
M  V30 14 1 14 15
M  V30 15 1 15 16
M  V30 16 1 16 17
M  V30 17 1 12 18
M  V30 18 2 18 19
M  V30 19 1 19 20
M  V30 20 1 20 21
M  V30 21 2 21 22
M  V30 22 1 21 23
M  V30 23 1 23 24
M  V30 24 2 24 25
M  V30 25 1 25 26
M  V30 26 1 26 27
M  V30 27 1 27 28
M  V30 28 1 28 29
M  V30 29 1 29 30
M  V30 30 1 30 31
M  V30 31 2 31 32
M  V30 32 1 32 33
M  V30 33 2 33 34
M  V30 34 1 34 35
M  V30 35 2 35 36
M  V30 36 2 26 37
M  V30 37 1 37 38
M  V30 38 2 9 39
M  V30 39 1 39 5
M  V30 40 1 19 10
M  V30 41 1 38 24
M  V30 42 1 17 13
M  V30 43 1 36 31
M  V30 44 1 3 40
M  V30 45 1 4 41
M  V30 46 1 4 42
M  V30 47 1 6 43
M  V30 48 1 7 44
M  V30 49 1 8 45
M  V30 50 1 13 46
M  V30 51 1 14 47
M  V30 52 1 14 48
M  V30 53 1 15 49
M  V30 54 1 15 50
M  V30 55 1 16 51
M  V30 56 1 16 52
M  V30 57 1 17 53
M  V30 58 1 17 54
M  V30 59 1 18 55
M  V30 60 1 20 56
M  V30 61 1 23 57
M  V30 62 1 27 58
M  V30 63 1 27 59
M  V30 64 1 28 60
M  V30 65 1 28 61
M  V30 66 1 30 62
M  V30 67 1 30 63
M  V30 68 1 32 64
M  V30 69 1 33 65
M  V30 70 1 34 66
M  V30 71 1 35 67
M  V30 72 1 36 68
M  V30 73 1 37 69
M  V30 74 1 39 70
M  V30 END BOND
M  V30 END CTAB
M  END
>  <Dataset>  (19) 
ChEMBL_Kinases

>  <Ligand_Instance>  (19) 
nan

>  <PDB_ID>  (19) 
nan

>  <Standardized_SMILES>  (19) 
O=C(O)Cc1cccc(-n2nc(C3CCCC3)cc2NC(=O)Nc2nc(CCOCc3ccccc3)cs2)c1

>  <Name>  (19) 
nan

>  <Pocket>  (19) 
nan

>  <ATP_Site>  (19) 
nan

>  <Peripheral>  (19) 
nan

>  <Num_H_Atoms_ProtBoundConf>  (19) 
nan

>  <Num_Resolved_Atoms>  (19) 
nan

>  <Num_Not_Resolved_Atoms>  (19) 
nan

$$$$
CHEMBL1940503
     RDKit          3D

  0  0  0  0  0  0  0  0  0  0999 V3000
M  V30 BEGIN CTAB
M  V30 COUNTS 69 72 0 0 0
M  V30 BEGIN ATOM
M  V30 1 C 2.083737 -0.711895 5.791910 0
M  V30 2 C 1.315330 -1.292557 4.630251 0
M  V30 3 C -0.139511 -1.465067 5.001806 0
M  V30 4 C 1.881927 -2.692179 4.367038 0
M  V30 5 C 1.465507 -0.501864 3.379898 0
M  V30 6 C 0.636338 0.544585 3.004078 0
M  V30 7 C 1.142769 0.983909 1.782498 0
M  V30 8 N 0.485784 2.071813 1.135966 0
M  V30 9 C -0.588454 1.925334 0.204658 0
M  V30 10 O -0.980158 0.771000 -0.062819 0
M  V30 11 N -1.095571 3.140822 -0.319158 0
M  V30 12 C -2.196168 2.871371 -1.267126 0
M  V30 13 N -2.732406 1.916772 -1.675713 0
M  V30 14 C -3.718233 1.833131 -2.535586 0
M  V30 15 C -4.348868 0.571658 -3.006695 0
M  V30 16 C -3.750542 -0.646163 -2.401993 0
M  V30 17 O -4.368671 -1.780325 -2.870803 0
M  V30 18 C -3.832661 -2.946626 -2.326179 0
M  V30 19 C -3.937517 -3.016294 -0.856159 0
M  V30 20 C -2.980760 -2.541825 0.014536 0
M  V30 21 C -3.052702 -2.594230 1.389671 0
M  V30 22 C -4.187108 -3.175088 1.942405 0
M  V30 23 C -5.181797 -3.668942 1.097905 0
M  V30 24 C -5.070971 -3.596898 -0.276530 0
M  V30 25 C -4.172634 3.063093 -3.014555 0
M  V30 26 S -3.035387 4.270130 -2.094818 0
M  V30 27 N 2.223933 0.225804 1.456704 0
M  V30 28 C 2.902417 0.504514 0.236448 0
M  V30 29 C 3.258653 1.749059 -0.206046 0
M  V30 30 C 3.912954 1.859063 -1.412751 0
M  V30 31 C 4.194598 0.719973 -2.146965 0
M  V30 32 C 3.845289 -0.561426 -1.723953 0
M  V30 33 C 4.177244 -1.739419 -2.560692 0
M  V30 34 C 5.541866 -2.223174 -2.160133 0
M  V30 35 O 6.139656 -1.605621 -1.255509 0
M  V30 36 O 6.157607 -3.317454 -2.749439 0
M  V30 37 C 3.188851 -0.628736 -0.505538 0
M  V30 38 N 2.399932 -0.657648 2.426378 0
M  V30 39 H 1.672187 -1.151264 6.725111 0
M  V30 40 H 1.938968 0.407400 5.747762 0
M  V30 41 H 3.163438 -0.885284 5.656736 0
M  V30 42 H -0.157753 -2.228187 5.825194 0
M  V30 43 H -0.581581 -0.533712 5.384165 0
M  V30 44 H -0.705018 -1.923045 4.175556 0
M  V30 45 H 2.995121 -2.679551 4.419396 0
M  V30 46 H 1.483392 -3.444964 5.064800 0
M  V30 47 H 1.627011 -3.016659 3.327283 0
M  V30 48 H -0.206769 0.882668 3.598607 0
M  V30 49 H 0.863368 3.002767 1.405785 0
M  V30 50 H -0.809469 4.125172 -0.132927 0
M  V30 51 H -5.448868 0.597541 -2.769415 0
M  V30 52 H -4.275910 0.529703 -4.111359 0
M  V30 53 H -3.807901 -0.575001 -1.278452 0
M  V30 54 H -2.656299 -0.685344 -2.653167 0
M  V30 55 H -2.753108 -3.043218 -2.618219 0
M  V30 56 H -4.396250 -3.779802 -2.769668 0
M  V30 57 H -2.122223 -2.101575 -0.464433 0
M  V30 58 H -2.240345 -2.190093 1.982782 0
M  V30 59 H -4.236002 -3.212344 3.023729 0
M  V30 60 H -6.032152 -4.105656 1.633590 0
M  V30 61 H -5.898386 -4.009070 -0.870054 0
M  V30 62 H -5.066576 3.182329 -3.807244 0
M  V30 63 H 3.009984 2.598645 0.414212 0
M  V30 64 H 4.199560 2.844244 -1.771759 0
M  V30 65 H 4.707505 0.781647 -3.097185 0
M  V30 66 H 3.410320 -2.513531 -2.455199 0
M  V30 67 H 4.265490 -1.364019 -3.617660 0
M  V30 68 H 7.159982 -3.324166 -2.904559 0
M  V30 69 H 2.922848 -1.650013 -0.192072 0
M  V30 END ATOM
M  V30 BEGIN BOND
M  V30 1 1 1 2
M  V30 2 1 2 3
M  V30 3 1 2 4
M  V30 4 1 2 5
M  V30 5 1 5 6
M  V30 6 2 6 7
M  V30 7 1 7 8
M  V30 8 1 8 9
M  V30 9 2 9 10
M  V30 10 1 9 11
M  V30 11 1 11 12
M  V30 12 2 12 13
M  V30 13 1 13 14
M  V30 14 1 14 15
M  V30 15 1 15 16
M  V30 16 1 16 17
M  V30 17 1 17 18
M  V30 18 1 18 19
M  V30 19 2 19 20
M  V30 20 1 20 21
M  V30 21 2 21 22
M  V30 22 1 22 23
M  V30 23 2 23 24
M  V30 24 2 14 25
M  V30 25 1 25 26
M  V30 26 1 7 27
M  V30 27 1 27 28
M  V30 28 2 28 29
M  V30 29 1 29 30
M  V30 30 2 30 31
M  V30 31 1 31 32
M  V30 32 1 32 33
M  V30 33 1 33 34
M  V30 34 2 34 35
M  V30 35 1 34 36
M  V30 36 2 32 37
M  V30 37 1 27 38
M  V30 38 2 38 5
M  V30 39 1 26 12
M  V30 40 1 37 28
M  V30 41 1 24 19
M  V30 42 1 1 39
M  V30 43 1 1 40
M  V30 44 1 1 41
M  V30 45 1 3 42
M  V30 46 1 3 43
M  V30 47 1 3 44
M  V30 48 1 4 45
M  V30 49 1 4 46
M  V30 50 1 4 47
M  V30 51 1 6 48
M  V30 52 1 8 49
M  V30 53 1 11 50
M  V30 54 1 15 51
M  V30 55 1 15 52
M  V30 56 1 16 53
M  V30 57 1 16 54
M  V30 58 1 18 55
M  V30 59 1 18 56
M  V30 60 1 20 57
M  V30 61 1 21 58
M  V30 62 1 22 59
M  V30 63 1 23 60
M  V30 64 1 24 61
M  V30 65 1 25 62
M  V30 66 1 29 63
M  V30 67 1 30 64
M  V30 68 1 31 65
M  V30 69 1 33 66
M  V30 70 1 33 67
M  V30 71 1 36 68
M  V30 72 1 37 69
M  V30 END BOND
M  V30 END CTAB
M  END
>  <Dataset>  (20) 
ChEMBL_Kinases

>  <Ligand_Instance>  (20) 
nan

>  <PDB_ID>  (20) 
nan

>  <Standardized_SMILES>  (20) 
CC(C)(C)c1cc(NC(=O)Nc2nc(CCOCc3ccccc3)cs2)n(-c2cccc(CC(=O)O)c2)n1

>  <Name>  (20) 
nan

>  <Pocket>  (20) 
nan

>  <ATP_Site>  (20) 
nan

>  <Peripheral>  (20) 
nan

>  <Num_H_Atoms_ProtBoundConf>  (20) 
nan

>  <Num_Resolved_Atoms>  (20) 
nan

>  <Num_Not_Resolved_Atoms>  (20) 
nan

$$$$
CHEMBL1940501
     RDKit          3D

  0  0  0  0  0  0  0  0  0  0999 V3000
M  V30 BEGIN CTAB
M  V30 COUNTS 65 68 0 0 0
M  V30 BEGIN ATOM
M  V30 1 C 1.820787 -0.867053 4.811626 0
M  V30 2 C 1.906580 -0.231491 3.478591 0
M  V30 3 C 1.644845 -0.972946 2.345181 0
M  V30 4 C 1.737652 -0.338564 1.133935 0
M  V30 5 C 2.085061 1.009672 1.057335 0
M  V30 6 N 2.194360 1.713107 -0.179370 0
M  V30 7 N 3.311005 1.543201 -0.855482 0
M  V30 8 C 3.286871 2.257323 -1.995766 0
M  V30 9 C 4.236772 2.452909 -3.123800 0
M  V30 10 C 5.466478 1.623783 -2.824604 0
M  V30 11 C 4.592929 3.915755 -3.289609 0
M  V30 12 C 3.658416 1.976608 -4.440113 0
M  V30 13 C 2.056222 2.920495 -2.024272 0
M  V30 14 C 1.383461 2.564961 -0.872567 0
M  V30 15 N 0.131971 2.823010 -0.224725 0
M  V30 16 C -0.999024 2.012310 -0.474577 0
M  V30 17 O -0.830463 1.066191 -1.291121 0
M  V30 18 N -2.190918 2.351835 0.217476 0
M  V30 19 C -3.277110 1.378480 -0.178313 0
M  V30 20 N -3.557249 0.355467 0.322285 0
M  V30 21 C -4.496295 -0.491077 -0.016020 0
M  V30 22 C -4.711855 -1.768626 0.753047 0
M  V30 23 C -3.883597 -2.884939 0.181401 0
M  V30 24 O -4.019258 -4.099707 0.819124 0
M  V30 25 C -3.680548 -4.130043 2.144739 0
M  V30 26 C -3.880038 -5.532645 2.666445 0
M  V30 27 C -2.821154 -6.402545 2.589676 0
M  V30 28 C -2.880243 -7.702039 3.030482 0
M  V30 29 C -4.082031 -8.107856 3.568733 0
M  V30 30 N -5.128946 -7.273621 3.653000 0
M  V30 31 C -5.048026 -6.016230 3.218437 0
M  V30 32 C -5.251544 -0.076712 -1.143070 0
M  V30 33 S -4.421066 1.578942 -1.551946 0
M  V30 34 C 2.337774 1.712120 2.210077 0
M  V30 35 C 2.258276 1.118560 3.465412 0
M  V30 36 H 1.648616 -1.961065 4.710527 0
M  V30 37 H 2.775037 -0.760670 5.394853 0
M  V30 38 H 1.019866 -0.445594 5.432357 0
M  V30 39 H 1.375858 -2.013515 2.390044 0
M  V30 40 H 1.550202 -0.838611 0.187670 0
M  V30 41 H 6.385785 2.002514 -3.320804 0
M  V30 42 H 5.356385 0.567921 -3.206445 0
M  V30 43 H 5.641405 1.521482 -1.728136 0
M  V30 44 H 3.732472 4.547344 -3.035936 0
M  V30 45 H 5.415497 4.183980 -2.584838 0
M  V30 46 H 4.958902 4.057556 -4.306944 0
M  V30 47 H 3.234510 2.858135 -4.991509 0
M  V30 48 H 4.485911 1.555556 -5.042551 0
M  V30 49 H 2.846539 1.241237 -4.224130 0
M  V30 50 H 1.535971 3.591391 -2.671179 0
M  V30 51 H 0.085165 3.639488 0.445135 0
M  V30 52 H -2.330512 3.128566 0.888253 0
M  V30 53 H -5.804554 -2.025616 0.757494 0
M  V30 54 H -4.455421 -1.660050 1.823336 0
M  V30 55 H -2.831292 -2.594388 0.017979 0
M  V30 56 H -4.285244 -3.056444 -0.862075 0
M  V30 57 H -2.616870 -3.845107 2.282114 0
M  V30 58 H -4.359127 -3.459220 2.723505 0
M  V30 59 H -1.879851 -6.075283 2.165045 0
M  V30 60 H -2.028980 -8.370193 2.958664 0
M  V30 61 H -4.131331 -9.136005 3.918358 0
M  V30 62 H -5.869896 -5.299707 3.264642 0
M  V30 63 H -6.152356 -0.878361 -1.475695 0
M  V30 64 H 2.607011 2.754823 2.159995 0
M  V30 65 H 2.459145 1.683396 4.353415 0
M  V30 END ATOM
M  V30 BEGIN BOND
M  V30 1 1 1 2
M  V30 2 2 2 3
M  V30 3 1 3 4
M  V30 4 2 4 5
M  V30 5 1 5 6
M  V30 6 1 6 7
M  V30 7 2 7 8
M  V30 8 1 8 9
M  V30 9 1 9 10
M  V30 10 1 9 11
M  V30 11 1 9 12
M  V30 12 1 8 13
M  V30 13 2 13 14
M  V30 14 1 14 15
M  V30 15 1 15 16
M  V30 16 2 16 17
M  V30 17 1 16 18
M  V30 18 1 18 19
M  V30 19 2 19 20
M  V30 20 1 20 21
M  V30 21 1 21 22
M  V30 22 1 22 23
M  V30 23 1 23 24
M  V30 24 1 24 25
M  V30 25 1 25 26
M  V30 26 2 26 27
M  V30 27 1 27 28
M  V30 28 2 28 29
M  V30 29 1 29 30
M  V30 30 2 30 31
M  V30 31 2 21 32
M  V30 32 1 32 33
M  V30 33 1 5 34
M  V30 34 2 34 35
M  V30 35 1 35 2
M  V30 36 1 14 6
M  V30 37 1 33 19
M  V30 38 1 31 26
M  V30 39 1 1 36
M  V30 40 1 1 37
M  V30 41 1 1 38
M  V30 42 1 3 39
M  V30 43 1 4 40
M  V30 44 1 10 41
M  V30 45 1 10 42
M  V30 46 1 10 43
M  V30 47 1 11 44
M  V30 48 1 11 45
M  V30 49 1 11 46
M  V30 50 1 12 47
M  V30 51 1 12 48
M  V30 52 1 12 49
M  V30 53 1 13 50
M  V30 54 1 15 51
M  V30 55 1 18 52
M  V30 56 1 22 53
M  V30 57 1 22 54
M  V30 58 1 23 55
M  V30 59 1 23 56
M  V30 60 1 25 57
M  V30 61 1 25 58
M  V30 62 1 27 59
M  V30 63 1 28 60
M  V30 64 1 29 61
M  V30 65 1 31 62
M  V30 66 1 32 63
M  V30 67 1 34 64
M  V30 68 1 35 65
M  V30 END BOND
M  V30 END CTAB
M  END
>  <Dataset>  (21) 
ChEMBL_Kinases

>  <Ligand_Instance>  (21) 
nan

>  <PDB_ID>  (21) 
nan

>  <Standardized_SMILES>  (21) 
Cc1ccc(-n2nc(C(C)(C)C)cc2NC(=O)Nc2nc(CCOCc3cccnc3)cs2)cc1

>  <Name>  (21) 
nan

>  <Pocket>  (21) 
nan

>  <ATP_Site>  (21) 
nan

>  <Peripheral>  (21) 
nan

>  <Num_H_Atoms_ProtBoundConf>  (21) 
nan

>  <Num_Resolved_Atoms>  (21) 
nan

>  <Num_Not_Resolved_Atoms>  (21) 
nan

$$$$
CHEMBL1940500
     RDKit          3D

  0  0  0  0  0  0  0  0  0  0999 V3000
M  V30 BEGIN CTAB
M  V30 COUNTS 66 69 0 0 0
M  V30 BEGIN ATOM
M  V30 1 C 2.675686 -1.787327 6.180921 0
M  V30 2 C 2.769484 -1.113937 4.869387 0
M  V30 3 C 2.292829 -1.758685 3.735082 0
M  V30 4 C 2.391608 -1.110125 2.524055 0
M  V30 5 C 2.952618 0.164441 2.410730 0
M  V30 6 N 2.935488 0.613139 1.044460 0
M  V30 7 N 3.982793 0.847714 0.287993 0
M  V30 8 C 3.616785 1.255053 -0.938754 0
M  V30 9 C 4.527845 1.617359 -2.079336 0
M  V30 10 C 4.869169 3.083073 -2.045603 0
M  V30 11 C 3.878997 1.320889 -3.415446 0
M  V30 12 C 5.751082 0.732975 -1.969635 0
M  V30 13 C 2.217402 1.260323 -0.899205 0
M  V30 14 C 1.809003 0.855196 0.351549 0
M  V30 15 N 0.491362 0.704286 0.863292 0
M  V30 16 C -0.693861 0.956138 0.140432 0
M  V30 17 O -0.608734 1.342699 -1.043045 0
M  V30 18 N -1.976531 0.783488 0.717299 0
M  V30 19 C -3.161149 1.095744 -0.190211 0
M  V30 20 N -3.676596 0.307358 -0.877892 0
M  V30 21 C -4.687633 0.437824 -1.695867 0
M  V30 22 C -5.287472 -0.625847 -2.542427 0
M  V30 23 C -4.605996 -1.942467 -2.380324 0
M  V30 24 O -4.696590 -2.353762 -1.046954 0
M  V30 25 C -4.089499 -3.565616 -0.812093 0
M  V30 26 C -4.225601 -3.943479 0.637189 0
M  V30 27 C -3.202030 -3.507725 1.485519 0
M  V30 28 C -3.266422 -3.823722 2.841441 0
M  V30 29 C -4.325760 -4.553341 3.324323 0
M  V30 30 F -4.320255 -4.822843 4.656268 0
M  V30 31 C -5.332402 -4.980308 2.482314 0
M  V30 32 C -5.288310 -4.674850 1.118754 0
M  V30 33 C -5.201165 1.754982 -1.715277 0
M  V30 34 S -4.066701 2.631646 -0.473555 0
M  V30 35 C 3.416534 0.784505 3.535544 0
M  V30 36 C 3.323780 0.149716 4.745299 0
M  V30 37 H 2.913399 -2.888036 6.100644 0
M  V30 38 H 1.621219 -1.785388 6.575998 0
M  V30 39 H 3.345166 -1.322771 6.909509 0
M  V30 40 H 1.864577 -2.743982 3.856116 0
M  V30 41 H 1.986263 -1.705421 1.691733 0
M  V30 42 H 4.132324 3.578255 -1.370641 0
M  V30 43 H 5.900149 3.296606 -1.702834 0
M  V30 44 H 4.713435 3.570426 -3.052181 0
M  V30 45 H 4.711170 1.151457 -4.140038 0
M  V30 46 H 3.366772 0.325449 -3.296913 0
M  V30 47 H 3.162748 2.070386 -3.748036 0
M  V30 48 H 5.643224 -0.227881 -2.514321 0
M  V30 49 H 5.946699 0.461354 -0.903930 0
M  V30 50 H 6.666540 1.225389 -2.339712 0
M  V30 51 H 1.608493 1.537835 -1.720706 0
M  V30 52 H 0.337999 0.385254 1.843258 0
M  V30 53 H -2.049295 0.465349 1.691374 0
M  V30 54 H -6.373487 -0.704907 -2.355897 0
M  V30 55 H -5.207904 -0.347193 -3.634250 0
M  V30 56 H -5.109774 -2.706175 -3.004029 0
M  V30 57 H -3.550619 -1.916000 -2.717966 0
M  V30 58 H -3.023510 -3.607886 -1.056882 0
M  V30 59 H -4.589721 -4.368042 -1.426982 0
M  V30 60 H -2.349013 -2.927869 1.133886 0
M  V30 61 H -2.446437 -3.465855 3.478084 0
M  V30 62 H -6.166963 -5.558873 2.880947 0
M  V30 63 H -6.056952 -4.991543 0.430102 0
M  V30 64 H -6.161157 2.045269 -2.439337 0
M  V30 65 H 3.827032 1.761131 3.328773 0
M  V30 66 H 3.704646 0.684844 5.595241 0
M  V30 END ATOM
M  V30 BEGIN BOND
M  V30 1 1 1 2
M  V30 2 2 2 3
M  V30 3 1 3 4
M  V30 4 2 4 5
M  V30 5 1 5 6
M  V30 6 1 6 7
M  V30 7 2 7 8
M  V30 8 1 8 9
M  V30 9 1 9 10
M  V30 10 1 9 11
M  V30 11 1 9 12
M  V30 12 1 8 13
M  V30 13 2 13 14
M  V30 14 1 14 15
M  V30 15 1 15 16
M  V30 16 2 16 17
M  V30 17 1 16 18
M  V30 18 1 18 19
M  V30 19 2 19 20
M  V30 20 1 20 21
M  V30 21 1 21 22
M  V30 22 1 22 23
M  V30 23 1 23 24
M  V30 24 1 24 25
M  V30 25 1 25 26
M  V30 26 2 26 27
M  V30 27 1 27 28
M  V30 28 2 28 29
M  V30 29 1 29 30
M  V30 30 1 29 31
M  V30 31 2 31 32
M  V30 32 2 21 33
M  V30 33 1 33 34
M  V30 34 1 5 35
M  V30 35 2 35 36
M  V30 36 1 36 2
M  V30 37 1 14 6
M  V30 38 1 34 19
M  V30 39 1 32 26
M  V30 40 1 1 37
M  V30 41 1 1 38
M  V30 42 1 1 39
M  V30 43 1 3 40
M  V30 44 1 4 41
M  V30 45 1 10 42
M  V30 46 1 10 43
M  V30 47 1 10 44
M  V30 48 1 11 45
M  V30 49 1 11 46
M  V30 50 1 11 47
M  V30 51 1 12 48
M  V30 52 1 12 49
M  V30 53 1 12 50
M  V30 54 1 13 51
M  V30 55 1 15 52
M  V30 56 1 18 53
M  V30 57 1 22 54
M  V30 58 1 22 55
M  V30 59 1 23 56
M  V30 60 1 23 57
M  V30 61 1 25 58
M  V30 62 1 25 59
M  V30 63 1 27 60
M  V30 64 1 28 61
M  V30 65 1 31 62
M  V30 66 1 32 63
M  V30 67 1 33 64
M  V30 68 1 35 65
M  V30 69 1 36 66
M  V30 END BOND
M  V30 END CTAB
M  END
>  <Dataset>  (22) 
ChEMBL_Kinases

>  <Ligand_Instance>  (22) 
nan

>  <PDB_ID>  (22) 
nan

>  <Standardized_SMILES>  (22) 
Cc1ccc(-n2nc(C(C)(C)C)cc2NC(=O)Nc2nc(CCOCc3ccc(F)cc3)cs2)cc1

>  <Name>  (22) 
nan

>  <Pocket>  (22) 
nan

>  <ATP_Site>  (22) 
nan

>  <Peripheral>  (22) 
nan

>  <Num_H_Atoms_ProtBoundConf>  (22) 
nan

>  <Num_Resolved_Atoms>  (22) 
nan

>  <Num_Not_Resolved_Atoms>  (22) 
nan

$$$$
CHEMBL1940499
     RDKit          3D

  0  0  0  0  0  0  0  0  0  0999 V3000
M  V30 BEGIN CTAB
M  V30 COUNTS 55 57 0 0 0
M  V30 BEGIN ATOM
M  V30 1 C 0.056260 -6.218606 4.149830 0
M  V30 2 C 0.729386 -5.063946 3.454025 0
M  V30 3 O 2.145998 -5.303502 3.380407 0
M  V30 4 C 2.976993 -4.400999 2.792416 0
M  V30 5 O 2.203359 -5.229934 3.333929 0
M  V30 6 C 3.818175 -3.386399 2.137590 0
M  V30 7 C 3.007409 -2.284769 1.554317 0
M  V30 8 C 2.709607 -1.188663 2.338773 0
M  V30 9 C 1.956324 -0.204179 1.732264 0
M  V30 10 C 1.468527 -0.188105 0.439589 0
M  V30 11 N 0.703700 0.911403 -0.035771 0
M  V30 12 N 0.708639 2.107102 0.538467 0
M  V30 13 C -0.108520 2.944848 -0.129481 0
M  V30 14 C -0.448025 4.372467 0.109759 0
M  V30 15 C 0.290603 4.879292 1.331398 0
M  V30 16 C -0.018370 5.263460 -1.041031 0
M  V30 17 C -1.925171 4.506453 0.368319 0
M  V30 18 C -0.648185 2.217001 -1.179282 0
M  V30 19 C -0.121395 0.948006 -1.094668 0
M  V30 20 N -0.450064 -0.065638 -2.001033 0
M  V30 21 C -1.570029 -0.873806 -1.657182 0
M  V30 22 O -2.211495 -0.688181 -0.615004 0
M  V30 23 N -2.002652 -1.918975 -2.480791 0
M  V30 24 C -3.106975 -2.805180 -2.265440 0
M  V30 25 N -3.621970 -3.733784 -2.829758 0
M  V30 26 C -4.680401 -4.371761 -2.356934 0
M  V30 27 C -5.244775 -3.914159 -1.079294 0
M  V30 28 S -4.062608 -2.488334 -0.690839 0
M  V30 29 C 1.790479 -1.302004 -0.305663 0
M  V30 30 C 2.543137 -2.328772 0.237829 0
M  V30 31 H 0.777266 -7.029959 4.403543 0
M  V30 32 H -0.427786 -5.879062 5.082427 0
M  V30 33 H -0.740209 -6.679578 3.511552 0
M  V30 34 H 0.517906 -4.139799 4.025413 0
M  V30 35 H 0.281329 -4.930053 2.440801 0
M  V30 36 H 4.356630 -3.846373 1.287812 0
M  V30 37 H 4.505464 -2.974463 2.903295 0
M  V30 38 H 3.031664 -1.086621 3.356146 0
M  V30 39 H 1.719240 0.666145 2.353879 0
M  V30 40 H 0.235839 5.999609 1.366175 0
M  V30 41 H 1.339408 4.534053 1.322674 0
M  V30 42 H -0.188532 4.451095 2.247616 0
M  V30 43 H 0.049224 6.297818 -0.634778 0
M  V30 44 H -0.753002 5.202694 -1.858355 0
M  V30 45 H 1.005548 4.965155 -1.338974 0
M  V30 46 H -2.260015 3.621658 0.973840 0
M  V30 47 H -2.529720 4.532386 -0.563230 0
M  V30 48 H -2.098424 5.414104 0.948372 0
M  V30 49 H -1.351223 2.587702 -1.920733 0
M  V30 50 H 0.021586 -0.318383 -2.918927 0
M  V30 51 H -1.488915 -2.104956 -3.363148 0
M  V30 52 H -4.966731 -5.181952 -3.049361 0
M  V30 53 H -6.200701 -4.673965 -0.888893 0
M  V30 54 H 1.448865 -1.366112 -1.321470 0
M  V30 55 H 2.772411 -3.192419 -0.395168 0
M  V30 END ATOM
M  V30 BEGIN BOND
M  V30 1 1 1 2
M  V30 2 1 2 3
M  V30 3 1 3 4
M  V30 4 2 4 5
M  V30 5 1 4 6
M  V30 6 1 6 7
M  V30 7 2 7 8
M  V30 8 1 8 9
M  V30 9 2 9 10
M  V30 10 1 10 11
M  V30 11 1 11 12
M  V30 12 2 12 13
M  V30 13 1 13 14
M  V30 14 1 14 15
M  V30 15 1 14 16
M  V30 16 1 14 17
M  V30 17 1 13 18
M  V30 18 2 18 19
M  V30 19 1 19 20
M  V30 20 1 20 21
M  V30 21 2 21 22
M  V30 22 1 21 23
M  V30 23 1 23 24
M  V30 24 2 24 25
M  V30 25 1 25 26
M  V30 26 2 26 27
M  V30 27 1 27 28
M  V30 28 1 10 29
M  V30 29 2 29 30
M  V30 30 1 30 7
M  V30 31 1 19 11
M  V30 32 1 28 24
M  V30 33 1 1 31
M  V30 34 1 1 32
M  V30 35 1 1 33
M  V30 36 1 2 34
M  V30 37 1 2 35
M  V30 38 1 6 36
M  V30 39 1 6 37
M  V30 40 1 8 38
M  V30 41 1 9 39
M  V30 42 1 15 40
M  V30 43 1 15 41
M  V30 44 1 15 42
M  V30 45 1 16 43
M  V30 46 1 16 44
M  V30 47 1 16 45
M  V30 48 1 17 46
M  V30 49 1 17 47
M  V30 50 1 17 48
M  V30 51 1 18 49
M  V30 52 1 20 50
M  V30 53 1 23 51
M  V30 54 1 26 52
M  V30 55 1 27 53
M  V30 56 1 29 54
M  V30 57 1 30 55
M  V30 END BOND
M  V30 END CTAB
M  END
>  <Dataset>  (23) 
ChEMBL_Kinases

>  <Ligand_Instance>  (23) 
nan

>  <PDB_ID>  (23) 
nan

>  <Standardized_SMILES>  (23) 
CCOC(=O)Cc1ccc(-n2nc(C(C)(C)C)cc2NC(=O)Nc2nccs2)cc1

>  <Name>  (23) 
nan

>  <Pocket>  (23) 
nan

>  <ATP_Site>  (23) 
nan

>  <Peripheral>  (23) 
nan

>  <Num_H_Atoms_ProtBoundConf>  (23) 
nan

>  <Num_Resolved_Atoms>  (23) 
nan

>  <Num_Not_Resolved_Atoms>  (23) 
nan

$$$$
CHEMBL194032
     RDKit          3D

  0  0  0  0  0  0  0  0  0  0999 V3000
M  V30 BEGIN CTAB
M  V30 COUNTS 47 51 0 0 0
M  V30 BEGIN ATOM
M  V30 1 Br 0.818460 -3.015566 4.719755 0
M  V30 2 C 1.051986 -1.159621 4.346446 0
M  V30 3 C 2.368513 -0.761779 4.416774 0
M  V30 4 N 2.691031 0.541741 4.174165 0
M  V30 5 C 1.678182 1.404450 3.867105 0
M  V30 6 N 1.898189 2.785302 3.588560 0
M  V30 7 C 2.216554 3.104414 2.237649 0
M  V30 8 C 2.438254 4.408641 1.799057 0
M  V30 9 C 2.751462 4.673729 0.485811 0
M  V30 10 C 2.863245 3.683090 -0.460942 0
M  V30 11 N 3.144358 3.588767 -1.771767 0
M  V30 12 C 3.117308 2.309610 -2.207448 0
M  V30 13 N 2.806222 1.571057 -1.124705 0
M  V30 14 C 2.650194 2.379574 -0.065903 0
M  V30 15 C 2.339212 2.131177 1.246592 0
M  V30 16 N 0.381276 1.024834 3.795127 0
M  V30 17 C 0.024973 -0.263827 4.031206 0
M  V30 18 N -1.230881 -0.919521 4.018994 0
M  V30 19 C -1.732349 -1.347890 2.756974 0
M  V30 20 C -1.067539 -1.026210 1.584161 0
M  V30 21 C -1.493003 -1.402091 0.323224 0
M  V30 22 C -2.651814 -2.143485 0.225383 0
M  V30 23 O -3.017103 -2.481994 -1.058815 0
M  V30 24 C -2.629935 -3.613440 -1.735181 0
M  V30 25 C -2.943125 -4.010104 -3.026451 0
M  V30 26 C -2.450143 -5.193838 -3.528359 0
M  V30 27 C -1.634059 -6.050778 -2.812714 0
M  V30 28 N -1.341520 -5.643645 -1.553758 0
M  V30 29 C -1.811063 -4.494140 -1.045848 0
M  V30 30 C -3.333789 -2.476857 1.386473 0
M  V30 31 C -2.908383 -2.101248 2.643558 0
M  V30 32 H 3.216742 -1.381353 4.652166 0
M  V30 33 H 1.855201 3.592942 4.247735 0
M  V30 34 H 2.360135 5.233378 2.501327 0
M  V30 35 H 2.927990 5.691584 0.127236 0
M  V30 36 H 3.361405 4.423580 -2.383219 0
M  V30 37 H 3.311278 1.988019 -3.213180 0
M  V30 38 H 2.172597 1.093650 1.545980 0
M  V30 39 H -1.792902 -1.101696 4.872780 0
M  V30 40 H -0.143248 -0.433413 1.653319 0
M  V30 41 H -0.908705 -1.107192 -0.536753 0
M  V30 42 H -3.578223 -3.318602 -3.555593 0
M  V30 43 H -2.761205 -5.384321 -4.534217 0
M  V30 44 H -1.274962 -6.965891 -3.253754 0
M  V30 45 H -1.469682 -4.351418 -0.045008 0
M  V30 46 H -4.230888 -3.054487 1.258299 0
M  V30 47 H -3.450158 -2.369403 3.529357 0
M  V30 END ATOM
M  V30 BEGIN BOND
M  V30 1 1 1 2
M  V30 2 2 2 3
M  V30 3 1 3 4
M  V30 4 2 4 5
M  V30 5 1 5 6
M  V30 6 1 6 7
M  V30 7 2 7 8
M  V30 8 1 8 9
M  V30 9 2 9 10
M  V30 10 1 10 11
M  V30 11 1 11 12
M  V30 12 2 12 13
M  V30 13 1 13 14
M  V30 14 2 14 15
M  V30 15 1 5 16
M  V30 16 2 16 17
M  V30 17 1 17 18
M  V30 18 1 18 19
M  V30 19 2 19 20
M  V30 20 1 20 21
M  V30 21 2 21 22
M  V30 22 1 22 23
M  V30 23 1 23 24
M  V30 24 2 24 25
M  V30 25 1 25 26
M  V30 26 2 26 27
M  V30 27 1 27 28
M  V30 28 2 28 29
M  V30 29 1 22 30
M  V30 30 2 30 31
M  V30 31 1 17 2
M  V30 32 1 31 19
M  V30 33 1 15 7
M  V30 34 1 29 24
M  V30 35 1 14 10
M  V30 36 1 3 32
M  V30 37 1 6 33
M  V30 38 1 8 34
M  V30 39 1 9 35
M  V30 40 1 11 36
M  V30 41 1 12 37
M  V30 42 1 15 38
M  V30 43 1 18 39
M  V30 44 1 20 40
M  V30 45 1 21 41
M  V30 46 1 25 42
M  V30 47 1 26 43
M  V30 48 1 27 44
M  V30 49 1 29 45
M  V30 50 1 30 46
M  V30 51 1 31 47
M  V30 END BOND
M  V30 END CTAB
M  END
>  <Dataset>  (24) 
ChEMBL_Kinases

>  <Ligand_Instance>  (24) 
nan

>  <PDB_ID>  (24) 
nan

>  <Standardized_SMILES>  (24) 
Brc1cnc(Nc2ccc3[nH]cnc3c2)nc1Nc1ccc(Oc2cccnc2)cc1

>  <Name>  (24) 
nan

>  <Pocket>  (24) 
nan

>  <ATP_Site>  (24) 
nan

>  <Peripheral>  (24) 
nan

>  <Num_H_Atoms_ProtBoundConf>  (24) 
nan

>  <Num_Resolved_Atoms>  (24) 
nan

>  <Num_Not_Resolved_Atoms>  (24) 
nan

$$$$
CHEMBL194028
     RDKit          3D

  0  0  0  0  0  0  0  0  0  0999 V3000
M  V30 BEGIN CTAB
M  V30 COUNTS 40 44 0 0 0
M  V30 BEGIN ATOM
M  V30 1 F 2.804976 -3.813924 3.166687 0
M  V30 2 C 2.663274 -2.557486 2.693814 0
M  V30 3 C 3.232420 -1.538235 3.453842 0
M  V30 4 N 3.117187 -0.277701 3.026124 0
M  V30 5 C 2.489327 0.112312 1.904511 0
M  V30 6 N 2.420466 1.471753 1.559535 0
M  V30 7 C 1.813968 2.077692 0.433260 0
M  V30 8 C 1.239067 1.420542 -0.622142 0
M  V30 9 C 0.633548 1.981111 -1.725727 0
M  V30 10 C 0.610481 3.365737 -1.757958 0
M  V30 11 N 0.117233 4.242774 -2.649591 0
M  V30 12 C 0.352655 5.488571 -2.208403 0
M  V30 13 N 1.006972 5.405990 -1.014979 0
M  V30 14 C 1.172621 4.084703 -0.725627 0
M  V30 15 C 1.762608 3.452787 0.349175 0
M  V30 16 N 1.954524 -0.892127 1.197452 0
M  V30 17 C 2.016583 -2.181134 1.542151 0
M  V30 18 N 1.421917 -3.233256 0.779579 0
M  V30 19 C 0.009654 -3.472370 0.945673 0
M  V30 20 C -0.690734 -4.541702 0.399313 0
M  V30 21 C -2.046333 -4.696081 0.590648 0
M  V30 22 C -2.756290 -3.766601 1.349668 0
M  V30 23 N -4.084442 -3.765472 1.635714 0
M  V30 24 C -4.228467 -2.642258 2.399685 0
M  V30 25 N -3.040901 -1.983637 2.574234 0
M  V30 26 C -2.108885 -2.698247 1.907271 0
M  V30 27 C -0.745886 -2.561725 1.702753 0
M  V30 28 H 3.757156 -1.753433 4.369090 0
M  V30 29 H 2.893342 2.140777 2.241579 0
M  V30 30 H 1.237562 0.340557 -0.636523 0
M  V30 31 H 0.199743 1.402474 -2.521259 0
M  V30 32 H -0.383675 4.048036 -3.564294 0
M  V30 33 H 0.124959 6.478104 -2.613743 0
M  V30 34 H 2.181933 4.081154 1.121624 0
M  V30 35 H 1.879181 -3.880855 0.092801 0
M  V30 36 H -0.041394 -5.202088 -0.168713 0
M  V30 37 H -2.485048 -5.582856 0.105648 0
M  V30 38 H -4.831516 -4.427589 1.364069 0
M  V30 39 H -5.160306 -2.282607 2.834079 0
M  V30 40 H -0.306002 -1.692136 2.174806 0
M  V30 END ATOM
M  V30 BEGIN BOND
M  V30 1 1 1 2
M  V30 2 2 2 3
M  V30 3 1 3 4
M  V30 4 2 4 5
M  V30 5 1 5 6
M  V30 6 1 6 7
M  V30 7 2 7 8
M  V30 8 1 8 9
M  V30 9 2 9 10
M  V30 10 1 10 11
M  V30 11 1 11 12
M  V30 12 2 12 13
M  V30 13 1 13 14
M  V30 14 2 14 15
M  V30 15 1 5 16
M  V30 16 2 16 17
M  V30 17 1 17 18
M  V30 18 1 18 19
M  V30 19 2 19 20
M  V30 20 1 20 21
M  V30 21 2 21 22
M  V30 22 1 22 23
M  V30 23 1 23 24
M  V30 24 2 24 25
M  V30 25 1 25 26
M  V30 26 2 26 27
M  V30 27 1 17 2
M  V30 28 1 27 19
M  V30 29 1 15 7
M  V30 30 1 26 22
M  V30 31 1 14 10
M  V30 32 1 3 28
M  V30 33 1 6 29
M  V30 34 1 8 30
M  V30 35 1 9 31
M  V30 36 1 11 32
M  V30 37 1 12 33
M  V30 38 1 15 34
M  V30 39 1 18 35
M  V30 40 1 20 36
M  V30 41 1 21 37
M  V30 42 1 23 38
M  V30 43 1 24 39
M  V30 44 1 27 40
M  V30 END BOND
M  V30 END CTAB
M  END
>  <Dataset>  (25) 
ChEMBL_Kinases

>  <Ligand_Instance>  (25) 
nan

>  <PDB_ID>  (25) 
nan

>  <Standardized_SMILES>  (25) 
Fc1cnc(Nc2ccc3[nH]cnc3c2)nc1Nc1ccc2[nH]cnc2c1

>  <Name>  (25) 
nan

>  <Pocket>  (25) 
nan

>  <ATP_Site>  (25) 
nan

>  <Peripheral>  (25) 
nan

>  <Num_H_Atoms_ProtBoundConf>  (25) 
nan

>  <Num_Resolved_Atoms>  (25) 
nan

>  <Num_Not_Resolved_Atoms>  (25) 
nan

$$$$
CHEMBL1940253
     RDKit          3D

  0  0  0  0  0  0  0  0  0  0999 V3000
M  V30 BEGIN CTAB
M  V30 COUNTS 64 68 0 0 0
M  V30 BEGIN ATOM
M  V30 1 C 3.521268 -0.523085 5.100371 0
M  V30 2 C 3.673328 0.030079 3.708239 0
M  V30 3 O 4.726300 0.710154 3.532760 0
M  V30 4 N 2.668285 -0.236990 2.728205 0
M  V30 5 C 1.402185 -0.986828 2.736403 0
M  V30 6 C 0.524630 -0.264537 1.732238 0
M  V30 7 C 1.488889 0.267529 0.712767 0 CFG=1
M  V30 8 N 1.105174 1.520775 0.121492 0
M  V30 9 C -0.089698 1.704677 -0.621707 0
M  V30 10 C -0.406668 2.927506 -1.165217 0
M  V30 11 N -1.538238 3.061054 -1.860696 0
M  V30 12 C -2.391131 2.013674 -2.047253 0
M  V30 13 C -2.096708 0.779714 -1.513386 0
M  V30 14 C -3.047045 -0.287454 -1.777376 0
M  V30 15 O -3.995617 0.008031 -2.584344 0
M  V30 16 C -3.143130 -1.654624 -1.305101 0
M  V30 17 C -3.260950 -2.731024 -2.196622 0
M  V30 18 N -3.286904 -3.886740 -1.515338 0
M  V30 19 C -3.399480 -5.211606 -2.097736 0
M  V30 20 C -2.528725 -5.218161 -3.351312 0
M  V30 21 C -4.820144 -5.451388 -2.523664 0
M  V30 22 C -3.193241 -3.654985 -0.195701 0
M  V30 23 N -3.175221 -4.404485 0.926625 0
M  V30 24 C -3.075670 -3.817969 2.128617 0
M  V30 25 N -2.991624 -2.472994 2.250514 0
M  V30 26 C -3.007036 -1.704575 1.150354 0
M  V30 27 N -2.936858 -0.316004 1.331875 0
M  V30 28 C -3.106893 -2.287851 -0.083590 0
M  V30 29 N -0.949336 0.728949 -0.832974 0
M  V30 30 C 2.814353 0.297623 1.383917 0 CFG=1
M  V30 31 C 3.498088 1.611173 1.351679 0
M  V30 32 C 3.142832 2.603169 2.262171 0
M  V30 33 C 3.772328 3.840395 2.247670 0
M  V30 34 C 4.765356 4.131895 1.338435 0
M  V30 35 C 5.121895 3.153915 0.434076 0
M  V30 36 C 4.507145 1.907352 0.427764 0
M  V30 37 H 4.142743 -1.438989 5.160275 0
M  V30 38 H 2.479378 -0.821209 5.301020 0
M  V30 39 H 3.875223 0.228763 5.831391 0
M  V30 40 H 0.983235 -1.025616 3.740662 0
M  V30 41 H 1.638676 -2.018408 2.386962 0
M  V30 42 H -0.208959 -0.951266 1.267926 0
M  V30 43 H 0.006844 0.517977 2.301761 0
M  V30 44 H 1.474554 -0.472668 -0.141988 0
M  V30 45 H 1.739405 2.311783 0.253466 0
M  V30 46 H 0.253136 3.772610 -1.031464 0
M  V30 47 H -3.262900 2.292780 -2.634957 0
M  V30 48 H -3.323792 -2.681887 -3.270937 0
M  V30 49 H -3.038830 -5.980236 -1.386512 0
M  V30 50 H -1.509801 -4.838038 -3.120701 0
M  V30 51 H -2.969505 -4.522349 -4.088573 0
M  V30 52 H -2.386838 -6.245047 -3.744173 0
M  V30 53 H -4.886391 -6.326226 -3.210885 0
M  V30 54 H -5.174141 -4.566211 -3.088900 0
M  V30 55 H -5.423258 -5.585543 -1.616364 0
M  V30 56 H -3.069849 -4.509928 2.957382 0
M  V30 57 H -2.338982 0.365378 1.834276 0
M  V30 58 H -3.437359 0.539362 1.044871 0
M  V30 59 H 3.500465 -0.400616 0.824855 0
M  V30 60 H 2.388872 2.466918 2.997801 0
M  V30 61 H 3.522696 4.637156 2.941049 0
M  V30 62 H 5.311437 5.060004 1.248220 0
M  V30 63 H 5.898212 3.321043 -0.309279 0
M  V30 64 H 4.734454 1.098721 -0.247623 0
M  V30 END ATOM
M  V30 BEGIN BOND
M  V30 1 1 1 2
M  V30 2 2 2 3
M  V30 3 1 2 4
M  V30 4 1 4 5
M  V30 5 1 5 6
M  V30 6 1 6 7
M  V30 7 1 7 8
M  V30 8 1 8 9
M  V30 9 2 9 10
M  V30 10 1 10 11
M  V30 11 2 11 12
M  V30 12 1 12 13
M  V30 13 1 13 14
M  V30 14 2 14 15
M  V30 15 1 14 16
M  V30 16 2 16 17
M  V30 17 1 17 18
M  V30 18 1 18 19
M  V30 19 1 19 20
M  V30 20 1 19 21
M  V30 21 1 18 22
M  V30 22 2 22 23
M  V30 23 1 23 24
M  V30 24 2 24 25
M  V30 25 1 25 26
M  V30 26 1 26 27
M  V30 27 2 26 28
M  V30 28 2 13 29
M  V30 29 1 7 30
M  V30 30 1 30 31
M  V30 31 2 31 32
M  V30 32 1 32 33
M  V30 33 2 33 34
M  V30 34 1 34 35
M  V30 35 2 35 36
M  V30 36 1 30 4
M  V30 37 1 36 31
M  V30 38 1 29 9
M  V30 39 1 28 16
M  V30 40 1 28 22
M  V30 41 1 1 37
M  V30 42 1 1 38
M  V30 43 1 1 39
M  V30 44 1 5 40
M  V30 45 1 5 41
M  V30 46 1 6 42
M  V30 47 1 6 43
M  V30 48 1 7 44 CFG=3
M  V30 49 1 8 45
M  V30 50 1 10 46
M  V30 51 1 12 47
M  V30 52 1 17 48
M  V30 53 1 19 49
M  V30 54 1 20 50
M  V30 55 1 20 51
M  V30 56 1 20 52
M  V30 57 1 21 53
M  V30 58 1 21 54
M  V30 59 1 21 55
M  V30 60 1 24 56
M  V30 61 1 27 57
M  V30 62 1 27 58
M  V30 63 1 30 59 CFG=3
M  V30 64 1 32 60
M  V30 65 1 33 61
M  V30 66 1 34 62
M  V30 67 1 35 63
M  V30 68 1 36 64
M  V30 END BOND
M  V30 END CTAB
M  END
>  <Dataset>  (26) 
ChEMBL_Kinases

>  <Ligand_Instance>  (26) 
nan

>  <PDB_ID>  (26) 
nan

>  <Standardized_SMILES>  (26) 
CC(=O)N1CC[C@@H](Nc2cncc(C(=O)c3cn(C(C)C)c4ncnc(N)c34)n2)[C@H]1c1ccccc1

>  <Name>  (26) 
nan

>  <Pocket>  (26) 
nan

>  <ATP_Site>  (26) 
nan

>  <Peripheral>  (26) 
nan

>  <Num_H_Atoms_ProtBoundConf>  (26) 
nan

>  <Num_Resolved_Atoms>  (26) 
nan

>  <Num_Not_Resolved_Atoms>  (26) 
nan

$$$$
CHEMBL1940252
     RDKit          3D

  0  0  0  0  0  0  0  0  0  0999 V3000
M  V30 BEGIN CTAB
M  V30 COUNTS 64 68 0 0 0
M  V30 BEGIN ATOM
M  V30 1 C 0.891161 -0.005090 2.941687 0
M  V30 2 C 1.074054 -0.338510 1.513730 0
M  V30 3 O 0.904208 -1.516125 1.119080 0
M  V30 4 N 1.423827 0.354318 0.324234 0
M  V30 5 C 1.484256 -0.382360 -0.921335 0
M  V30 6 C 0.954933 0.497792 -2.017651 0
M  V30 7 C 0.936809 1.857686 -1.360479 0 CFG=1
M  V30 8 N -0.404852 2.287671 -1.130966 0
M  V30 9 C -1.565492 1.683951 -0.620835 0
M  V30 10 C -2.744139 2.432721 -0.479098 0
M  V30 11 N -3.864443 1.864206 -0.014192 0
M  V30 12 C -3.875240 0.554602 0.326306 0
M  V30 13 C -2.729720 -0.203487 0.195835 0
M  V30 14 C -2.923885 -1.587753 0.603500 0
M  V30 15 O -3.990077 -1.958796 1.107979 0
M  V30 16 C -2.033677 -2.740200 0.531814 0
M  V30 17 C -1.320041 -3.088648 -0.614863 0
M  V30 18 N -0.590584 -4.200741 -0.415254 0
M  V30 19 C 0.282849 -4.894574 -1.343651 0
M  V30 20 C -0.487176 -5.033920 -2.663827 0
M  V30 21 C 1.533148 -4.105982 -1.669265 0
M  V30 22 C -0.817524 -4.586843 0.852179 0
M  V30 23 N -0.384856 -5.609170 1.632544 0
M  V30 24 C -0.784690 -5.761745 2.910367 0
M  V30 25 N -1.641986 -4.890379 3.467019 0
M  V30 26 C -2.124777 -3.845285 2.770435 0
M  V30 27 N -3.028850 -2.929941 3.374674 0
M  V30 28 C -1.709700 -3.699010 1.465306 0
M  V30 29 N -1.604968 0.363691 -0.269348 0
M  V30 30 C 1.788534 1.639557 -0.144864 0 CFG=1
M  V30 31 C 1.686711 2.761187 0.795890 0
M  V30 32 C 0.700661 3.073254 1.699188 0
M  V30 33 C 0.738765 4.175579 2.525242 0
M  V30 34 C 1.787257 5.039439 2.488627 0
M  V30 35 F 1.786289 6.108016 3.314942 0
M  V30 36 C 2.816765 4.810975 1.620872 0
M  V30 37 C 2.734125 3.698576 0.816921 0
M  V30 38 H -0.152702 0.278209 3.181041 0
M  V30 39 H 1.139708 -0.908182 3.512693 0
M  V30 40 H 1.578687 0.808940 3.280725 0
M  V30 41 H 0.992531 -1.371872 -0.890018 0
M  V30 42 H 2.558402 -0.622639 -1.178754 0
M  V30 43 H -0.061103 0.188648 -2.354958 0
M  V30 44 H 1.668281 0.520149 -2.866462 0
M  V30 45 H 1.464176 2.542368 -2.092449 0
M  V30 46 H -0.531289 3.306815 -1.417982 0
M  V30 47 H -2.770035 3.492741 -0.745265 0
M  V30 48 H -4.841666 0.229154 0.685019 0
M  V30 49 H -1.324982 -2.565743 -1.551140 0
M  V30 50 H 0.556005 -5.886717 -0.942795 0
M  V30 51 H -1.365874 -5.669151 -2.455945 0
M  V30 52 H 0.155192 -5.410553 -3.478325 0
M  V30 53 H -0.866987 -4.020102 -2.905353 0
M  V30 54 H 2.375238 -4.744619 -1.952733 0
M  V30 55 H 1.333841 -3.282498 -2.381524 0
M  V30 56 H 1.862088 -3.603568 -0.712461 0
M  V30 57 H -0.329220 -6.631140 3.355035 0
M  V30 58 H -3.972416 -3.389081 3.490009 0
M  V30 59 H -3.022279 -1.944861 3.731530 0
M  V30 60 H 2.851587 1.558021 -0.524228 0
M  V30 61 H -0.134870 2.391621 1.736699 0
M  V30 62 H -0.102287 4.323611 3.204347 0
M  V30 63 H 3.675573 5.463359 1.548065 0
M  V30 64 H 3.577191 3.537048 0.126198 0
M  V30 END ATOM
M  V30 BEGIN BOND
M  V30 1 1 1 2
M  V30 2 2 2 3
M  V30 3 1 2 4
M  V30 4 1 4 5
M  V30 5 1 5 6
M  V30 6 1 6 7
M  V30 7 1 7 8
M  V30 8 1 8 9
M  V30 9 2 9 10
M  V30 10 1 10 11
M  V30 11 2 11 12
M  V30 12 1 12 13
M  V30 13 1 13 14
M  V30 14 2 14 15
M  V30 15 1 14 16
M  V30 16 2 16 17
M  V30 17 1 17 18
M  V30 18 1 18 19
M  V30 19 1 19 20
M  V30 20 1 19 21
M  V30 21 1 18 22
M  V30 22 2 22 23
M  V30 23 1 23 24
M  V30 24 2 24 25
M  V30 25 1 25 26
M  V30 26 1 26 27
M  V30 27 2 26 28
M  V30 28 2 13 29
M  V30 29 1 7 30
M  V30 30 1 30 31
M  V30 31 2 31 32
M  V30 32 1 32 33
M  V30 33 2 33 34
M  V30 34 1 34 35
M  V30 35 1 34 36
M  V30 36 2 36 37
M  V30 37 1 30 4
M  V30 38 1 37 31
M  V30 39 1 29 9
M  V30 40 1 28 16
M  V30 41 1 28 22
M  V30 42 1 1 38
M  V30 43 1 1 39
M  V30 44 1 1 40
M  V30 45 1 5 41
M  V30 46 1 5 42
M  V30 47 1 6 43
M  V30 48 1 6 44
M  V30 49 1 7 45 CFG=3
M  V30 50 1 8 46
M  V30 51 1 10 47
M  V30 52 1 12 48
M  V30 53 1 17 49
M  V30 54 1 19 50
M  V30 55 1 20 51
M  V30 56 1 20 52
M  V30 57 1 20 53
M  V30 58 1 21 54
M  V30 59 1 21 55
M  V30 60 1 21 56
M  V30 61 1 24 57
M  V30 62 1 27 58
M  V30 63 1 27 59
M  V30 64 1 30 60 CFG=3
M  V30 65 1 32 61
M  V30 66 1 33 62
M  V30 67 1 36 63
M  V30 68 1 37 64
M  V30 END BOND
M  V30 END CTAB
M  END
>  <Dataset>  (27) 
ChEMBL_Kinases

>  <Ligand_Instance>  (27) 
nan

>  <PDB_ID>  (27) 
nan

>  <Standardized_SMILES>  (27) 
CC(=O)N1CC[C@@H](Nc2cncc(C(=O)c3cn(C(C)C)c4ncnc(N)c34)n2)[C@H]1c1ccc(F)cc1

>  <Name>  (27) 
nan

>  <Pocket>  (27) 
nan

>  <ATP_Site>  (27) 
nan

>  <Peripheral>  (27) 
nan

>  <Num_H_Atoms_ProtBoundConf>  (27) 
nan

>  <Num_Resolved_Atoms>  (27) 
nan

>  <Num_Not_Resolved_Atoms>  (27) 
nan

$$$$
CHEMBL1940251
     RDKit          3D

  0  0  0  0  0  0  0  0  0  0999 V3000
M  V30 BEGIN CTAB
M  V30 COUNTS 61 65 0 0 0
M  V30 BEGIN ATOM
M  V30 1 C 4.936152 0.822911 4.312970 0
M  V30 2 C 5.548249 0.087271 3.125314 0
M  V30 3 C 6.117517 -1.216253 3.602718 0
M  V30 4 N 4.536133 -0.118674 2.106357 0
M  V30 5 C 4.019365 0.831675 1.327143 0
M  V30 6 C 3.068573 0.266241 0.462896 0
M  V30 7 C 2.310447 1.083048 -0.470294 0
M  V30 8 O 3.065937 1.808470 -1.191056 0
M  V30 9 C 0.886564 1.224439 -0.725060 0
M  V30 10 C 0.505654 2.007921 -1.783440 0
M  V30 11 N -0.809998 2.192923 -2.057160 0
M  V30 12 C -1.751562 1.616819 -1.302597 0
M  V30 13 C -1.408672 0.825847 -0.235244 0
M  V30 14 N -2.331185 0.168606 0.617183 0
M  V30 15 C -3.762929 0.133160 0.581782 0 CFG=2
M  V30 16 C -4.347223 -0.592947 1.785642 0
M  V30 17 C -5.702952 -1.028613 1.279041 0
M  V30 18 N -5.540260 -1.141611 -0.171598 0
M  V30 19 C -6.404105 -1.795150 -1.082545 0
M  V30 20 O -6.281912 -1.903533 -2.332068 0
M  V30 21 C -4.334782 -0.483047 -0.643086 0 CFG=2
M  V30 22 C -3.473859 -1.460457 -1.341156 0
M  V30 23 C -2.796444 -1.362861 -2.540121 0
M  V30 24 C -2.040960 -2.418868 -3.004100 0
M  V30 25 C -1.931970 -3.597632 -2.301762 0
M  V30 26 F -1.156118 -4.535376 -2.888571 0
M  V30 27 C -2.600676 -3.704660 -1.110228 0
M  V30 28 C -3.364905 -2.656339 -0.625919 0
M  V30 29 N -0.115521 0.686640 -0.023250 0
M  V30 30 C 3.098308 -1.062534 0.819007 0
M  V30 31 C 2.365581 -2.079720 0.281028 0
M  V30 32 N 1.440163 -1.894818 -0.777724 0
M  V30 33 N 2.478681 -3.350761 0.702198 0
M  V30 34 C 3.375572 -3.574865 1.707436 0
M  V30 35 N 4.111852 -2.590747 2.255120 0
M  V30 36 C 3.995859 -1.318416 1.830163 0
M  V30 37 H 4.003734 0.369437 4.650187 0
M  V30 38 H 4.766511 1.890175 4.082211 0
M  V30 39 H 5.651194 0.793818 5.159424 0
M  V30 40 H 6.313538 0.759891 2.689614 0
M  V30 41 H 6.999374 -0.966727 4.228798 0
M  V30 42 H 5.345566 -1.772967 4.138029 0
M  V30 43 H 6.521945 -1.771161 2.718548 0
M  V30 44 H 4.304449 1.887189 1.368274 0
M  V30 45 H 1.172572 2.519619 -2.456992 0
M  V30 46 H -2.778535 1.786601 -1.542012 0
M  V30 47 H -1.917846 -0.396209 1.419848 0
M  V30 48 H -4.135464 1.176084 0.651750 0
M  V30 49 H -4.543333 0.107623 2.628298 0
M  V30 50 H -3.721393 -1.389335 2.179121 0
M  V30 51 H -6.469269 -0.232989 1.409864 0
M  V30 52 H -6.040577 -1.990287 1.707377 0
M  V30 53 H -7.304457 -2.279796 -0.683358 0
M  V30 54 H -4.597985 0.314822 -1.380810 0
M  V30 55 H -2.949936 -0.399266 -3.007326 0
M  V30 56 H -1.537751 -2.256013 -3.962593 0
M  V30 57 H -2.472836 -4.658078 -0.607936 0
M  V30 58 H -3.823637 -2.905964 0.323553 0
M  V30 59 H 1.345984 -1.784968 -1.802618 0
M  V30 60 H 1.541454 -1.798934 -1.831627 0
M  V30 61 H 3.594309 -4.531269 2.166788 0
M  V30 END ATOM
M  V30 BEGIN BOND
M  V30 1 1 1 2
M  V30 2 1 2 3
M  V30 3 1 2 4
M  V30 4 1 4 5
M  V30 5 2 5 6
M  V30 6 1 6 7
M  V30 7 2 7 8
M  V30 8 1 7 9
M  V30 9 2 9 10
M  V30 10 1 10 11
M  V30 11 2 11 12
M  V30 12 1 12 13
M  V30 13 1 13 14
M  V30 14 1 14 15
M  V30 15 1 15 16
M  V30 16 1 16 17
M  V30 17 1 17 18
M  V30 18 1 18 19
M  V30 19 2 19 20
M  V30 20 1 18 21
M  V30 21 1 21 22
M  V30 22 2 22 23
M  V30 23 1 23 24
M  V30 24 2 24 25
M  V30 25 1 25 26
M  V30 26 1 25 27
M  V30 27 2 27 28
M  V30 28 2 13 29
M  V30 29 1 6 30
M  V30 30 2 30 31
M  V30 31 1 31 32
M  V30 32 1 31 33
M  V30 33 2 33 34
M  V30 34 1 34 35
M  V30 35 2 35 36
M  V30 36 1 36 4
M  V30 37 1 29 9
M  V30 38 1 36 30
M  V30 39 1 21 15
M  V30 40 1 28 22
M  V30 41 1 1 37
M  V30 42 1 1 38
M  V30 43 1 1 39
M  V30 44 1 2 40
M  V30 45 1 3 41
M  V30 46 1 3 42
M  V30 47 1 3 43
M  V30 48 1 5 44
M  V30 49 1 10 45
M  V30 50 1 12 46
M  V30 51 1 14 47
M  V30 52 1 15 48 CFG=1
M  V30 53 1 16 49
M  V30 54 1 16 50
M  V30 55 1 17 51
M  V30 56 1 17 52
M  V30 57 1 19 53
M  V30 58 1 21 54 CFG=3
M  V30 59 1 23 55
M  V30 60 1 24 56
M  V30 61 1 27 57
M  V30 62 1 28 58
M  V30 63 1 32 59
M  V30 64 1 32 60
M  V30 65 1 34 61
M  V30 END BOND
M  V30 END CTAB
M  END
>  <Dataset>  (28) 
ChEMBL_Kinases

>  <Ligand_Instance>  (28) 
nan

>  <PDB_ID>  (28) 
nan

>  <Standardized_SMILES>  (28) 
CC(C)n1cc(C(=O)c2cncc(N[C@@H]3CCN(C=O)[C@@H]3c3ccc(F)cc3)n2)c2c(N)ncnc21

>  <Name>  (28) 
nan

>  <Pocket>  (28) 
nan

>  <ATP_Site>  (28) 
nan

>  <Peripheral>  (28) 
nan

>  <Num_H_Atoms_ProtBoundConf>  (28) 
nan

>  <Num_Resolved_Atoms>  (28) 
nan

>  <Num_Not_Resolved_Atoms>  (28) 
nan

$$$$
CHEMBL1940250
     RDKit          3D

  0  0  0  0  0  0  0  0  0  0999 V3000
M  V30 BEGIN CTAB
M  V30 COUNTS 59 63 0 0 0
M  V30 BEGIN ATOM
M  V30 1 C 5.116300 -2.480592 4.468563 0
M  V30 2 C 3.960048 -1.513009 4.581674 0
M  V30 3 C 2.824194 -2.089992 5.391201 0
M  V30 4 N 3.539353 -1.129038 3.238097 0
M  V30 5 C 3.351677 0.116067 2.767673 0
M  V30 6 C 2.946416 0.063269 1.425910 0
M  V30 7 C 2.621796 1.245945 0.661194 0
M  V30 8 O 3.579637 2.095112 0.717870 0
M  V30 9 C 1.455695 1.632783 -0.124366 0
M  V30 10 C 1.585040 2.807190 -0.832300 0
M  V30 11 N 0.531028 3.253805 -1.578011 0
M  V30 12 C -0.600050 2.529160 -1.595207 0
M  V30 13 C -0.737908 1.355181 -0.890641 0
M  V30 14 N -1.910840 0.594113 -0.886251 0
M  V30 15 C -3.164936 0.878711 -1.540844 0 CFG=2
M  V30 16 C -3.779242 2.084002 -0.858875 0
M  V30 17 C -4.370712 1.420746 0.395435 0
M  V30 18 N -4.498422 0.017459 0.101663 0
M  V30 19 C -4.225816 -0.147700 -1.296267 0 CFG=2
M  V30 20 C -3.806036 -1.522005 -1.647916 0
M  V30 21 C -2.722278 -1.756910 -2.497099 0
M  V30 22 C -2.364854 -3.066387 -2.798982 0
M  V30 23 C -3.075618 -4.145776 -2.263907 0
M  V30 24 F -2.720052 -5.418114 -2.563684 0
M  V30 25 C -4.144184 -3.846507 -1.425430 0
M  V30 26 C -4.531056 -2.561893 -1.101028 0
M  V30 27 N 0.315146 0.947804 -0.171174 0
M  V30 28 C 2.922285 -1.291158 1.179878 0
M  V30 29 C 2.610065 -1.952448 0.033878 0
M  V30 30 N 2.252804 -1.269089 -1.150166 0
M  V30 31 N 2.646480 -3.279042 -0.030529 0
M  V30 32 C 2.999726 -4.011245 1.054532 0
M  V30 33 N 3.314836 -3.378710 2.201325 0
M  V30 34 C 3.282472 -2.036457 2.280619 0
M  V30 35 H 5.486625 -2.520918 3.417116 0
M  V30 36 H 5.945981 -2.220299 5.153629 0
M  V30 37 H 4.817383 -3.538265 4.706335 0
M  V30 38 H 4.319952 -0.611315 5.122560 0
M  V30 39 H 2.330907 -1.344607 6.048469 0
M  V30 40 H 2.058849 -2.459308 4.679371 0
M  V30 41 H 3.169500 -2.907882 6.075179 0
M  V30 42 H 3.498841 1.025131 3.360707 0
M  V30 43 H 2.463898 3.463745 -0.879803 0
M  V30 44 H -1.392299 2.923827 -2.206654 0
M  V30 45 H -1.926864 -0.318606 -0.345142 0
M  V30 46 H -3.017581 1.078443 -2.634197 0
M  V30 47 H -4.633067 2.463816 -1.478728 0
M  V30 48 H -3.093569 2.881896 -0.601362 0
M  V30 49 H -3.659654 1.645018 1.204079 0
M  V30 50 H -5.376659 1.829872 0.616290 0
M  V30 51 H -3.951859 -0.603776 0.726368 0
M  V30 52 H -5.127129 0.181580 -1.844783 0
M  V30 53 H -2.200987 -0.913423 -2.888618 0
M  V30 54 H -1.531205 -3.246830 -3.452185 0
M  V30 55 H -4.676548 -4.701959 -1.025487 0
M  V30 56 H -5.377994 -2.405275 -0.437885 0
M  V30 57 H 2.894260 -0.652224 -1.714536 0
M  V30 58 H 1.431576 -1.125326 -1.789706 0
M  V30 59 H 3.013517 -5.083527 0.951700 0
M  V30 END ATOM
M  V30 BEGIN BOND
M  V30 1 1 1 2
M  V30 2 1 2 3
M  V30 3 1 2 4
M  V30 4 1 4 5
M  V30 5 2 5 6
M  V30 6 1 6 7
M  V30 7 2 7 8
M  V30 8 1 7 9
M  V30 9 2 9 10
M  V30 10 1 10 11
M  V30 11 2 11 12
M  V30 12 1 12 13
M  V30 13 1 13 14
M  V30 14 1 14 15
M  V30 15 1 15 16
M  V30 16 1 16 17
M  V30 17 1 17 18
M  V30 18 1 18 19
M  V30 19 1 19 20
M  V30 20 2 20 21
M  V30 21 1 21 22
M  V30 22 2 22 23
M  V30 23 1 23 24
M  V30 24 1 23 25
M  V30 25 2 25 26
M  V30 26 2 13 27
M  V30 27 1 6 28
M  V30 28 2 28 29
M  V30 29 1 29 30
M  V30 30 1 29 31
M  V30 31 2 31 32
M  V30 32 1 32 33
M  V30 33 2 33 34
M  V30 34 1 34 4
M  V30 35 1 27 9
M  V30 36 1 34 28
M  V30 37 1 19 15
M  V30 38 1 26 20
M  V30 39 1 1 35
M  V30 40 1 1 36
M  V30 41 1 1 37
M  V30 42 1 2 38
M  V30 43 1 3 39
M  V30 44 1 3 40
M  V30 45 1 3 41
M  V30 46 1 5 42
M  V30 47 1 10 43
M  V30 48 1 12 44
M  V30 49 1 14 45
M  V30 50 1 15 46 CFG=3
M  V30 51 1 16 47
M  V30 52 1 16 48
M  V30 53 1 17 49
M  V30 54 1 17 50
M  V30 55 1 18 51
M  V30 56 1 19 52 CFG=3
M  V30 57 1 21 53
M  V30 58 1 22 54
M  V30 59 1 25 55
M  V30 60 1 26 56
M  V30 61 1 30 57
M  V30 62 1 30 58
M  V30 63 1 32 59
M  V30 END BOND
M  V30 END CTAB
M  END
>  <Dataset>  (29) 
ChEMBL_Kinases

>  <Ligand_Instance>  (29) 
nan

>  <PDB_ID>  (29) 
nan

>  <Standardized_SMILES>  (29) 
CC(C)n1cc(C(=O)c2cncc(N[C@@H]3CCN[C@@H]3c3ccc(F)cc3)n2)c2c(N)ncnc21

>  <Name>  (29) 
nan

>  <Pocket>  (29) 
nan

>  <ATP_Site>  (29) 
nan

>  <Peripheral>  (29) 
nan

>  <Num_H_Atoms_ProtBoundConf>  (29) 
nan

>  <Num_Resolved_Atoms>  (29) 
nan

>  <Num_Not_Resolved_Atoms>  (29) 
nan

$$$$
CHEMBL1940249
     RDKit          3D

  0  0  0  0  0  0  0  0  0  0999 V3000
M  V30 BEGIN CTAB
M  V30 COUNTS 59 63 0 0 0
M  V30 BEGIN ATOM
M  V30 1 C 4.744974 -1.966735 4.493042 0
M  V30 2 C 3.512817 -1.095884 4.586483 0
M  V30 3 C 2.429092 -1.883018 5.307712 0
M  V30 4 N 3.012578 -0.751929 3.247220 0
M  V30 5 C 2.877487 0.456723 2.680001 0
M  V30 6 C 2.360386 0.340269 1.393908 0
M  V30 7 C 2.035564 1.416804 0.494908 0
M  V30 8 O 3.072024 2.163465 0.391506 0
M  V30 9 C 0.865904 1.803911 -0.258742 0
M  V30 10 C 1.061907 2.852669 -1.147618 0
M  V30 11 N 0.028574 3.318743 -1.870670 0
M  V30 12 C -1.186872 2.789373 -1.748747 0
M  V30 13 C -1.436683 1.747076 -0.881134 0
M  V30 14 N -2.749055 1.167216 -0.682725 0
M  V30 15 C -3.203625 0.090794 0.128939 0 CFG=2
M  V30 16 C -2.667067 0.058255 1.510372 0
M  V30 17 N -2.410939 -1.333418 1.792760 0
M  V30 18 C -2.154675 -1.956050 0.485457 0
M  V30 19 C -3.184544 -1.276226 -0.411134 0 CFG=2
M  V30 20 C -3.022968 -1.499653 -1.827000 0
M  V30 21 C -1.941747 -1.213639 -2.624360 0
M  V30 22 C -1.838673 -1.448149 -3.977154 0
M  V30 23 C -2.892477 -2.023377 -4.644435 0
M  V30 24 F -2.842957 -2.272149 -5.951836 0
M  V30 25 C -4.022747 -2.346955 -3.925524 0
M  V30 26 C -4.064409 -2.087052 -2.572933 0
M  V30 27 N -0.373284 1.316848 -0.183158 0
M  V30 28 C 2.216875 -1.022363 1.281226 0
M  V30 29 C 1.760048 -1.823998 0.234595 0
M  V30 30 N 1.360632 -1.204133 -0.956237 0
M  V30 31 N 1.710584 -3.146311 0.332016 0
M  V30 32 C 2.095594 -3.808404 1.436878 0
M  V30 33 N 2.542560 -3.063623 2.461845 0
M  V30 34 C 2.608843 -1.723295 2.405626 0
M  V30 35 H 5.193158 -1.783646 3.482530 0
M  V30 36 H 5.494751 -1.694330 5.260113 0
M  V30 37 H 4.473127 -3.039190 4.546836 0
M  V30 38 H 3.737298 -0.162161 5.121242 0
M  V30 39 H 1.476481 -1.418180 5.053927 0
M  V30 40 H 2.496342 -2.931154 4.947313 0
M  V30 41 H 2.648170 -1.875605 6.398775 0
M  V30 42 H 3.148706 1.378084 3.192280 0
M  V30 43 H 1.987035 3.378224 -1.349966 0
M  V30 44 H -2.007276 3.180814 -2.341280 0
M  V30 45 H -3.465222 1.685373 -1.289108 0
M  V30 46 H -4.327391 0.331110 0.284103 0
M  V30 47 H -3.358590 0.505354 2.284491 0
M  V30 48 H -1.681956 0.562392 1.630416 0
M  V30 49 H -1.606043 -1.480485 2.445891 0
M  V30 50 H -1.166106 -1.758615 0.089877 0
M  V30 51 H -2.302715 -3.050235 0.551963 0
M  V30 52 H -4.152782 -1.816008 -0.115643 0
M  V30 53 H -1.084933 -0.767891 -2.171646 0
M  V30 54 H -0.966440 -1.202793 -4.555225 0
M  V30 55 H -4.886389 -2.807821 -4.408624 0
M  V30 56 H -4.984804 -2.365795 -2.066320 0
M  V30 57 H 1.605359 -0.746709 -1.854871 0
M  V30 58 H 2.018397 -0.836166 -1.698589 0
M  V30 59 H 2.076972 -4.875295 1.569978 0
M  V30 END ATOM
M  V30 BEGIN BOND
M  V30 1 1 1 2
M  V30 2 1 2 3
M  V30 3 1 2 4
M  V30 4 1 4 5
M  V30 5 2 5 6
M  V30 6 1 6 7
M  V30 7 2 7 8
M  V30 8 1 7 9
M  V30 9 2 9 10
M  V30 10 1 10 11
M  V30 11 2 11 12
M  V30 12 1 12 13
M  V30 13 1 13 14
M  V30 14 1 14 15
M  V30 15 1 15 16
M  V30 16 1 16 17
M  V30 17 1 17 18
M  V30 18 1 18 19
M  V30 19 1 19 20
M  V30 20 2 20 21
M  V30 21 1 21 22
M  V30 22 2 22 23
M  V30 23 1 23 24
M  V30 24 1 23 25
M  V30 25 2 25 26
M  V30 26 2 13 27
M  V30 27 1 6 28
M  V30 28 2 28 29
M  V30 29 1 29 30
M  V30 30 1 29 31
M  V30 31 2 31 32
M  V30 32 1 32 33
M  V30 33 2 33 34
M  V30 34 1 34 4
M  V30 35 1 27 9
M  V30 36 1 34 28
M  V30 37 1 19 15
M  V30 38 1 26 20
M  V30 39 1 1 35
M  V30 40 1 1 36
M  V30 41 1 1 37
M  V30 42 1 2 38
M  V30 43 1 3 39
M  V30 44 1 3 40
M  V30 45 1 3 41
M  V30 46 1 5 42
M  V30 47 1 10 43
M  V30 48 1 12 44
M  V30 49 1 14 45
M  V30 50 1 15 46 CFG=1
M  V30 51 1 16 47
M  V30 52 1 16 48
M  V30 53 1 17 49
M  V30 54 1 18 50
M  V30 55 1 18 51
M  V30 56 1 19 52 CFG=1
M  V30 57 1 21 53
M  V30 58 1 22 54
M  V30 59 1 25 55
M  V30 60 1 26 56
M  V30 61 1 30 57
M  V30 62 1 30 58
M  V30 63 1 32 59
M  V30 END BOND
M  V30 END CTAB
M  END
>  <Dataset>  (30) 
ChEMBL_Kinases

>  <Ligand_Instance>  (30) 
nan

>  <PDB_ID>  (30) 
nan

>  <Standardized_SMILES>  (30) 
CC(C)n1cc(C(=O)c2cncc(N[C@@H]3CNC[C@@H]3c3ccc(F)cc3)n2)c2c(N)ncnc21

>  <Name>  (30) 
nan

>  <Pocket>  (30) 
nan

>  <ATP_Site>  (30) 
nan

>  <Peripheral>  (30) 
nan

>  <Num_H_Atoms_ProtBoundConf>  (30) 
nan

>  <Num_Resolved_Atoms>  (30) 
nan

>  <Num_Not_Resolved_Atoms>  (30) 
nan

$$$$
CHEMBL1938689
     RDKit          3D

  0  0  0  0  0  0  0  0  0  0999 V3000
M  V30 BEGIN CTAB
M  V30 COUNTS 54 59 0 0 0
M  V30 BEGIN ATOM
M  V30 1 C 3.392839 -1.284008 3.602274 0
M  V30 2 C 2.747750 -2.153881 2.597666 0
M  V30 3 C 3.112530 -3.494833 2.374924 0
M  V30 4 N 2.393109 -4.046699 1.349913 0
M  V30 5 C 1.574595 -3.074501 0.917058 0
M  V30 6 N 1.799791 -1.964970 1.671694 0
M  V30 7 C 1.127623 -0.708732 1.560831 0
M  V30 8 C 1.003353 -0.166602 2.824329 0
M  V30 9 C 0.378937 1.092725 2.834757 0
M  V30 10 C -0.070797 1.729659 1.696124 0
M  V30 11 N -0.702964 2.996257 1.714158 0
M  V30 12 C -1.055031 3.739662 2.907189 0
M  V30 13 C -0.082486 4.921461 2.981585 0
M  V30 14 N -0.081687 5.591432 1.706591 0
M  V30 15 C -1.140164 5.172223 0.839983 0
M  V30 16 C -1.064102 3.691373 0.494823 0
M  V30 17 C 0.085611 1.123661 0.466106 0
M  V30 18 C 0.689272 -0.112494 0.370501 0
M  V30 19 C 0.757533 -0.675543 -1.023309 0
M  V30 20 C 0.317754 -2.102653 -1.030440 0
M  V30 21 C -0.576350 -2.705713 -1.927007 0
M  V30 22 C -0.731775 -4.060848 -1.609834 0
M  V30 23 C -1.570799 -5.032244 -2.297943 0
M  V30 24 C -1.564063 -6.319055 -1.801768 0
M  V30 25 C -2.337248 -7.267673 -2.416150 0
M  V30 26 C -3.098341 -6.911117 -3.509881 0
M  V30 27 Cl -4.057544 -8.162757 -4.243735 0
M  V30 28 C -3.073307 -5.593448 -3.977744 0
M  V30 29 C -2.298491 -4.625950 -3.368506 0
M  V30 30 O 0.032054 -4.304063 -0.556906 0
M  V30 31 C 0.641593 -3.199477 -0.207966 0
M  V30 32 H 3.458348 -0.209303 3.324704 0
M  V30 33 H 3.200188 -1.511067 4.646370 0
M  V30 34 H 4.501007 -1.558521 3.511333 0
M  V30 35 H 3.842886 -4.123851 2.870670 0
M  V30 36 H 1.266962 -0.589381 3.762843 0
M  V30 37 H 0.260405 1.562480 3.801890 0
M  V30 38 H -2.093290 4.164195 2.768050 0
M  V30 39 H -1.010789 3.121814 3.804955 0
M  V30 40 H 0.907225 4.484998 3.228310 0
M  V30 41 H -0.366913 5.599419 3.830603 0
M  V30 42 H -0.164874 6.613828 1.841520 0
M  V30 43 H -2.138976 5.463422 1.207639 0
M  V30 44 H -1.000423 5.720527 -0.120325 0
M  V30 45 H -2.097061 3.403854 0.206223 0
M  V30 46 H -0.365294 3.511568 -0.346617 0
M  V30 47 H -0.217189 1.500456 -0.501015 0
M  V30 48 H 1.763689 -0.521083 -1.415221 0
M  V30 49 H -0.000571 -0.124501 -1.617479 0
M  V30 50 H -1.062087 -2.165528 -2.742328 0
M  V30 51 H -0.965909 -6.608545 -0.938672 0
M  V30 52 H -2.345400 -8.288262 -2.039749 0
M  V30 53 H -3.707961 -5.439765 -4.835290 0
M  V30 54 H -2.322209 -3.621398 -3.779032 0
M  V30 END ATOM
M  V30 BEGIN BOND
M  V30 1 1 1 2
M  V30 2 2 2 3
M  V30 3 1 3 4
M  V30 4 2 4 5
M  V30 5 1 5 6
M  V30 6 1 6 7
M  V30 7 2 7 8
M  V30 8 1 8 9
M  V30 9 2 9 10
M  V30 10 1 10 11
M  V30 11 1 11 12
M  V30 12 1 12 13
M  V30 13 1 13 14
M  V30 14 1 14 15
M  V30 15 1 15 16
M  V30 16 1 10 17
M  V30 17 2 17 18
M  V30 18 1 18 19
M  V30 19 1 19 20
M  V30 20 1 20 21
M  V30 21 2 21 22
M  V30 22 1 22 23
M  V30 23 2 23 24
M  V30 24 1 24 25
M  V30 25 2 25 26
M  V30 26 1 26 27
M  V30 27 1 26 28
M  V30 28 2 28 29
M  V30 29 1 22 30
M  V30 30 1 30 31
M  V30 31 1 6 2
M  V30 32 1 18 7
M  V30 33 2 31 20
M  V30 34 1 31 5
M  V30 35 1 16 11
M  V30 36 1 29 23
M  V30 37 1 1 32
M  V30 38 1 1 33
M  V30 39 1 1 34
M  V30 40 1 3 35
M  V30 41 1 8 36
M  V30 42 1 9 37
M  V30 43 1 12 38
M  V30 44 1 12 39
M  V30 45 1 13 40
M  V30 46 1 13 41
M  V30 47 1 14 42
M  V30 48 1 15 43
M  V30 49 1 15 44
M  V30 50 1 16 45
M  V30 51 1 16 46
M  V30 52 1 17 47
M  V30 53 1 19 48
M  V30 54 1 19 49
M  V30 55 1 21 50
M  V30 56 1 24 51
M  V30 57 1 25 52
M  V30 58 1 28 53
M  V30 59 1 29 54
M  V30 END BOND
M  V30 END CTAB
M  END
>  <Dataset>  (31) 
ChEMBL_Kinases

>  <Ligand_Instance>  (31) 
nan

>  <PDB_ID>  (31) 
nan

>  <Standardized_SMILES>  (31) 
Cc1cnc2n1-c1ccc(N3CCNCC3)cc1Cc1cc(-c3ccc(Cl)cc3)oc1-2

>  <Name>  (31) 
nan

>  <Pocket>  (31) 
nan

>  <ATP_Site>  (31) 
nan

>  <Peripheral>  (31) 
nan

>  <Num_H_Atoms_ProtBoundConf>  (31) 
nan

>  <Num_Resolved_Atoms>  (31) 
nan

>  <Num_Not_Resolved_Atoms>  (31) 
nan

$$$$
CHEMBL1938764
     RDKit          3D

  0  0  0  0  0  0  0  0  0  0999 V3000
M  V30 BEGIN CTAB
M  V30 COUNTS 49 51 0 0 0
M  V30 BEGIN ATOM
M  V30 1 C 4.212442 -4.864606 3.210907 0
M  V30 2 C 4.267524 -3.389700 3.430736 0
M  V30 3 N 3.525667 -2.716036 2.368419 0
M  V30 4 C 3.465001 -1.299828 2.396970 0
M  V30 5 O 4.053779 -0.723389 3.334187 0
M  V30 6 N 2.775280 -0.517615 1.421155 0
M  V30 7 C 2.839317 0.913164 1.625735 0
M  V30 8 C 2.108842 1.669956 0.580625 0
M  V30 9 C 2.827005 2.253661 -0.450844 0
M  V30 10 C 2.192246 2.962467 -1.450509 0
M  V30 11 C 0.797762 3.086692 -1.410021 0
M  V30 12 C 0.157947 2.484439 -0.362684 0
M  V30 13 C 0.740355 1.764560 0.663287 0
M  V30 14 S -0.306245 1.100663 1.936810 0
M  V30 15 C -0.913020 -0.488906 1.409442 0
M  V30 16 C -0.445163 -1.771394 1.601656 0
M  V30 17 C -1.141678 -2.823740 1.052998 0
M  V30 18 C -2.290366 -2.681253 0.315650 0
M  V30 19 N -3.078567 -3.580205 -0.278968 0
M  V30 20 N -4.053193 -2.901144 -0.854430 0
M  V30 21 C -3.859951 -1.581355 -0.611337 0
M  V30 22 C -4.747087 -0.515794 -1.092573 0
M  V30 23 C -4.096773 0.554376 -1.897900 0
M  V30 24 C -5.543652 0.011438 0.086063 0
M  V30 25 N -2.736925 -1.418506 0.136141 0
M  V30 26 C -2.083538 -0.345558 0.657790 0
M  V30 27 H 3.297843 -5.330548 3.628055 0
M  V30 28 H 5.087411 -5.340988 3.712803 0
M  V30 29 H 4.318970 -5.118625 2.139773 0
M  V30 30 H 3.735115 -3.164776 4.379482 0
M  V30 31 H 5.295130 -2.995100 3.523073 0
M  V30 32 H 3.039384 -3.225779 1.592049 0
M  V30 33 H 2.289810 -1.041882 0.651856 0
M  V30 34 H 2.441626 1.185074 2.627639 0
M  V30 35 H 3.897212 1.266607 1.642445 0
M  V30 36 H 3.918134 2.127125 -0.436522 0
M  V30 37 H 2.765576 3.412603 -2.249201 0
M  V30 38 H 0.289118 3.634683 -2.180669 0
M  V30 39 H -0.925516 2.611104 -0.377516 0
M  V30 40 H 0.449714 -1.766216 2.195930 0
M  V30 41 H -0.717302 -3.789726 1.245131 0
M  V30 42 H -5.524628 -1.009517 -1.749142 0
M  V30 43 H -4.616961 0.729257 -2.877320 0
M  V30 44 H -3.091613 0.176275 -2.190987 0
M  V30 45 H -4.072762 1.536045 -1.387750 0
M  V30 46 H -6.355835 0.693517 -0.253773 0
M  V30 47 H -4.923365 0.415573 0.893553 0
M  V30 48 H -6.076958 -0.889193 0.492658 0
M  V30 49 H -2.594211 0.594651 0.404728 0
M  V30 END ATOM
M  V30 BEGIN BOND
M  V30 1 1 1 2
M  V30 2 1 2 3
M  V30 3 1 3 4
M  V30 4 2 4 5
M  V30 5 1 4 6
M  V30 6 1 6 7
M  V30 7 1 7 8
M  V30 8 2 8 9
M  V30 9 1 9 10
M  V30 10 2 10 11
M  V30 11 1 11 12
M  V30 12 2 12 13
M  V30 13 1 13 14
M  V30 14 1 14 15
M  V30 15 1 15 16
M  V30 16 2 16 17
M  V30 17 1 17 18
M  V30 18 2 18 19
M  V30 19 1 19 20
M  V30 20 2 20 21
M  V30 21 1 21 22
M  V30 22 1 22 23
M  V30 23 1 22 24
M  V30 24 1 21 25
M  V30 25 1 25 26
M  V30 26 1 13 8
M  V30 27 2 26 15
M  V30 28 1 25 18
M  V30 29 1 1 27
M  V30 30 1 1 28
M  V30 31 1 1 29
M  V30 32 1 2 30
M  V30 33 1 2 31
M  V30 34 1 3 32
M  V30 35 1 6 33
M  V30 36 1 7 34
M  V30 37 1 7 35
M  V30 38 1 9 36
M  V30 39 1 10 37
M  V30 40 1 11 38
M  V30 41 1 12 39
M  V30 42 1 16 40
M  V30 43 1 17 41
M  V30 44 1 22 42
M  V30 45 1 23 43
M  V30 46 1 23 44
M  V30 47 1 23 45
M  V30 48 1 24 46
M  V30 49 1 24 47
M  V30 50 1 24 48
M  V30 51 1 26 49
M  V30 END BOND
M  V30 END CTAB
M  END
>  <Dataset>  (32) 
ChEMBL_Kinases

>  <Ligand_Instance>  (32) 
nan

>  <PDB_ID>  (32) 
nan

>  <Standardized_SMILES>  (32) 
CCNC(=O)NCc1ccccc1Sc1ccc2nnc(C(C)C)n2c1

>  <Name>  (32) 
nan

>  <Pocket>  (32) 
nan

>  <ATP_Site>  (32) 
nan

>  <Peripheral>  (32) 
nan

>  <Num_H_Atoms_ProtBoundConf>  (32) 
nan

>  <Num_Resolved_Atoms>  (32) 
nan

>  <Num_Not_Resolved_Atoms>  (32) 
nan

$$$$
CHEMBL1939163
     RDKit          3D

  0  0  0  0  0  0  0  0  0  0999 V3000
M  V30 BEGIN CTAB
M  V30 COUNTS 54 57 0 0 0
M  V30 BEGIN ATOM
M  V30 1 C -0.020581 -4.078243 4.160585 0
M  V30 2 N 0.716183 -2.861679 4.041476 0
M  V30 3 C -0.002880 -1.804323 4.721006 0
M  V30 4 C 0.909264 -2.489936 2.677300 0
M  V30 5 C 1.660069 -1.162139 2.559134 0
M  V30 6 C 1.429500 -0.713755 1.132427 0
M  V30 7 C 1.966401 -1.707669 0.159153 0
M  V30 8 N 0.928722 -2.206351 -0.742318 0
M  V30 9 C 0.213392 -1.218918 -1.465665 0
M  V30 10 N 0.521777 0.075335 -1.270415 0
M  V30 11 C -0.139844 1.065593 -1.927920 0
M  V30 12 N 0.132210 2.449880 -1.766174 0
M  V30 13 C -0.520710 3.038402 -0.620952 0
M  V30 14 C -0.477621 4.385959 -0.354029 0
M  V30 15 C -1.051651 5.032675 0.707895 0
M  V30 16 Cl -0.934070 6.746806 0.945542 0
M  V30 17 C -1.735428 4.244090 1.586305 0
M  V30 18 C -1.840737 2.878576 1.412784 0
M  V30 19 Cl -2.698461 1.808639 2.502218 0
M  V30 20 C -1.236639 2.296960 0.319258 0
M  V30 21 N -1.148587 0.840978 -2.822238 0
M  V30 22 C -1.485282 -0.456710 -3.043727 0
M  V30 23 C -2.487316 -0.828178 -3.923005 0
M  V30 24 C -2.840628 -2.143514 -4.158696 0
M  V30 25 C -2.155309 -3.156244 -3.477340 0
M  V30 26 C -1.165856 -2.747373 -2.611714 0
M  V30 27 C -0.798608 -1.444122 -2.362671 0
M  V30 28 C 2.649299 -2.846324 0.879362 0
M  V30 29 C 1.742711 -3.487992 1.906542 0
M  V30 30 H -0.435515 -4.152790 5.203168 0
M  V30 31 H -0.909692 -4.027668 3.476346 0
M  V30 32 H 0.555377 -5.004079 4.002949 0
M  V30 33 H -0.645593 -1.303086 3.943241 0
M  V30 34 H -0.727244 -2.212372 5.464449 0
M  V30 35 H 0.711939 -1.093110 5.157883 0
M  V30 36 H -0.053642 -2.361626 2.166041 0
M  V30 37 H 2.711750 -1.230385 2.844763 0
M  V30 38 H 1.217598 -0.398931 3.261171 0
M  V30 39 H 1.950674 0.282150 1.055760 0
M  V30 40 H 0.318637 -0.559564 1.022261 0
M  V30 41 H 2.726222 -1.213285 -0.470801 0
M  V30 42 H 0.794933 -3.235300 -0.784226 0
M  V30 43 H 0.713768 3.096333 -2.328088 0
M  V30 44 H 0.073112 4.999013 -1.069485 0
M  V30 45 H -2.223181 4.668637 2.458775 0
M  V30 46 H -1.298646 1.216760 0.148887 0
M  V30 47 H -3.013460 -0.019715 -4.448491 0
M  V30 48 H -3.629582 -2.416140 -4.852758 0
M  V30 49 H -2.438000 -4.160801 -3.669466 0
M  V30 50 H -0.673097 -3.579663 -2.114089 0
M  V30 51 H 3.527083 -2.439840 1.420831 0
M  V30 52 H 2.992453 -3.628798 0.205263 0
M  V30 53 H 1.110750 -4.296550 1.486954 0
M  V30 54 H 2.404994 -3.963066 2.663240 0
M  V30 END ATOM
M  V30 BEGIN BOND
M  V30 1 1 1 2
M  V30 2 1 2 3
M  V30 3 1 2 4
M  V30 4 1 4 5
M  V30 5 1 5 6
M  V30 6 1 6 7
M  V30 7 1 7 8
M  V30 8 1 8 9
M  V30 9 2 9 10
M  V30 10 1 10 11
M  V30 11 1 11 12
M  V30 12 1 12 13
M  V30 13 2 13 14
M  V30 14 1 14 15
M  V30 15 1 15 16
M  V30 16 2 15 17
M  V30 17 1 17 18
M  V30 18 1 18 19
M  V30 19 2 18 20
M  V30 20 2 11 21
M  V30 21 1 21 22
M  V30 22 2 22 23
M  V30 23 1 23 24
M  V30 24 2 24 25
M  V30 25 1 25 26
M  V30 26 2 26 27
M  V30 27 1 7 28
M  V30 28 1 28 29
M  V30 29 1 29 4
M  V30 30 1 27 9
M  V30 31 1 20 13
M  V30 32 1 27 22
M  V30 33 1 1 30
M  V30 34 1 1 31
M  V30 35 1 1 32
M  V30 36 1 3 33
M  V30 37 1 3 34
M  V30 38 1 3 35
M  V30 39 1 4 36
M  V30 40 1 5 37
M  V30 41 1 5 38
M  V30 42 1 6 39
M  V30 43 1 6 40
M  V30 44 1 7 41
M  V30 45 1 8 42
M  V30 46 1 12 43
M  V30 47 1 14 44
M  V30 48 1 17 45
M  V30 49 1 20 46
M  V30 50 1 23 47
M  V30 51 1 24 48
M  V30 52 1 25 49
M  V30 53 1 26 50
M  V30 54 1 28 51
M  V30 55 1 28 52
M  V30 56 1 29 53
M  V30 57 1 29 54
M  V30 END BOND
M  V30 END CTAB
M  END
>  <Dataset>  (33) 
ChEMBL_Kinases

>  <Ligand_Instance>  (33) 
nan

>  <PDB_ID>  (33) 
nan

>  <Standardized_SMILES>  (33) 
CN(C)C1CCC(Nc2nc(Nc3cc(Cl)cc(Cl)c3)nc3ccccc23)CC1

>  <Name>  (33) 
nan

>  <Pocket>  (33) 
nan

>  <ATP_Site>  (33) 
nan

>  <Peripheral>  (33) 
nan

>  <Num_H_Atoms_ProtBoundConf>  (33) 
nan

>  <Num_Resolved_Atoms>  (33) 
nan

>  <Num_Not_Resolved_Atoms>  (33) 
nan

$$$$
CHEMBL1939164
     RDKit          3D

  0  0  0  0  0  0  0  0  0  0999 V3000
M  V30 BEGIN CTAB
M  V30 COUNTS 53 55 0 0 0
M  V30 BEGIN ATOM
M  V30 1 C -0.147095 -1.943029 3.851519 0
M  V30 2 C 1.007304 -2.561353 3.084359 0
M  V30 3 N 2.159179 -1.833220 3.318737 0
M  V30 4 C 2.773748 -1.820257 4.575101 0
M  V30 5 C 4.044059 -1.001653 4.325920 0
M  V30 6 C 3.790270 -0.399381 2.912595 0
M  V30 7 C 2.876204 0.745386 3.176033 0
M  V30 8 N 2.446441 1.534714 2.087696 0
M  V30 9 C 1.612506 1.370952 0.947683 0
M  V30 10 C 1.431625 2.385015 -0.001432 0
M  V30 11 C 0.614508 2.224753 -1.091154 0
M  V30 12 C 0.494557 3.363831 -2.031267 0
M  V30 13 N -0.020201 1.053157 -1.231707 0
M  V30 14 C 0.119487 0.047863 -0.349087 0
M  V30 15 N -0.599044 -1.151791 -0.593988 0
M  V30 16 C -1.430630 -1.228997 -1.758460 0
M  V30 17 N -1.402251 -0.379950 -2.714048 0
M  V30 18 N -2.349260 -2.311987 -1.874799 0
M  V30 19 C -3.698633 -2.171022 -2.300211 0
M  V30 20 C -4.444651 -3.319066 -2.590549 0
M  V30 21 C -5.756350 -3.287829 -2.993679 0
M  V30 22 C -6.403373 -2.081072 -3.130270 0
M  V30 23 Cl -8.075685 -2.112727 -3.649382 0
M  V30 24 C -5.699414 -0.926657 -2.852323 0
M  V30 25 Cl -6.519986 0.601723 -3.025167 0
M  V30 26 C -4.384741 -1.000101 -2.450300 0
M  V30 27 N 0.924708 0.246414 0.697865 0
M  V30 28 C 3.129085 -1.630895 2.323998 0
M  V30 29 H 0.181434 -1.501377 4.829232 0
M  V30 30 H -0.941803 -2.693253 4.059597 0
M  V30 31 H -0.600645 -1.087573 3.282235 0
M  V30 32 H 0.750251 -2.511657 2.010326 0
M  V30 33 H 1.070731 -3.642972 3.354774 0
M  V30 34 H 2.180302 -1.391817 5.396142 0
M  V30 35 H 3.068880 -2.838749 4.877805 0
M  V30 36 H 4.942229 -1.636757 4.248322 0
M  V30 37 H 4.127095 -0.205750 5.077412 0
M  V30 38 H 4.747502 -0.159421 2.433975 0
M  V30 39 H 1.954399 0.318085 3.659476 0
M  V30 40 H 3.336847 1.381488 3.963011 0
M  V30 41 H 2.855118 2.522647 2.121105 0
M  V30 42 H 1.957158 3.332505 0.129039 0
M  V30 43 H 0.653047 4.314115 -1.480250 0
M  V30 44 H -0.571678 3.393874 -2.358041 0
M  V30 45 H 1.184904 3.284593 -2.870687 0
M  V30 46 H -0.527234 -1.981932 0.061904 0
M  V30 47 H -1.983661 -0.403740 -3.565544 0
M  V30 48 H -1.996757 -3.283917 -1.614589 0
M  V30 49 H -3.944158 -4.289130 -2.486999 0
M  V30 50 H -6.239873 -4.243511 -3.191850 0
M  V30 51 H -3.891840 -0.081342 -2.240158 0
M  V30 52 H 2.854961 -1.583877 1.291524 0
M  V30 53 H 3.926492 -2.437336 2.416159 0
M  V30 END ATOM
M  V30 BEGIN BOND
M  V30 1 1 1 2
M  V30 2 1 2 3
M  V30 3 1 3 4
M  V30 4 1 4 5
M  V30 5 1 5 6
M  V30 6 1 6 7
M  V30 7 1 7 8
M  V30 8 1 8 9
M  V30 9 2 9 10
M  V30 10 1 10 11
M  V30 11 1 11 12
M  V30 12 2 11 13
M  V30 13 1 13 14
M  V30 14 1 14 15
M  V30 15 1 15 16
M  V30 16 2 16 17 CFG=2
M  V30 17 1 16 18
M  V30 18 1 18 19
M  V30 19 2 19 20
M  V30 20 1 20 21
M  V30 21 2 21 22
M  V30 22 1 22 23
M  V30 23 1 22 24
M  V30 24 1 24 25
M  V30 25 2 24 26
M  V30 26 2 14 27
M  V30 27 1 6 28
M  V30 28 1 28 3
M  V30 29 1 27 9
M  V30 30 1 26 19
M  V30 31 1 1 29
M  V30 32 1 1 30
M  V30 33 1 1 31
M  V30 34 1 2 32
M  V30 35 1 2 33
M  V30 36 1 4 34
M  V30 37 1 4 35
M  V30 38 1 5 36
M  V30 39 1 5 37
M  V30 40 1 6 38
M  V30 41 1 7 39
M  V30 42 1 7 40
M  V30 43 1 8 41
M  V30 44 1 10 42
M  V30 45 1 12 43
M  V30 46 1 12 44
M  V30 47 1 12 45
M  V30 48 1 15 46
M  V30 49 1 17 47
M  V30 50 1 18 48
M  V30 51 1 20 49
M  V30 52 1 21 50
M  V30 53 1 26 51
M  V30 54 1 28 52
M  V30 55 1 28 53
M  V30 END BOND
M  V30 END CTAB
M  END
>  <Dataset>  (34) 
ChEMBL_Kinases

>  <Ligand_Instance>  (34) 
nan

>  <PDB_ID>  (34) 
nan

>  <Standardized_SMILES>  (34) 
CCN1CCC(CNc2cc(C)nc(NC(=N)Nc3ccc(Cl)c(Cl)c3)n2)C1

>  <Name>  (34) 
nan

>  <Pocket>  (34) 
nan

>  <ATP_Site>  (34) 
nan

>  <Peripheral>  (34) 
nan

>  <Num_H_Atoms_ProtBoundConf>  (34) 
nan

>  <Num_Resolved_Atoms>  (34) 
nan

>  <Num_Not_Resolved_Atoms>  (34) 
nan

$$$$
CHEMBL1939166
     RDKit          3D

  0  0  0  0  0  0  0  0  0  0999 V3000
M  V30 BEGIN CTAB
M  V30 COUNTS 51 54 0 0 0
M  V30 BEGIN ATOM
M  V30 1 C 1.020210 0.498285 5.480383 0
M  V30 2 C 1.873480 -0.731829 5.465433 0
M  V30 3 N 2.901806 -0.768500 4.495158 0
M  V30 4 C 3.976395 0.144896 4.664151 0
M  V30 5 C 5.079935 -0.042906 3.650801 0
M  V30 6 C 4.608980 -0.155622 2.238247 0
M  V30 7 C 3.091112 -0.129567 2.135456 0
M  V30 8 N 2.679898 -0.615797 0.839399 0
M  V30 9 C 1.361736 -0.584329 0.312788 0
M  V30 10 C 0.280543 -0.037917 0.967660 0
M  V30 11 C -1.007991 -0.007097 0.479727 0
M  V30 12 C -2.132863 0.599520 1.230050 0
M  V30 13 N -1.192825 -0.566045 -0.741306 0
M  V30 14 C -0.152819 -1.112872 -1.415066 0
M  V30 15 N -0.415896 -1.679756 -2.689159 0
M  V30 16 C -1.768651 -1.630850 -3.173740 0
M  V30 17 N -2.777768 -1.071266 -2.466153 0
M  V30 18 C -3.905044 -1.196092 -3.210806 0
M  V30 19 C -5.206903 -0.808786 -2.983290 0
M  V30 20 C -6.234656 -1.033602 -3.889622 0
M  V30 21 Cl -7.871862 -0.514627 -3.538100 0
M  V30 22 C -5.924347 -1.676514 -5.070951 0
M  V30 23 Cl -7.181143 -1.993639 -6.271225 0
M  V30 24 C -4.609287 -2.069175 -5.304238 0
M  V30 25 C -3.598367 -1.836076 -4.387506 0
M  V30 26 N -2.276119 -2.088063 -4.329138 0
M  V30 27 N 1.080920 -1.111554 -0.885212 0
M  V30 28 C 2.556338 -1.108000 3.165250 0
M  V30 29 H 1.455531 1.327228 6.077792 0
M  V30 30 H 0.072135 0.224012 6.030769 0
M  V30 31 H 0.683830 0.793096 4.470450 0
M  V30 32 H 1.186284 -1.597165 5.308006 0
M  V30 33 H 2.312878 -0.856078 6.480429 0
M  V30 34 H 3.648407 1.215480 4.737570 0
M  V30 35 H 4.438189 -0.056516 5.669755 0
M  V30 36 H 5.695106 -0.903202 3.924241 0
M  V30 37 H 5.715626 0.886798 3.735170 0
M  V30 38 H 4.996000 -1.097777 1.806121 0
M  V30 39 H 5.055171 0.661748 1.603524 0
M  V30 40 H 2.733340 0.891114 2.256203 0
M  V30 41 H 3.424157 -1.035969 0.218575 0
M  V30 42 H 0.397948 0.420568 1.931223 0
M  V30 43 H -1.723085 1.223776 2.066803 0
M  V30 44 H -2.751128 -0.180824 1.725934 0
M  V30 45 H -2.717356 1.253196 0.580529 0
M  V30 46 H 0.337988 -2.123941 -3.269441 0
M  V30 47 H -5.490718 -0.310031 -2.080837 0
M  V30 48 H -4.349966 -2.573278 -6.219851 0
M  V30 49 H -1.724838 -2.571344 -5.080508 0
M  V30 50 H 3.092354 -2.077309 2.931492 0
M  V30 51 H 1.505038 -1.312509 3.051720 0
M  V30 END ATOM
M  V30 BEGIN BOND
M  V30 1 1 1 2
M  V30 2 1 2 3
M  V30 3 1 3 4
M  V30 4 1 4 5
M  V30 5 1 5 6
M  V30 6 1 6 7
M  V30 7 1 7 8
M  V30 8 1 8 9
M  V30 9 2 9 10
M  V30 10 1 10 11
M  V30 11 1 11 12
M  V30 12 2 11 13
M  V30 13 1 13 14
M  V30 14 1 14 15
M  V30 15 1 15 16
M  V30 16 2 16 17
M  V30 17 1 17 18
M  V30 18 2 18 19
M  V30 19 1 19 20
M  V30 20 1 20 21
M  V30 21 2 20 22
M  V30 22 1 22 23
M  V30 23 1 22 24
M  V30 24 2 24 25
M  V30 25 1 25 26
M  V30 26 2 14 27
M  V30 27 1 7 28
M  V30 28 1 28 3
M  V30 29 1 27 9
M  V30 30 1 26 16
M  V30 31 1 25 18
M  V30 32 1 1 29
M  V30 33 1 1 30
M  V30 34 1 1 31
M  V30 35 1 2 32
M  V30 36 1 2 33
M  V30 37 1 4 34
M  V30 38 1 4 35
M  V30 39 1 5 36
M  V30 40 1 5 37
M  V30 41 1 6 38
M  V30 42 1 6 39
M  V30 43 1 7 40
M  V30 44 1 8 41
M  V30 45 1 10 42
M  V30 46 1 12 43
M  V30 47 1 12 44
M  V30 48 1 12 45
M  V30 49 1 15 46
M  V30 50 1 19 47
M  V30 51 1 24 48
M  V30 52 1 26 49
M  V30 53 1 28 50
M  V30 54 1 28 51
M  V30 END BOND
M  V30 END CTAB
M  END
>  <Dataset>  (35) 
ChEMBL_Kinases

>  <Ligand_Instance>  (35) 
nan

>  <PDB_ID>  (35) 
nan

>  <Standardized_SMILES>  (35) 
CCN1CCCC(Nc2cc(C)nc(Nc3nc4cc(Cl)c(Cl)cc4[nH]3)n2)C1

>  <Name>  (35) 
nan

>  <Pocket>  (35) 
nan

>  <ATP_Site>  (35) 
nan

>  <Peripheral>  (35) 
nan

>  <Num_H_Atoms_ProtBoundConf>  (35) 
nan

>  <Num_Resolved_Atoms>  (35) 
nan

>  <Num_Not_Resolved_Atoms>  (35) 
nan

$$$$
CHEMBL193922
     RDKit          3D

  0  0  0  0  0  0  0  0  0  0999 V3000
M  V30 BEGIN CTAB
M  V30 COUNTS 40 43 0 0 0
M  V30 BEGIN ATOM
M  V30 1 F 3.650216 -3.181828 3.014770 0
M  V30 2 C 3.066998 -3.780172 1.890736 0
M  V30 3 F 1.947709 -4.451083 2.324138 0
M  V30 4 F 3.946826 -4.688419 1.350617 0
M  V30 5 C 2.737146 -2.723689 0.888046 0
M  V30 6 C 3.233489 -2.652473 -0.391711 0
M  V30 7 N 2.860303 -1.659800 -1.178600 0
M  V30 8 C 2.010118 -0.684018 -0.821741 0
M  V30 9 N 1.673612 0.341341 -1.745824 0
M  V30 10 C 0.798400 1.446177 -1.567775 0
M  V30 11 C 0.606866 2.373287 -2.569323 0
M  V30 12 C -0.234749 3.447367 -2.418977 0
M  V30 13 C -0.931891 3.663231 -1.271994 0
M  V30 14 N -1.802867 4.623294 -0.887228 0
M  V30 15 C -2.194861 4.329769 0.386873 0
M  V30 16 N -1.559843 3.193108 0.768599 0
M  V30 17 C -0.774062 2.763511 -0.240798 0
M  V30 18 C 0.077958 1.697453 -0.425628 0
M  V30 19 N 1.556307 -0.796347 0.426988 0
M  V30 20 C 1.863135 -1.755060 1.312104 0
M  V30 21 N 1.229399 -1.635523 2.580634 0
M  V30 22 C -0.056842 -2.175010 2.833897 0
M  V30 23 C -0.671670 -2.087783 4.076307 0
M  V30 24 C -1.923595 -2.640314 4.216040 0
M  V30 25 C -2.633104 -3.280984 3.222221 0
M  V30 26 C -2.005349 -3.357257 1.995834 0
M  V30 27 Cl -2.768672 -4.137192 0.626861 0
M  V30 28 C -0.750874 -2.815660 1.816816 0
M  V30 29 H 3.912842 -3.418573 -0.700512 0
M  V30 30 H 2.128412 0.281607 -2.690716 0
M  V30 31 H 1.140565 2.252406 -3.514509 0
M  V30 32 H -0.343396 4.145483 -3.247211 0
M  V30 33 H -2.120781 5.441909 -1.456047 0
M  V30 34 H -2.886826 4.900871 0.983754 0
M  V30 35 H 0.142295 1.042705 0.426991 0
M  V30 36 H 1.712726 -1.131685 3.379575 0
M  V30 37 H -0.168838 -1.597728 4.897714 0
M  V30 38 H -2.378955 -2.556302 5.199094 0
M  V30 39 H -3.617005 -3.700670 3.376886 0
M  V30 40 H -0.267663 -2.884394 0.838926 0
M  V30 END ATOM
M  V30 BEGIN BOND
M  V30 1 1 1 2
M  V30 2 1 2 3
M  V30 3 1 2 4
M  V30 4 1 2 5
M  V30 5 2 5 6
M  V30 6 1 6 7
M  V30 7 2 7 8
M  V30 8 1 8 9
M  V30 9 1 9 10
M  V30 10 2 10 11
M  V30 11 1 11 12
M  V30 12 2 12 13
M  V30 13 1 13 14
M  V30 14 1 14 15
M  V30 15 2 15 16
M  V30 16 1 16 17
M  V30 17 2 17 18
M  V30 18 1 8 19
M  V30 19 2 19 20
M  V30 20 1 20 21
M  V30 21 1 21 22
M  V30 22 2 22 23
M  V30 23 1 23 24
M  V30 24 2 24 25
M  V30 25 1 25 26
M  V30 26 1 26 27
M  V30 27 2 26 28
M  V30 28 1 20 5
M  V30 29 1 28 22
M  V30 30 1 18 10
M  V30 31 1 17 13
M  V30 32 1 6 29
M  V30 33 1 9 30
M  V30 34 1 11 31
M  V30 35 1 12 32
M  V30 36 1 14 33
M  V30 37 1 15 34
M  V30 38 1 18 35
M  V30 39 1 21 36
M  V30 40 1 23 37
M  V30 41 1 24 38
M  V30 42 1 25 39
M  V30 43 1 28 40
M  V30 END BOND
M  V30 END CTAB
M  END
>  <Dataset>  (36) 
ChEMBL_Kinases

>  <Ligand_Instance>  (36) 
nan

>  <PDB_ID>  (36) 
nan

>  <Standardized_SMILES>  (36) 
FC(F)(F)c1cnc(Nc2ccc3[nH]cnc3c2)nc1Nc1cccc(Cl)c1

>  <Name>  (36) 
nan

>  <Pocket>  (36) 
nan

>  <ATP_Site>  (36) 
nan

>  <Peripheral>  (36) 
nan

>  <Num_H_Atoms_ProtBoundConf>  (36) 
nan

>  <Num_Resolved_Atoms>  (36) 
nan

>  <Num_Not_Resolved_Atoms>  (36) 
nan

$$$$
CHEMBL1939327
     RDKit          3D

  0  0  0  0  0  0  0  0  0  0999 V3000
M  V30 BEGIN CTAB
M  V30 COUNTS 66 68 0 0 0
M  V30 BEGIN ATOM
M  V30 1 C 0.422910 0.621809 4.174115 0
M  V30 2 C 1.691047 0.147646 4.860194 0
M  V30 3 C 2.123597 -1.191737 4.347276 0
M  V30 4 C 2.395748 -1.118134 2.848044 0
M  V30 5 C 3.497458 -0.117407 2.536857 0
M  V30 6 N 3.646770 -0.156818 1.081453 0
M  V30 7 C 2.629753 0.197747 0.163870 0
M  V30 8 N 2.700686 1.466207 -0.319217 0
M  V30 9 C 1.763018 1.898964 -1.206380 0
M  V30 10 N 1.571778 3.133592 -1.878262 0
M  V30 11 C 0.873951 4.117616 -1.095863 0
M  V30 12 C 0.545251 3.897074 0.223542 0
M  V30 13 C -0.122475 4.786281 1.037394 0
M  V30 14 C -0.494017 5.993945 0.493253 0
M  V30 15 Cl -1.351231 7.155579 1.509812 0
M  V30 16 C -0.180110 6.243720 -0.819986 0
M  V30 17 C 0.488168 5.340028 -1.614390 0
M  V30 18 N 0.788424 1.027715 -1.570115 0
M  V30 19 C 0.691802 -0.229326 -1.111640 0
M  V30 20 N -0.325220 -1.140818 -1.506138 0
M  V30 21 C -1.215555 -1.045822 -2.608755 0
M  V30 22 C -2.569799 -1.597675 -2.479698 0
M  V30 23 N -2.814586 -2.534922 -1.408430 0
M  V30 24 C -2.901115 -3.871399 -1.871473 0
M  V30 25 C -3.226494 -4.896223 -0.850352 0
M  V30 26 N -2.330746 -5.074579 0.229803 0
M  V30 27 C -1.058936 -5.642786 -0.061468 0
M  V30 28 C -2.915530 -5.618414 1.420164 0
M  V30 29 C -2.005495 -2.258115 -0.279942 0
M  V30 30 C -0.562699 -2.346922 -0.720285 0
M  V30 31 N 1.626415 -0.636499 -0.238190 0
M  V30 32 H 0.667539 0.973593 3.153489 0
M  V30 33 H -0.298276 -0.230311 4.128792 0
M  V30 34 H -0.036681 1.421006 4.766795 0
M  V30 35 H 2.485275 0.906645 4.784658 0
M  V30 36 H 1.418110 0.029341 5.938030 0
M  V30 37 H 3.000981 -1.580223 4.891385 0
M  V30 38 H 1.270342 -1.884973 4.516077 0
M  V30 39 H 2.811025 -2.108832 2.525715 0
M  V30 40 H 1.511096 -0.834453 2.283118 0
M  V30 41 H 4.421585 -0.487259 3.020207 0
M  V30 42 H 3.274366 0.892046 2.899124 0
M  V30 43 H 4.464014 -0.429701 0.454993 0
M  V30 44 H 1.856165 3.430289 -2.837554 0
M  V30 45 H 0.811348 2.963574 0.709794 0
M  V30 46 H -0.350140 4.554682 2.071876 0
M  V30 47 H -0.514479 7.224184 -1.164791 0
M  V30 48 H 0.708397 5.585940 -2.642108 0
M  V30 49 H -0.719164 -1.584598 -3.471645 0
M  V30 50 H -1.254974 0.020558 -2.987527 0
M  V30 51 H -3.323367 -0.765674 -2.360442 0
M  V30 52 H -2.912106 -2.130880 -3.414621 0
M  V30 53 H -2.020066 -4.176418 -2.499931 0
M  V30 54 H -3.752623 -3.887733 -2.620904 0
M  V30 55 H -4.269819 -4.727939 -0.481810 0
M  V30 56 H -3.278097 -5.889308 -1.396559 0
M  V30 57 H -0.196003 -5.024269 0.287510 0
M  V30 58 H -0.933261 -5.944910 -1.135754 0
M  V30 59 H -0.939561 -6.612871 0.508902 0
M  V30 60 H -3.600707 -6.465854 1.243225 0
M  V30 61 H -3.428236 -4.820618 2.017987 0
M  V30 62 H -2.055167 -5.959885 2.050739 0
M  V30 63 H -2.200948 -2.817941 0.618881 0
M  V30 64 H -2.162037 -1.167190 -0.037859 0
M  V30 65 H -0.332793 -3.185772 -1.382206 0
M  V30 66 H 0.052278 -2.408873 0.194456 0
M  V30 END ATOM
M  V30 BEGIN BOND
M  V30 1 1 1 2
M  V30 2 1 2 3
M  V30 3 1 3 4
M  V30 4 1 4 5
M  V30 5 1 5 6
M  V30 6 1 6 7
M  V30 7 2 7 8
M  V30 8 1 8 9
M  V30 9 1 9 10
M  V30 10 1 10 11
M  V30 11 2 11 12
M  V30 12 1 12 13
M  V30 13 2 13 14
M  V30 14 1 14 15
M  V30 15 1 14 16
M  V30 16 2 16 17
M  V30 17 2 9 18
M  V30 18 1 18 19
M  V30 19 1 19 20
M  V30 20 1 20 21
M  V30 21 1 21 22
M  V30 22 1 22 23
M  V30 23 1 23 24
M  V30 24 1 24 25
M  V30 25 1 25 26
M  V30 26 1 26 27
M  V30 27 1 26 28
M  V30 28 1 23 29
M  V30 29 1 29 30
M  V30 30 2 19 31
M  V30 31 1 31 7
M  V30 32 1 17 11
M  V30 33 1 30 20
M  V30 34 1 1 32
M  V30 35 1 1 33
M  V30 36 1 1 34
M  V30 37 1 2 35
M  V30 38 1 2 36
M  V30 39 1 3 37
M  V30 40 1 3 38
M  V30 41 1 4 39
M  V30 42 1 4 40
M  V30 43 1 5 41
M  V30 44 1 5 42
M  V30 45 1 6 43
M  V30 46 1 10 44
M  V30 47 1 12 45
M  V30 48 1 13 46
M  V30 49 1 16 47
M  V30 50 1 17 48
M  V30 51 1 21 49
M  V30 52 1 21 50
M  V30 53 1 22 51
M  V30 54 1 22 52
M  V30 55 1 24 53
M  V30 56 1 24 54
M  V30 57 1 25 55
M  V30 58 1 25 56
M  V30 59 1 27 57
M  V30 60 1 27 58
M  V30 61 1 27 59
M  V30 62 1 28 60
M  V30 63 1 28 61
M  V30 64 1 28 62
M  V30 65 1 29 63
M  V30 66 1 29 64
M  V30 67 1 30 65
M  V30 68 1 30 66
M  V30 END BOND
M  V30 END CTAB
M  END
>  <Dataset>  (37) 
ChEMBL_Kinases

>  <Ligand_Instance>  (37) 
nan

>  <PDB_ID>  (37) 
nan

>  <Standardized_SMILES>  (37) 
CCCCCNc1nc(Nc2ccc(Cl)cc2)nc(N2CCN(CCN(C)C)CC2)n1

>  <Name>  (37) 
nan

>  <Pocket>  (37) 
nan

>  <ATP_Site>  (37) 
nan

>  <Peripheral>  (37) 
nan

>  <Num_H_Atoms_ProtBoundConf>  (37) 
nan

>  <Num_Resolved_Atoms>  (37) 
nan

>  <Num_Not_Resolved_Atoms>  (37) 
nan

$$$$
CHEMBL1939328
     RDKit          3D

  0  0  0  0  0  0  0  0  0  0999 V3000
M  V30 BEGIN CTAB
M  V30 COUNTS 68 70 0 0 0
M  V30 BEGIN ATOM
M  V30 1 C 1.380050 0.146749 6.048515 0
M  V30 2 C 1.889727 -0.206516 4.649463 0
M  V30 3 C 3.103583 0.579943 4.292066 0
M  V30 4 C 3.729183 0.281182 2.972560 0
M  V30 5 C 2.909262 0.439059 1.757268 0
M  V30 6 N 1.795232 -0.477294 1.701976 0
M  V30 7 C 0.955256 -0.226176 0.547978 0
M  V30 8 N 1.260789 0.719564 -0.349479 0
M  V30 9 C 0.514533 1.001139 -1.448256 0
M  V30 10 N 0.842194 2.004300 -2.402021 0
M  V30 11 C 0.399649 3.344714 -2.131155 0
M  V30 12 C -0.259970 3.561007 -0.933577 0
M  V30 13 C -0.714901 4.843019 -0.608643 0
M  V30 14 C -0.468161 5.834320 -1.530416 0
M  V30 15 N -0.878844 7.175183 -1.304249 0 CHG=1 VAL=4
M  V30 16 O -1.474468 7.870679 -0.461585 0
M  V30 17 O -1.561178 7.475599 -0.126044 0 CHG=-1 VAL=1
M  V30 18 C 0.181733 5.681832 -2.737537 0
M  V30 19 C 0.618601 4.377751 -3.017990 0
M  V30 20 N -0.614137 0.254784 -1.621671 0
M  V30 21 C -0.972550 -0.697895 -0.767530 0
M  V30 22 N -2.119318 -1.536283 -0.866695 0
M  V30 23 C -2.560867 -2.350084 0.265402 0
M  V30 24 C -3.146249 -3.628998 -0.367338 0
M  V30 25 N -2.402060 -3.887932 -1.524671 0
M  V30 26 C -1.656926 -5.054654 -1.693418 0
M  V30 27 C -0.460573 -5.165299 -0.802241 0
M  V30 28 N -0.800692 -5.225491 0.579003 0
M  V30 29 C -1.439097 -6.491045 0.964152 0
M  V30 30 C 0.264535 -4.860040 1.484737 0
M  V30 31 C -2.607782 -3.033519 -2.655088 0
M  V30 32 C -2.895722 -1.624728 -2.112317 0
M  V30 33 N -0.163240 -0.890984 0.281462 0
M  V30 34 H 0.288558 -0.020279 6.131707 0
M  V30 35 H 1.858439 -0.489847 6.824839 0
M  V30 36 H 1.606392 1.205138 6.241235 0
M  V30 37 H 1.058563 0.127350 3.944651 0
M  V30 38 H 2.032881 -1.281066 4.555912 0
M  V30 39 H 2.834086 1.677024 4.381535 0
M  V30 40 H 3.862100 0.419058 5.113230 0
M  V30 41 H 4.131983 -0.779050 3.048112 0
M  V30 42 H 4.690008 0.879174 2.866799 0
M  V30 43 H 2.547852 1.506998 1.741906 0
M  V30 44 H 3.563158 0.321175 0.841841 0
M  V30 45 H 1.412980 -1.301259 2.249081 0
M  V30 46 H 1.384317 1.794240 -3.275131 0
M  V30 47 H -0.478192 2.817632 -0.172419 0
M  V30 48 H -1.238274 5.117348 0.298880 0
M  V30 49 H 0.367398 6.470042 -3.451774 0
M  V30 50 H 1.139309 4.186411 -3.958466 0
M  V30 51 H -1.762936 -2.644426 0.940005 0
M  V30 52 H -3.402191 -1.859838 0.801364 0
M  V30 53 H -3.209104 -4.434496 0.350443 0
M  V30 54 H -4.207209 -3.407424 -0.681603 0
M  V30 55 H -2.265611 -5.997854 -1.616044 0
M  V30 56 H -1.260198 -5.044770 -2.762958 0
M  V30 57 H 0.159395 -6.056110 -1.099722 0
M  V30 58 H 0.187661 -4.264986 -0.943504 0
M  V30 59 H -0.718414 -7.191335 1.438361 0
M  V30 60 H -2.269802 -6.213910 1.666493 0
M  V30 61 H -1.886434 -6.999453 0.104365 0
M  V30 62 H 0.153998 -3.804420 1.796512 0
M  V30 63 H 1.215128 -5.026161 0.958285 0
M  V30 64 H 0.205225 -5.476820 2.413661 0
M  V30 65 H -3.415837 -3.376936 -3.331254 0
M  V30 66 H -1.624143 -2.939892 -3.192524 0
M  V30 67 H -2.461870 -0.862432 -2.804316 0
M  V30 68 H -3.964032 -1.463574 -1.967392 0
M  V30 END ATOM
M  V30 BEGIN BOND
M  V30 1 1 1 2
M  V30 2 1 2 3
M  V30 3 1 3 4
M  V30 4 1 4 5
M  V30 5 1 5 6
M  V30 6 1 6 7
M  V30 7 2 7 8
M  V30 8 1 8 9
M  V30 9 1 9 10
M  V30 10 1 10 11
M  V30 11 2 11 12
M  V30 12 1 12 13
M  V30 13 2 13 14
M  V30 14 1 14 15
M  V30 15 2 15 16
M  V30 16 1 15 17
M  V30 17 1 14 18
M  V30 18 2 18 19
M  V30 19 2 9 20
M  V30 20 1 20 21
M  V30 21 1 21 22
M  V30 22 1 22 23
M  V30 23 1 23 24
M  V30 24 1 24 25
M  V30 25 1 25 26
M  V30 26 1 26 27
M  V30 27 1 27 28
M  V30 28 1 28 29
M  V30 29 1 28 30
M  V30 30 1 25 31
M  V30 31 1 31 32
M  V30 32 2 21 33
M  V30 33 1 33 7
M  V30 34 1 19 11
M  V30 35 1 32 22
M  V30 36 1 1 34
M  V30 37 1 1 35
M  V30 38 1 1 36
M  V30 39 1 2 37
M  V30 40 1 2 38
M  V30 41 1 3 39
M  V30 42 1 3 40
M  V30 43 1 4 41
M  V30 44 1 4 42
M  V30 45 1 5 43
M  V30 46 1 5 44
M  V30 47 1 6 45
M  V30 48 1 10 46
M  V30 49 1 12 47
M  V30 50 1 13 48
M  V30 51 1 18 49
M  V30 52 1 19 50
M  V30 53 1 23 51
M  V30 54 1 23 52
M  V30 55 1 24 53
M  V30 56 1 24 54
M  V30 57 1 26 55
M  V30 58 1 26 56
M  V30 59 1 27 57
M  V30 60 1 27 58
M  V30 61 1 29 59
M  V30 62 1 29 60
M  V30 63 1 29 61
M  V30 64 1 30 62
M  V30 65 1 30 63
M  V30 66 1 30 64
M  V30 67 1 31 65
M  V30 68 1 31 66
M  V30 69 1 32 67
M  V30 70 1 32 68
M  V30 END BOND
M  V30 END CTAB
M  END
>  <Dataset>  (38) 
ChEMBL_Kinases

>  <Ligand_Instance>  (38) 
nan

>  <PDB_ID>  (38) 
nan

>  <Standardized_SMILES>  (38) 
CCCCCNc1nc(Nc2ccc([N+](=O)[O-])cc2)nc(N2CCN(CCN(C)C)CC2)n1

>  <Name>  (38) 
nan

>  <Pocket>  (38) 
nan

>  <ATP_Site>  (38) 
nan

>  <Peripheral>  (38) 
nan

>  <Num_H_Atoms_ProtBoundConf>  (38) 
nan

>  <Num_Resolved_Atoms>  (38) 
nan

>  <Num_Not_Resolved_Atoms>  (38) 
nan

$$$$
CHEMBL1940248
     RDKit          3D

  0  0  0  0  0  0  0  0  0  0999 V3000
M  V30 BEGIN CTAB
M  V30 COUNTS 58 62 0 0 0
M  V30 BEGIN ATOM
M  V30 1 C 5.520506 -2.213299 3.569970 0
M  V30 2 C 4.470645 -1.131040 3.697063 0
M  V30 3 C 3.458398 -1.658211 4.718945 0
M  V30 4 N 3.804482 -0.931664 2.414277 0
M  V30 5 C 3.785405 0.209073 1.704542 0
M  V30 6 C 3.045871 0.016984 0.527467 0
M  V30 7 C 2.807940 1.079666 -0.424901 0
M  V30 8 O 3.900585 1.638451 -0.772635 0
M  V30 9 C 1.603053 1.614999 -1.037507 0
M  V30 10 C 1.793220 2.551790 -2.029221 0
M  V30 11 N 0.709781 3.118147 -2.639930 0
M  V30 12 C -0.536685 2.784499 -2.297499 0
M  V30 13 C -0.750145 1.861397 -1.320274 0
M  V30 14 N -2.061465 1.474057 -0.919314 0
M  V30 15 C -2.291837 0.525947 0.091599 0 CFG=2
M  V30 16 C -1.753797 -0.845982 -0.063939 0
M  V30 17 C -2.599437 -1.587776 0.981987 0
M  V30 18 O -3.420068 -0.599127 1.576228 0
M  V30 19 C -3.696833 0.269814 0.483736 0 CFG=2
M  V30 20 C -4.527376 -0.535190 -0.415189 0
M  V30 21 C -5.557302 -1.235646 0.230028 0
M  V30 22 C -6.434271 -2.049452 -0.498311 0
M  V30 23 C -6.306513 -2.181588 -1.865593 0
M  V30 24 F -7.147800 -2.966302 -2.588091 0
M  V30 25 C -5.289955 -1.489329 -2.496814 0
M  V30 26 C -4.449393 -0.704174 -1.768447 0
M  V30 27 N 0.328724 1.318253 -0.734455 0
M  V30 28 C 2.665280 -1.296047 0.638604 0
M  V30 29 C 1.920875 -2.044371 -0.240202 0
M  V30 30 N 1.431292 -1.508354 -1.460291 0
M  V30 31 N 1.649455 -3.328878 0.031674 0
M  V30 32 C 2.102766 -3.917729 1.176940 0
M  V30 33 N 2.829271 -3.188931 2.032803 0
M  V30 34 C 3.117195 -1.899036 1.786377 0
M  V30 35 H 6.472743 -1.840540 3.126291 0
M  V30 36 H 5.116569 -3.009279 2.896071 0
M  V30 37 H 5.679301 -2.620166 4.588859 0
M  V30 38 H 4.927975 -0.212492 4.077270 0
M  V30 39 H 3.670329 -1.321825 5.735406 0
M  V30 40 H 2.453671 -1.327900 4.347773 0
M  V30 41 H 3.408160 -2.781809 4.645768 0
M  V30 42 H 4.271760 1.133803 2.005197 0
M  V30 43 H 2.728837 2.928303 -2.419829 0
M  V30 44 H -1.366395 3.259284 -2.808794 0
M  V30 45 H -2.864815 1.927233 -1.408523 0
M  V30 46 H -1.807578 0.918047 1.038726 0
M  V30 47 H -1.796888 -1.295014 -1.049321 0
M  V30 48 H -0.675401 -0.868354 0.262308 0
M  V30 49 H -3.175312 -2.371031 0.477621 0
M  V30 50 H -1.932183 -1.950024 1.782269 0
M  V30 51 H -4.171770 1.182523 0.835777 0
M  V30 52 H -5.742555 -1.197775 1.309220 0
M  V30 53 H -7.229662 -2.588893 0.008764 0
M  V30 54 H -5.168691 -1.574385 -3.557256 0
M  V30 55 H -3.658963 -0.164519 -2.242467 0
M  V30 56 H 0.555758 -1.286162 -1.964508 0
M  V30 57 H 2.080053 -1.174530 -2.222310 0
M  V30 58 H 1.847797 -4.953296 1.333328 0
M  V30 END ATOM
M  V30 BEGIN BOND
M  V30 1 1 1 2
M  V30 2 1 2 3
M  V30 3 1 2 4
M  V30 4 1 4 5
M  V30 5 2 5 6
M  V30 6 1 6 7
M  V30 7 2 7 8
M  V30 8 1 7 9
M  V30 9 2 9 10
M  V30 10 1 10 11
M  V30 11 2 11 12
M  V30 12 1 12 13
M  V30 13 1 13 14
M  V30 14 1 14 15
M  V30 15 1 15 16
M  V30 16 1 16 17
M  V30 17 1 17 18
M  V30 18 1 18 19
M  V30 19 1 19 20
M  V30 20 2 20 21
M  V30 21 1 21 22
M  V30 22 2 22 23
M  V30 23 1 23 24
M  V30 24 1 23 25
M  V30 25 2 25 26
M  V30 26 2 13 27
M  V30 27 1 6 28
M  V30 28 2 28 29
M  V30 29 1 29 30
M  V30 30 1 29 31
M  V30 31 2 31 32
M  V30 32 1 32 33
M  V30 33 2 33 34
M  V30 34 1 34 4
M  V30 35 1 27 9
M  V30 36 1 34 28
M  V30 37 1 19 15
M  V30 38 1 26 20
M  V30 39 1 1 35
M  V30 40 1 1 36
M  V30 41 1 1 37
M  V30 42 1 2 38
M  V30 43 1 3 39
M  V30 44 1 3 40
M  V30 45 1 3 41
M  V30 46 1 5 42
M  V30 47 1 10 43
M  V30 48 1 12 44
M  V30 49 1 14 45
M  V30 50 1 15 46 CFG=1
M  V30 51 1 16 47
M  V30 52 1 16 48
M  V30 53 1 17 49
M  V30 54 1 17 50
M  V30 55 1 19 51 CFG=1
M  V30 56 1 21 52
M  V30 57 1 22 53
M  V30 58 1 25 54
M  V30 59 1 26 55
M  V30 60 1 30 56
M  V30 61 1 30 57
M  V30 62 1 32 58
M  V30 END BOND
M  V30 END CTAB
M  END
>  <Dataset>  (39) 
ChEMBL_Kinases

>  <Ligand_Instance>  (39) 
nan

>  <PDB_ID>  (39) 
nan

>  <Standardized_SMILES>  (39) 
CC(C)n1cc(C(=O)c2cncc(N[C@@H]3CCO[C@@H]3c3ccc(F)cc3)n2)c2c(N)ncnc21

>  <Name>  (39) 
nan

>  <Pocket>  (39) 
nan

>  <ATP_Site>  (39) 
nan

>  <Peripheral>  (39) 
nan

>  <Num_H_Atoms_ProtBoundConf>  (39) 
nan

>  <Num_Resolved_Atoms>  (39) 
nan

>  <Num_Not_Resolved_Atoms>  (39) 
nan

$$$$
CHEMBL193939
     RDKit          3D

  0  0  0  0  0  0  0  0  0  0999 V3000
M  V30 BEGIN CTAB
M  V30 COUNTS 31 32 0 0 0
M  V30 BEGIN ATOM
M  V30 1 N -0.469778 -4.518011 6.016942 0
M  V30 2 C -0.456566 -3.473338 5.052384 0
M  V30 3 O -0.306165 -2.271547 5.448612 0
M  V30 4 N -0.611529 -3.794762 3.668484 0
M  V30 5 C -0.601451 -2.739842 2.658107 0
M  V30 6 S 0.989514 -2.146277 1.802461 0
M  V30 7 C 0.176464 -0.986195 0.840635 0
M  V30 8 C 0.811328 -0.060939 -0.159038 0
M  V30 9 C 1.321436 0.663586 -0.972571 0
M  V30 10 C 1.913833 1.521078 -1.960692 0
M  V30 11 C 1.095147 2.206266 -2.842156 0
M  V30 12 C 1.713494 3.029667 -3.787472 0
M  V30 13 C 3.088520 3.157860 -3.843696 0
M  V30 14 C 3.858113 2.451850 -2.940708 0
M  V30 15 C 3.292097 1.621884 -1.983781 0
M  V30 16 F 4.065224 0.935719 -1.104384 0
M  V30 17 C -1.093359 -1.048013 1.129740 0
M  V30 18 C -1.551237 -1.937870 2.063419 0
M  V30 19 C -2.922537 -2.152981 2.517458 0
M  V30 20 N -3.984790 -1.379136 1.970033 0
M  V30 21 O -3.193071 -2.999315 3.375594 0
M  V30 22 H -1.106614 -4.691356 6.819258 0
M  V30 23 H 0.213881 -5.317172 6.052716 0
M  V30 24 H -0.733785 -4.803155 3.379917 0
M  V30 25 H 0.021194 2.110585 -2.803580 0
M  V30 26 H 1.064739 3.567418 -4.479709 0
M  V30 27 H 3.522586 3.803592 -4.588655 0
M  V30 28 H 4.932828 2.559459 -2.993560 0
M  V30 29 H -1.836089 -0.394377 0.639372 0
M  V30 30 H -4.034122 -1.716586 0.966336 0
M  V30 31 H -4.024669 -1.722407 0.973996 0
M  V30 END ATOM
M  V30 BEGIN BOND
M  V30 1 1 1 2
M  V30 2 2 2 3
M  V30 3 1 2 4
M  V30 4 1 4 5
M  V30 5 1 5 6
M  V30 6 1 6 7
M  V30 7 1 7 8
M  V30 8 3 8 9
M  V30 9 1 9 10
M  V30 10 2 10 11
M  V30 11 1 11 12
M  V30 12 2 12 13
M  V30 13 1 13 14
M  V30 14 2 14 15
M  V30 15 1 15 16
M  V30 16 2 7 17
M  V30 17 1 17 18
M  V30 18 1 18 19
M  V30 19 1 19 20
M  V30 20 2 19 21
M  V30 21 2 18 5
M  V30 22 1 15 10
M  V30 23 1 1 22
M  V30 24 1 1 23
M  V30 25 1 4 24
M  V30 26 1 11 25
M  V30 27 1 12 26
M  V30 28 1 13 27
M  V30 29 1 14 28
M  V30 30 1 17 29
M  V30 31 1 20 30
M  V30 32 1 20 31
M  V30 END BOND
M  V30 END CTAB
M  END
>  <Dataset>  (40) 
ChEMBL_Kinases

>  <Ligand_Instance>  (40) 
nan

>  <PDB_ID>  (40) 
nan

>  <Standardized_SMILES>  (40) 
NC(=O)Nc1sc(C#Cc2ccccc2F)cc1C(N)=O

>  <Name>  (40) 
nan

>  <Pocket>  (40) 
nan

>  <ATP_Site>  (40) 
nan

>  <Peripheral>  (40) 
nan

>  <Num_H_Atoms_ProtBoundConf>  (40) 
nan

>  <Num_Resolved_Atoms>  (40) 
nan

>  <Num_Not_Resolved_Atoms>  (40) 
nan

$$$$
CHEMBL193990
     RDKit          3D

  0  0  0  0  0  0  0  0  0  0999 V3000
M  V30 BEGIN CTAB
M  V30 COUNTS 42 45 0 0 0
M  V30 BEGIN ATOM
M  V30 1 N -0.079323 -8.219124 -0.747226 0
M  V30 2 C 0.101281 -7.496080 -1.961804 0
M  V30 3 O 0.066426 -7.952772 -3.134230 0
M  V30 4 C 0.359903 -6.049452 -1.876956 0
M  V30 5 C 0.541296 -5.307014 -3.025535 0
M  V30 6 C 0.789055 -3.939085 -3.024334 0
M  V30 7 C 0.857015 -3.289691 -1.807512 0
M  V30 8 N 1.082629 -1.978242 -1.514641 0
M  V30 9 C 1.040846 -1.906346 -0.172331 0
M  V30 10 C 1.238786 -0.651399 0.548121 0
M  V30 11 C 1.477616 0.507525 -0.159369 0
M  V30 12 C 1.672821 1.727474 0.473702 0
M  V30 13 C 1.626360 1.782353 1.856485 0
M  V30 14 S 1.849361 3.230278 2.821478 0
M  V30 15 O 2.780459 4.182591 2.096267 0
M  V30 16 O 2.470642 2.908234 4.131307 0
M  V30 17 C 0.297417 4.032403 3.092553 0
M  V30 18 C -0.388812 3.626996 4.233361 0
M  V30 19 C -1.620519 4.230437 4.493077 0
M  V30 20 C -2.150946 5.187798 3.668066 0
M  V30 21 Cl -3.696370 5.899119 4.055455 0
M  V30 22 C -1.446241 5.561515 2.553772 0
M  V30 23 C -0.222333 4.996006 2.249882 0
M  V30 24 C 1.386402 0.627272 2.608658 0
M  V30 25 C 1.199872 -0.556852 1.922018 0
M  V30 26 N 0.800223 -3.113149 0.366644 0
M  V30 27 C 0.675251 -4.029300 -0.637292 0
M  V30 28 C 0.431740 -5.377311 -0.654167 0
M  V30 29 H 0.729406 -8.376670 -0.079322 0
M  V30 30 H -1.099499 -8.434244 -0.845403 0
M  V30 31 H 0.500199 -5.759118 -4.024770 0
M  V30 32 H 0.926192 -3.393628 -3.962937 0
M  V30 33 H 1.244263 -1.249839 -2.241648 0
M  V30 34 H 1.529183 0.544767 -1.258232 0
M  V30 35 H 1.861547 2.657829 -0.020550 0
M  V30 36 H 0.002246 2.871750 4.907996 0
M  V30 37 H -2.150827 3.905356 5.390495 0
M  V30 38 H -1.837434 6.321490 1.872914 0
M  V30 39 H 0.372310 5.261293 1.376872 0
M  V30 40 H 1.340156 0.616929 3.696375 0
M  V30 41 H 1.012186 -1.460807 2.507937 0
M  V30 42 H 0.294112 -5.931837 0.256540 0
M  V30 END ATOM
M  V30 BEGIN BOND
M  V30 1 1 1 2
M  V30 2 2 2 3
M  V30 3 1 2 4
M  V30 4 2 4 5
M  V30 5 1 5 6
M  V30 6 2 6 7
M  V30 7 1 7 8
M  V30 8 1 8 9
M  V30 9 1 9 10
M  V30 10 2 10 11
M  V30 11 1 11 12
M  V30 12 2 12 13
M  V30 13 1 13 14
M  V30 14 2 14 15
M  V30 15 2 14 16
M  V30 16 1 14 17
M  V30 17 2 17 18
M  V30 18 1 18 19
M  V30 19 2 19 20
M  V30 20 1 20 21
M  V30 21 1 20 22
M  V30 22 2 22 23
M  V30 23 1 13 24
M  V30 24 2 24 25
M  V30 25 2 9 26
M  V30 26 1 26 27
M  V30 27 2 27 28
M  V30 28 1 28 4
M  V30 29 1 27 7
M  V30 30 1 25 10
M  V30 31 1 23 17
M  V30 32 1 1 29
M  V30 33 1 1 30
M  V30 34 1 5 31
M  V30 35 1 6 32
M  V30 36 1 8 33
M  V30 37 1 11 34
M  V30 38 1 12 35
M  V30 39 1 18 36
M  V30 40 1 19 37
M  V30 41 1 22 38
M  V30 42 1 23 39
M  V30 43 1 24 40
M  V30 44 1 25 41
M  V30 45 1 28 42
M  V30 END BOND
M  V30 END CTAB
M  END
>  <Dataset>  (41) 
ChEMBL_Kinases

>  <Ligand_Instance>  (41) 
nan

>  <PDB_ID>  (41) 
nan

>  <Standardized_SMILES>  (41) 
NC(=O)c1ccc2[nH]c(-c3ccc(S(=O)(=O)c4ccc(Cl)cc4)cc3)nc2c1

>  <Name>  (41) 
nan

>  <Pocket>  (41) 
nan

>  <ATP_Site>  (41) 
nan

>  <Peripheral>  (41) 
nan

>  <Num_H_Atoms_ProtBoundConf>  (41) 
nan

>  <Num_Resolved_Atoms>  (41) 
nan

>  <Num_Not_Resolved_Atoms>  (41) 
nan

$$$$
CHEMBL194009
     RDKit          3D

  0  0  0  0  0  0  0  0  0  0999 V3000
M  V30 BEGIN CTAB
M  V30 COUNTS 27 28 0 0 0
M  V30 BEGIN ATOM
M  V30 1 N 1.196019 -1.224651 4.079620 0
M  V30 2 C 1.342449 -1.880150 2.801226 0
M  V30 3 N 1.527990 -3.199560 3.034666 0
M  V30 4 C 1.691659 -4.025407 1.958814 0
M  V30 5 C 1.665886 -3.512791 0.678978 0
M  V30 6 C 1.475034 -2.163829 0.471432 0
M  V30 7 C 1.304839 -1.288046 1.522933 0
M  V30 8 O 1.103635 0.035720 1.680010 0
M  V30 9 C 0.979741 1.092317 0.809535 0
M  V30 10 C -0.138649 1.025810 -0.155015 0
M  V30 11 C -0.167878 0.550306 -1.447643 0
M  V30 12 C -1.327405 0.564778 -2.192224 0
M  V30 13 C -2.516313 1.048385 -1.701751 0
M  V30 14 C -2.528095 1.533522 -0.412024 0
M  V30 15 C -1.372542 1.508117 0.301086 0
M  V30 16 H 0.373609 -0.974108 4.694564 0
M  V30 17 H 2.137741 -0.939458 4.470104 0
M  V30 18 H 1.850500 -5.102323 1.958039 0
M  V30 19 H 1.784643 -4.079564 -0.224399 0
M  V30 20 H 1.435824 -1.640729 -0.450580 0
M  V30 21 H 1.915492 1.332918 0.245525 0
M  V30 22 H 0.830166 2.017354 1.447513 0
M  V30 23 H 0.786518 0.184179 -1.801625 0
M  V30 24 H -1.230351 0.161717 -3.204804 0
M  V30 25 H -3.359545 1.009057 -2.376533 0
M  V30 26 H -3.452808 1.912004 -0.024664 0
M  V30 27 H -1.462499 1.910067 1.315449 0
M  V30 END ATOM
M  V30 BEGIN BOND
M  V30 1 1 1 2
M  V30 2 2 2 3
M  V30 3 1 3 4
M  V30 4 2 4 5
M  V30 5 1 5 6
M  V30 6 2 6 7
M  V30 7 1 7 8
M  V30 8 1 8 9
M  V30 9 1 9 10
M  V30 10 2 10 11
M  V30 11 1 11 12
M  V30 12 2 12 13
M  V30 13 1 13 14
M  V30 14 2 14 15
M  V30 15 1 7 2
M  V30 16 1 15 10
M  V30 17 1 1 16
M  V30 18 1 1 17
M  V30 19 1 4 18
M  V30 20 1 5 19
M  V30 21 1 6 20
M  V30 22 1 9 21
M  V30 23 1 9 22
M  V30 24 1 11 23
M  V30 25 1 12 24
M  V30 26 1 13 25
M  V30 27 1 14 26
M  V30 28 1 15 27
M  V30 END BOND
M  V30 END CTAB
M  END
>  <Dataset>  (42) 
ChEMBL_Kinases

>  <Ligand_Instance>  (42) 
nan

>  <PDB_ID>  (42) 
nan

>  <Standardized_SMILES>  (42) 
Nc1ncccc1OCc1ccccc1

>  <Name>  (42) 
nan

>  <Pocket>  (42) 
nan

>  <ATP_Site>  (42) 
nan

>  <Peripheral>  (42) 
nan

>  <Num_H_Atoms_ProtBoundConf>  (42) 
nan

>  <Num_Resolved_Atoms>  (42) 
nan

>  <Num_Not_Resolved_Atoms>  (42) 
nan

$$$$
CHEMBL1940243
     RDKit          3D

  0  0  0  0  0  0  0  0  0  0999 V3000
M  V30 BEGIN CTAB
M  V30 COUNTS 40 42 0 0 0
M  V30 BEGIN ATOM
M  V30 1 C -0.821755 -5.081722 1.641272 0
M  V30 2 N 0.603070 -5.388662 1.476067 0
M  V30 3 C 1.466741 -4.300407 1.750333 0
M  V30 4 C 2.567221 -4.512691 2.540708 0
M  V30 5 N 3.412790 -3.520762 2.836993 0
M  V30 6 C 3.117168 -2.290490 2.310798 0
M  V30 7 C 2.008563 -2.046088 1.508076 0
M  V30 8 C 2.005224 -0.661673 1.119086 0
M  V30 9 O 3.015402 0.091499 1.302428 0
M  V30 10 C 1.040724 0.217050 0.501687 0
M  V30 11 C 1.161759 1.068236 -0.606521 0
M  V30 12 N -0.039443 1.682572 -0.815177 0
M  V30 13 C -0.355234 2.651115 -1.867823 0
M  V30 14 C -1.435259 3.601144 -1.362997 0
M  V30 15 C 0.875215 3.559532 -2.084357 0
M  V30 16 C -0.963442 1.299896 0.081624 0
M  V30 17 N -2.242928 1.598750 0.314778 0
M  V30 18 C -2.922750 1.047230 1.325552 0
M  V30 19 N -2.284973 0.171803 2.115235 0
M  V30 20 C -0.976827 -0.156146 1.905469 0
M  V30 21 N -0.510956 -1.077716 2.859111 0
M  V30 22 C -0.262606 0.407251 0.865966 0
M  V30 23 N 1.230673 -3.083865 1.269518 0
M  V30 24 H -0.894310 -4.428425 2.542830 0
M  V30 25 H -1.407231 -6.010270 1.763720 0
M  V30 26 H -1.176031 -4.501421 0.773452 0
M  V30 27 H 1.044609 -6.293567 1.185169 0
M  V30 28 H 2.710532 -5.532487 2.916902 0
M  V30 29 H 3.904228 -1.610113 2.656212 0
M  V30 30 H 2.064664 1.189761 -1.188452 0
M  V30 31 H -0.651436 2.176086 -2.810925 0
M  V30 32 H -2.425454 3.179931 -1.511936 0
M  V30 33 H -1.294540 4.615798 -1.786077 0
M  V30 34 H -1.242482 3.691555 -0.258917 0
M  V30 35 H 0.542789 4.484156 -2.554292 0
M  V30 36 H 1.668989 3.041569 -2.646735 0
M  V30 37 H 1.277259 3.747779 -1.051712 0
M  V30 38 H -3.970557 1.316975 1.481425 0
M  V30 39 H 0.110882 -1.326596 3.650502 0
M  V30 40 H 0.253190 -0.865031 3.556838 0
M  V30 END ATOM
M  V30 BEGIN BOND
M  V30 1 1 1 2
M  V30 2 1 2 3
M  V30 3 2 3 4
M  V30 4 1 4 5
M  V30 5 2 5 6
M  V30 6 1 6 7
M  V30 7 1 7 8
M  V30 8 2 8 9
M  V30 9 1 8 10
M  V30 10 2 10 11
M  V30 11 1 11 12
M  V30 12 1 12 13
M  V30 13 1 13 14
M  V30 14 1 13 15
M  V30 15 1 12 16
M  V30 16 2 16 17
M  V30 17 1 17 18
M  V30 18 2 18 19
M  V30 19 1 19 20
M  V30 20 1 20 21
M  V30 21 2 20 22
M  V30 22 2 7 23
M  V30 23 1 23 3
M  V30 24 1 22 10
M  V30 25 1 22 16
M  V30 26 1 1 24
M  V30 27 1 1 25
M  V30 28 1 1 26
M  V30 29 1 2 27
M  V30 30 1 4 28
M  V30 31 1 6 29
M  V30 32 1 11 30
M  V30 33 1 13 31
M  V30 34 1 14 32
M  V30 35 1 14 33
M  V30 36 1 14 34
M  V30 37 1 15 35
M  V30 38 1 15 36
M  V30 39 1 15 37
M  V30 40 1 18 38
M  V30 41 1 21 39
M  V30 42 1 21 40
M  V30 END BOND
M  V30 END CTAB
M  END
>  <Dataset>  (43) 
ChEMBL_Kinases

>  <Ligand_Instance>  (43) 
nan

>  <PDB_ID>  (43) 
nan

>  <Standardized_SMILES>  (43) 
CNc1cncc(C(=O)c2cn(C(C)C)c3ncnc(N)c23)n1

>  <Name>  (43) 
nan

>  <Pocket>  (43) 
nan

>  <ATP_Site>  (43) 
nan

>  <Peripheral>  (43) 
nan

>  <Num_H_Atoms_ProtBoundConf>  (43) 
nan

>  <Num_Resolved_Atoms>  (43) 
nan

>  <Num_Not_Resolved_Atoms>  (43) 
nan

$$$$
CHEMBL1940244
     RDKit          3D

  0  0  0  0  0  0  0  0  0  0999 V3000
M  V30 BEGIN CTAB
M  V30 COUNTS 52 55 0 0 0
M  V30 BEGIN ATOM
M  V30 1 C -0.864749 -2.078316 3.212339 0
M  V30 2 C 0.556300 -2.601920 3.199660 0
M  V30 3 C 1.432163 -1.854253 4.159741 0
M  V30 4 N 1.048834 -2.496338 1.827948 0
M  V30 5 C 1.704643 -1.473857 1.219005 0
M  V30 6 C 1.966507 -1.808244 -0.101339 0
M  V30 7 C 2.613882 -1.002248 -1.125642 0
M  V30 8 O 3.422901 -1.406659 -1.990045 0
M  V30 9 C 2.304891 0.436182 -1.173614 0
M  V30 10 C 2.712902 1.270869 -2.213081 0
M  V30 11 N 2.459382 2.589318 -2.239734 0
M  V30 12 C 1.781056 3.139839 -1.219331 0
M  V30 13 C 1.371523 2.334604 -0.186448 0
M  V30 14 N 0.655807 2.737137 0.985673 0
M  V30 15 C -0.588342 2.054681 1.252953 0
M  V30 16 C -1.611743 2.229662 0.164534 0
M  V30 17 C -2.872987 1.500801 0.481342 0
M  V30 18 C -2.865752 0.181439 0.011900 0
M  V30 19 C -3.920154 -0.669164 0.194937 0
M  V30 20 C -5.024062 -0.175119 0.875036 0
M  V30 21 N -5.026153 1.092289 1.323950 0
M  V30 22 C -3.999556 1.924594 1.147438 0
M  V30 23 N 1.625032 1.014390 -0.161192 0
M  V30 24 C 1.447144 -3.069252 -0.274335 0
M  V30 25 C 1.399790 -3.931280 -1.352423 0
M  V30 26 N 1.952541 -3.594476 -2.614163 0
M  V30 27 N 0.808491 -5.124407 -1.174302 0
M  V30 28 C 0.258996 -5.548813 -0.035075 0
M  V30 29 N 0.313834 -4.701041 0.999506 0
M  V30 30 C 0.885123 -3.488099 0.912487 0
M  V30 31 H -0.951031 -1.296890 2.428010 0
M  V30 32 H -1.553440 -2.925880 2.991041 0
M  V30 33 H -1.050871 -1.702283 4.216348 0
M  V30 34 H 0.515611 -3.666110 3.488646 0
M  V30 35 H 1.769523 -0.892155 3.770811 0
M  V30 36 H 0.847614 -1.759679 5.103543 0
M  V30 37 H 2.317232 -2.479429 4.367588 0
M  V30 38 H 1.967881 -0.554128 1.716180 0
M  V30 39 H 3.252048 0.828079 -3.030701 0
M  V30 40 H 1.500900 4.177923 -1.093631 0
M  V30 41 H 1.068928 3.489297 1.582272 0
M  V30 42 H -0.403885 0.959496 1.360986 0
M  V30 43 H -1.021612 2.385286 2.221385 0
M  V30 44 H -1.881376 3.298855 0.101411 0
M  V30 45 H -1.215095 1.918493 -0.809276 0
M  V30 46 H -2.023161 -0.249305 -0.523242 0
M  V30 47 H -3.893277 -1.701132 -0.180773 0
M  V30 48 H -5.853277 -0.849739 1.015905 0
M  V30 49 H -3.920085 2.953100 1.474765 0
M  V30 50 H 2.816631 -3.823082 -3.150015 0
M  V30 51 H 1.296348 -2.955271 -3.099714 0
M  V30 52 H -0.169510 -6.534310 -0.075576 0
M  V30 END ATOM
M  V30 BEGIN BOND
M  V30 1 1 1 2
M  V30 2 1 2 3
M  V30 3 1 2 4
M  V30 4 1 4 5
M  V30 5 2 5 6
M  V30 6 1 6 7
M  V30 7 2 7 8
M  V30 8 1 7 9
M  V30 9 2 9 10
M  V30 10 1 10 11
M  V30 11 2 11 12
M  V30 12 1 12 13
M  V30 13 1 13 14
M  V30 14 1 14 15
M  V30 15 1 15 16
M  V30 16 1 16 17
M  V30 17 2 17 18
M  V30 18 1 18 19
M  V30 19 2 19 20
M  V30 20 1 20 21
M  V30 21 2 21 22
M  V30 22 2 13 23
M  V30 23 1 6 24
M  V30 24 2 24 25
M  V30 25 1 25 26
M  V30 26 1 25 27
M  V30 27 2 27 28
M  V30 28 1 28 29
M  V30 29 2 29 30
M  V30 30 1 30 4
M  V30 31 1 23 9
M  V30 32 1 30 24
M  V30 33 1 22 17
M  V30 34 1 1 31
M  V30 35 1 1 32
M  V30 36 1 1 33
M  V30 37 1 2 34
M  V30 38 1 3 35
M  V30 39 1 3 36
M  V30 40 1 3 37
M  V30 41 1 5 38
M  V30 42 1 10 39
M  V30 43 1 12 40
M  V30 44 1 14 41
M  V30 45 1 15 42
M  V30 46 1 15 43
M  V30 47 1 16 44
M  V30 48 1 16 45
M  V30 49 1 18 46
M  V30 50 1 19 47
M  V30 51 1 20 48
M  V30 52 1 22 49
M  V30 53 1 26 50
M  V30 54 1 26 51
M  V30 55 1 28 52
M  V30 END BOND
M  V30 END CTAB
M  END
>  <Dataset>  (44) 
ChEMBL_Kinases

>  <Ligand_Instance>  (44) 
nan

>  <PDB_ID>  (44) 
nan

>  <Standardized_SMILES>  (44) 
CC(C)n1cc(C(=O)c2cncc(NCCc3cccnc3)n2)c2c(N)ncnc21

>  <Name>  (44) 
nan

>  <Pocket>  (44) 
nan

>  <ATP_Site>  (44) 
nan

>  <Peripheral>  (44) 
nan

>  <Num_H_Atoms_ProtBoundConf>  (44) 
nan

>  <Num_Resolved_Atoms>  (44) 
nan

>  <Num_Not_Resolved_Atoms>  (44) 
nan

$$$$
CHEMBL1940245
     RDKit          3D

  0  0  0  0  0  0  0  0  0  0999 V3000
M  V30 BEGIN CTAB
M  V30 COUNTS 60 64 0 0 0
M  V30 BEGIN ATOM
M  V30 1 C -0.525440 -0.790796 4.908117 0
M  V30 2 C 0.511834 -1.701974 4.298069 0
M  V30 3 C -0.153005 -2.974616 3.848223 0
M  V30 4 N 1.208320 -1.013900 3.230844 0
M  V30 5 C 0.814920 0.014860 2.460541 0
M  V30 6 C 1.786492 0.382003 1.553546 0
M  V30 7 C 1.790343 1.434531 0.547378 0
M  V30 8 O 2.851491 2.107967 0.551872 0
M  V30 9 C 0.749918 1.764900 -0.406452 0
M  V30 10 C 1.019805 2.809534 -1.263239 0
M  V30 11 N 0.091596 3.158304 -2.169017 0
M  V30 12 C -1.075139 2.509651 -2.244910 0
M  V30 13 C -1.393583 1.443236 -1.395977 0
M  V30 14 N -2.647713 0.748085 -1.449414 0
M  V30 15 C -3.139496 -0.358737 -0.704671 0 CFG=2
M  V30 16 C -2.946838 -0.246161 0.795594 0
M  V30 17 C -2.823403 -1.662904 1.303450 0
M  V30 18 C -2.427288 -2.514283 0.115366 0
M  V30 19 C -2.699915 -1.729564 -1.130991 0 CFG=2
M  V30 20 C -1.675282 -1.783023 -2.161508 0
M  V30 21 C -2.059083 -1.977069 -3.497343 0
M  V30 22 C -1.177750 -2.065269 -4.570248 0
M  V30 23 C 0.191355 -1.953067 -4.303066 0
M  V30 24 C 0.645503 -1.761612 -3.017488 0
M  V30 25 C -0.309292 -1.689347 -2.034743 0
M  V30 26 N -0.415637 1.156492 -0.520701 0
M  V30 27 C 2.823381 -0.511169 1.826840 0
M  V30 28 C 4.080453 -0.709267 1.300614 0
M  V30 29 N 4.553968 0.106032 0.237947 0
M  V30 30 N 4.909019 -1.667910 1.753586 0
M  V30 31 C 4.529496 -2.475843 2.750317 0
M  V30 32 N 3.309756 -2.319385 3.295098 0
M  V30 33 C 2.466153 -1.349234 2.839524 0
M  V30 34 H -1.215546 -1.360343 5.561465 0
M  V30 35 H 0.043170 -0.103693 5.595331 0
M  V30 36 H -1.107557 -0.246979 4.164187 0
M  V30 37 H 1.278962 -1.991606 5.074369 0
M  V30 38 H -1.248796 -2.987398 4.051307 0
M  V30 39 H 0.349363 -3.897372 4.195312 0
M  V30 40 H -0.088108 -3.002528 2.724417 0
M  V30 41 H -0.155938 0.509886 2.533553 0
M  V30 42 H 1.921127 3.415534 -1.307587 0
M  V30 43 H -1.799555 2.814926 -2.985310 0
M  V30 44 H -3.280059 1.177964 -2.197024 0
M  V30 45 H -4.289111 -0.291963 -0.797886 0
M  V30 46 H -2.063308 0.324843 1.077678 0
M  V30 47 H -3.807015 0.217762 1.316226 0
M  V30 48 H -2.089490 -1.684532 2.130719 0
M  V30 49 H -3.799248 -1.989827 1.757126 0
M  V30 50 H -1.391821 -2.833039 0.264049 0
M  V30 51 H -3.071126 -3.437922 0.179026 0
M  V30 52 H -3.617337 -2.213390 -1.613961 0
M  V30 53 H -3.123333 -2.070115 -3.752167 0
M  V30 54 H -1.564603 -2.216106 -5.567247 0
M  V30 55 H 0.903850 -2.014318 -5.096228 0
M  V30 56 H 1.681433 -1.671344 -2.775595 0
M  V30 57 H 0.051476 -1.542588 -1.021747 0
M  V30 58 H 4.004604 -0.143105 -0.631080 0
M  V30 59 H 5.312593 0.734070 0.581703 0
M  V30 60 H 5.257108 -3.222244 3.057073 0
M  V30 END ATOM
M  V30 BEGIN BOND
M  V30 1 1 1 2
M  V30 2 1 2 3
M  V30 3 1 2 4
M  V30 4 1 4 5
M  V30 5 2 5 6
M  V30 6 1 6 7
M  V30 7 2 7 8
M  V30 8 1 7 9
M  V30 9 2 9 10
M  V30 10 1 10 11
M  V30 11 2 11 12
M  V30 12 1 12 13
M  V30 13 1 13 14
M  V30 14 1 14 15
M  V30 15 1 15 16
M  V30 16 1 16 17
M  V30 17 1 17 18
M  V30 18 1 18 19
M  V30 19 1 19 20
M  V30 20 2 20 21
M  V30 21 1 21 22
M  V30 22 2 22 23
M  V30 23 1 23 24
M  V30 24 2 24 25
M  V30 25 2 13 26
M  V30 26 1 6 27
M  V30 27 2 27 28
M  V30 28 1 28 29
M  V30 29 1 28 30
M  V30 30 2 30 31
M  V30 31 1 31 32
M  V30 32 2 32 33
M  V30 33 1 33 4
M  V30 34 1 26 9
M  V30 35 1 33 27
M  V30 36 1 19 15
M  V30 37 1 25 20
M  V30 38 1 1 34
M  V30 39 1 1 35
M  V30 40 1 1 36
M  V30 41 1 2 37
M  V30 42 1 3 38
M  V30 43 1 3 39
M  V30 44 1 3 40
M  V30 45 1 5 41
M  V30 46 1 10 42
M  V30 47 1 12 43
M  V30 48 1 14 44
M  V30 49 1 15 45 CFG=1
M  V30 50 1 16 46
M  V30 51 1 16 47
M  V30 52 1 17 48
M  V30 53 1 17 49
M  V30 54 1 18 50
M  V30 55 1 18 51
M  V30 56 1 19 52 CFG=3
M  V30 57 1 21 53
M  V30 58 1 22 54
M  V30 59 1 23 55
M  V30 60 1 24 56
M  V30 61 1 25 57
M  V30 62 1 29 58
M  V30 63 1 29 59
M  V30 64 1 31 60
M  V30 END BOND
M  V30 END CTAB
M  END
>  <Dataset>  (45) 
ChEMBL_Kinases

>  <Ligand_Instance>  (45) 
nan

>  <PDB_ID>  (45) 
nan

>  <Standardized_SMILES>  (45) 
CC(C)n1cc(C(=O)c2cncc(N[C@@H]3CCC[C@@H]3c3ccccc3)n2)c2c(N)ncnc21

>  <Name>  (45) 
nan

>  <Pocket>  (45) 
nan

>  <ATP_Site>  (45) 
nan

>  <Peripheral>  (45) 
nan

>  <Num_H_Atoms_ProtBoundConf>  (45) 
nan

>  <Num_Resolved_Atoms>  (45) 
nan

>  <Num_Not_Resolved_Atoms>  (45) 
nan

$$$$
CHEMBL1940246
     RDKit          3D

  0  0  0  0  0  0  0  0  0  0999 V3000
M  V30 BEGIN CTAB
M  V30 COUNTS 60 64 0 0 0
M  V30 BEGIN ATOM
M  V30 1 C 4.069420 -3.394365 3.267834 0
M  V30 2 C 2.996577 -3.446336 2.218328 0
M  V30 3 C 1.902178 -4.355240 2.743423 0
M  V30 4 N 2.468365 -2.131888 1.911067 0
M  V30 5 C 2.715573 -1.438191 0.802659 0
M  V30 6 C 2.047539 -0.213184 0.830438 0
M  V30 7 C 2.072888 0.761360 -0.246811 0
M  V30 8 O 3.287080 1.013243 -0.564795 0
M  V30 9 C 1.039730 1.456213 -0.984157 0
M  V30 10 C 1.458036 2.431007 -1.862158 0
M  V30 11 N 0.599041 3.119257 -2.599659 0
M  V30 12 C -0.698831 2.899456 -2.524332 0
M  V30 13 C -1.178752 1.934820 -1.662377 0
M  V30 14 N -2.504031 1.526598 -1.380079 0
M  V30 15 C -3.187597 0.580934 -0.589888 0 CFG=2
M  V30 16 C -2.803737 0.524948 0.869182 0
M  V30 17 C -3.694472 -0.591849 1.368112 0
M  V30 18 C -3.603886 -1.602288 0.246429 0
M  V30 19 C -3.210665 -0.839602 -1.010690 0 CFG=2
M  V30 20 C -2.002435 -1.409062 -1.580970 0
M  V30 21 C -1.931780 -1.494315 -2.975497 0
M  V30 22 C -0.856125 -2.032970 -3.691906 0
M  V30 23 C 0.224952 -2.521731 -2.989535 0
M  V30 24 F 1.274388 -3.044857 -3.623727 0
M  V30 25 C 0.191852 -2.455044 -1.612518 0
M  V30 26 C -0.882123 -1.918618 -0.935914 0
M  V30 27 N -0.281631 1.261872 -0.935572 0
M  V30 28 C 1.406392 -0.273815 2.044267 0
M  V30 29 C 0.592533 0.647625 2.649375 0
M  V30 30 N 0.293567 1.891812 2.051174 0
M  V30 31 N 0.053647 0.418719 3.853974 0
M  V30 32 C 0.303104 -0.741260 4.511008 0
M  V30 33 N 1.094359 -1.646711 3.934936 0
M  V30 34 C 1.656128 -1.440771 2.711132 0
M  V30 35 H 3.956230 -2.477542 3.877957 0
M  V30 36 H 5.073331 -3.374001 2.775018 0
M  V30 37 H 4.064012 -4.281092 3.932687 0
M  V30 38 H 3.394054 -3.909046 1.313222 0
M  V30 39 H 1.455293 -3.996621 3.690190 0
M  V30 40 H 1.142967 -4.504005 1.944238 0
M  V30 41 H 2.382603 -5.345209 2.887390 0
M  V30 42 H 3.358975 -1.800615 -0.006649 0
M  V30 43 H 2.496806 2.718349 -2.027620 0
M  V30 44 H -1.496361 3.405161 -3.083169 0
M  V30 45 H -3.125725 2.160619 -1.975267 0
M  V30 46 H -4.303966 0.876797 -0.537430 0
M  V30 47 H -3.015666 1.479827 1.393860 0
M  V30 48 H -1.753624 0.200229 1.002287 0
M  V30 49 H -4.764779 -0.266711 1.420338 0
M  V30 50 H -3.347095 -1.003031 2.335808 0
M  V30 51 H -2.852174 -2.353761 0.553022 0
M  V30 52 H -4.605006 -2.101243 0.098957 0
M  V30 53 H -4.012409 -0.941425 -1.814082 0
M  V30 54 H -2.746070 -1.129283 -3.595645 0
M  V30 55 H -0.880817 -2.061143 -4.771717 0
M  V30 56 H 1.043486 -2.842513 -1.094735 0
M  V30 57 H -0.918561 -1.862850 0.143133 0
M  V30 58 H 0.292449 2.804382 2.583054 0
M  V30 59 H 0.270216 2.834448 2.501813 0
M  V30 60 H -0.062781 -1.050455 5.475453 0
M  V30 END ATOM
M  V30 BEGIN BOND
M  V30 1 1 1 2
M  V30 2 1 2 3
M  V30 3 1 2 4
M  V30 4 1 4 5
M  V30 5 2 5 6
M  V30 6 1 6 7
M  V30 7 2 7 8
M  V30 8 1 7 9
M  V30 9 2 9 10
M  V30 10 1 10 11
M  V30 11 2 11 12
M  V30 12 1 12 13
M  V30 13 1 13 14
M  V30 14 1 14 15
M  V30 15 1 15 16
M  V30 16 1 16 17
M  V30 17 1 17 18
M  V30 18 1 18 19
M  V30 19 1 19 20
M  V30 20 2 20 21
M  V30 21 1 21 22
M  V30 22 2 22 23
M  V30 23 1 23 24
M  V30 24 1 23 25
M  V30 25 2 25 26
M  V30 26 2 13 27
M  V30 27 1 6 28
M  V30 28 2 28 29
M  V30 29 1 29 30
M  V30 30 1 29 31
M  V30 31 2 31 32
M  V30 32 1 32 33
M  V30 33 2 33 34
M  V30 34 1 34 4
M  V30 35 1 27 9
M  V30 36 1 34 28
M  V30 37 1 19 15
M  V30 38 1 26 20
M  V30 39 1 1 35
M  V30 40 1 1 36
M  V30 41 1 1 37
M  V30 42 1 2 38
M  V30 43 1 3 39
M  V30 44 1 3 40
M  V30 45 1 3 41
M  V30 46 1 5 42
M  V30 47 1 10 43
M  V30 48 1 12 44
M  V30 49 1 14 45
M  V30 50 1 15 46 CFG=1
M  V30 51 1 16 47
M  V30 52 1 16 48
M  V30 53 1 17 49
M  V30 54 1 17 50
M  V30 55 1 18 51
M  V30 56 1 18 52
M  V30 57 1 19 53 CFG=3
M  V30 58 1 21 54
M  V30 59 1 22 55
M  V30 60 1 25 56
M  V30 61 1 26 57
M  V30 62 1 30 58
M  V30 63 1 30 59
M  V30 64 1 32 60
M  V30 END BOND
M  V30 END CTAB
M  END
>  <Dataset>  (46) 
ChEMBL_Kinases

>  <Ligand_Instance>  (46) 
nan

>  <PDB_ID>  (46) 
nan

>  <Standardized_SMILES>  (46) 
CC(C)n1cc(C(=O)c2cncc(N[C@@H]3CCC[C@@H]3c3ccc(F)cc3)n2)c2c(N)ncnc21

>  <Name>  (46) 
nan

>  <Pocket>  (46) 
nan

>  <ATP_Site>  (46) 
nan

>  <Peripheral>  (46) 
nan

>  <Num_H_Atoms_ProtBoundConf>  (46) 
nan

>  <Num_Resolved_Atoms>  (46) 
nan

>  <Num_Not_Resolved_Atoms>  (46) 
nan

$$$$
CHEMBL1940247
     RDKit          3D

  0  0  0  0  0  0  0  0  0  0999 V3000
M  V30 BEGIN CTAB
M  V30 COUNTS 63 67 0 0 0
M  V30 BEGIN ATOM
M  V30 1 C 2.883290 0.557433 5.700665 0
M  V30 2 C 3.427472 0.227414 4.320285 0
M  V30 3 C 3.568921 -1.271175 4.230187 0
M  V30 4 N 2.525061 0.764014 3.319401 0
M  V30 5 C 2.976533 0.962629 2.063962 0
M  V30 6 C 1.926654 1.477680 1.306423 0
M  V30 7 C 1.912447 1.816315 -0.097058 0
M  V30 8 O 2.908382 2.591252 -0.315847 0
M  V30 9 C 1.059772 1.478326 -1.222230 0
M  V30 10 C 1.275990 2.231281 -2.356407 0
M  V30 11 N 0.556535 2.008199 -3.485282 0
M  V30 12 C -0.367532 1.023749 -3.436109 0
M  V30 13 C -0.601477 0.258385 -2.317720 0
M  V30 14 N -1.610817 -0.783000 -2.303399 0
M  V30 15 C -2.717871 -0.167828 -1.601020 0
M  V30 16 C -1.361604 -2.067144 -2.905290 0 CFG=2
M  V30 17 C -2.446497 -2.417747 -3.892406 0
M  V30 18 C -2.896145 -3.804370 -3.520917 0
M  V30 19 C -1.753288 -4.364220 -2.748309 0
M  V30 20 C -1.137333 -3.219410 -2.000801 0 CFG=2
M  V30 21 C -1.491770 -3.075548 -0.605511 0
M  V30 22 C -0.474425 -2.932478 0.347842 0
M  V30 23 C -0.716851 -2.797879 1.721707 0
M  V30 24 C -2.020120 -2.805056 2.173791 0
M  V30 25 F -2.250331 -2.675242 3.492948 0
M  V30 26 C -3.066853 -2.942143 1.291151 0
M  V30 27 C -2.748276 -3.069130 -0.041903 0
M  V30 28 N 0.124400 0.515466 -1.246429 0
M  V30 29 C 0.879588 1.556545 2.191652 0
M  V30 30 C -0.429161 1.977020 2.136541 0
M  V30 31 N -0.949101 2.478533 0.924530 0
M  V30 32 N -1.289063 1.967877 3.179731 0
M  V30 33 C -0.868113 1.525196 4.363144 0
M  V30 34 N 0.391889 1.104828 4.479556 0
M  V30 35 C 1.228699 1.119269 3.444148 0
M  V30 36 H 3.647471 0.196488 6.424519 0
M  V30 37 H 2.679402 1.625471 5.780013 0
M  V30 38 H 1.953876 -0.065215 5.831148 0
M  V30 39 H 4.441141 0.699634 4.208934 0
M  V30 40 H 3.309581 -1.620532 3.212741 0
M  V30 41 H 2.888235 -1.786369 4.955195 0
M  V30 42 H 4.615587 -1.594190 4.445378 0
M  V30 43 H 3.947647 0.788680 1.629117 0
M  V30 44 H 1.992238 3.036556 -2.483995 0
M  V30 45 H -0.966950 0.812141 -4.321919 0
M  V30 46 H -2.417601 0.048375 -0.554667 0
M  V30 47 H -3.628136 -0.789406 -1.563631 0
M  V30 48 H -3.034177 0.793761 -2.061069 0
M  V30 49 H -0.437199 -1.928063 -3.561133 0
M  V30 50 H -2.068867 -2.460385 -4.941091 0
M  V30 51 H -3.291494 -1.685914 -3.842623 0
M  V30 52 H -3.094624 -4.417137 -4.452667 0
M  V30 53 H -3.875151 -3.806643 -2.996184 0
M  V30 54 H -1.022241 -4.730147 -3.530062 0
M  V30 55 H -1.976384 -5.260058 -2.147792 0
M  V30 56 H -0.017552 -3.427623 -1.989346 0
M  V30 57 H 0.576729 -2.917696 0.063565 0
M  V30 58 H 0.116758 -2.689447 2.406331 0
M  V30 59 H -4.092780 -2.950349 1.633360 0
M  V30 60 H -3.585039 -3.174541 -0.713174 0
M  V30 61 H -1.289728 2.841396 0.019322 0
M  V30 62 H -1.938657 2.769574 0.772909 0
M  V30 63 H -1.536554 1.510029 5.206085 0
M  V30 END ATOM
M  V30 BEGIN BOND
M  V30 1 1 1 2
M  V30 2 1 2 3
M  V30 3 1 2 4
M  V30 4 1 4 5
M  V30 5 2 5 6
M  V30 6 1 6 7
M  V30 7 2 7 8
M  V30 8 1 7 9
M  V30 9 2 9 10
M  V30 10 1 10 11
M  V30 11 2 11 12
M  V30 12 1 12 13
M  V30 13 1 13 14
M  V30 14 1 14 15
M  V30 15 1 14 16
M  V30 16 1 16 17
M  V30 17 1 17 18
M  V30 18 1 18 19
M  V30 19 1 19 20
M  V30 20 1 20 21
M  V30 21 2 21 22
M  V30 22 1 22 23
M  V30 23 2 23 24
M  V30 24 1 24 25
M  V30 25 1 24 26
M  V30 26 2 26 27
M  V30 27 2 13 28
M  V30 28 1 6 29
M  V30 29 2 29 30
M  V30 30 1 30 31
M  V30 31 1 30 32
M  V30 32 2 32 33
M  V30 33 1 33 34
M  V30 34 2 34 35
M  V30 35 1 35 4
M  V30 36 1 28 9
M  V30 37 1 35 29
M  V30 38 1 20 16
M  V30 39 1 27 21
M  V30 40 1 1 36
M  V30 41 1 1 37
M  V30 42 1 1 38
M  V30 43 1 2 39
M  V30 44 1 3 40
M  V30 45 1 3 41
M  V30 46 1 3 42
M  V30 47 1 5 43
M  V30 48 1 10 44
M  V30 49 1 12 45
M  V30 50 1 15 46
M  V30 51 1 15 47
M  V30 52 1 15 48
M  V30 53 1 16 49 CFG=3
M  V30 54 1 17 50
M  V30 55 1 17 51
M  V30 56 1 18 52
M  V30 57 1 18 53
M  V30 58 1 19 54
M  V30 59 1 19 55
M  V30 60 1 20 56 CFG=1
M  V30 61 1 22 57
M  V30 62 1 23 58
M  V30 63 1 26 59
M  V30 64 1 27 60
M  V30 65 1 31 61
M  V30 66 1 31 62
M  V30 67 1 33 63
M  V30 END BOND
M  V30 END CTAB
M  END
>  <Dataset>  (47) 
ChEMBL_Kinases

>  <Ligand_Instance>  (47) 
nan

>  <PDB_ID>  (47) 
nan

>  <Standardized_SMILES>  (47) 
CC(C)n1cc(C(=O)c2cncc(N(C)[C@@H]3CCC[C@@H]3c3ccc(F)cc3)n2)c2c(N)ncnc21

>  <Name>  (47) 
nan

>  <Pocket>  (47) 
nan

>  <ATP_Site>  (47) 
nan

>  <Peripheral>  (47) 
nan

>  <Num_H_Atoms_ProtBoundConf>  (47) 
nan

>  <Num_Resolved_Atoms>  (47) 
nan

>  <Num_Not_Resolved_Atoms>  (47) 
nan

$$$$
CHEMBL193936
     RDKit          3D

  0  0  0  0  0  0  0  0  0  0999 V3000
M  V30 BEGIN CTAB
M  V30 COUNTS 39 42 0 0 0
M  V30 BEGIN ATOM
M  V30 1 F 3.035989 -2.638854 4.003195 0
M  V30 2 C 3.644235 -3.069672 2.822422 0
M  V30 3 F 3.342756 -4.404960 2.598128 0
M  V30 4 F 5.001161 -2.899116 2.854873 0
M  V30 5 C 3.020352 -2.286698 1.721941 0
M  V30 6 C 3.784092 -1.464931 0.901000 0
M  V30 7 N 3.216093 -0.754475 -0.098798 0
M  V30 8 C 1.869669 -0.851164 -0.299186 0
M  V30 9 N 1.105557 -0.181281 -1.294793 0
M  V30 10 C 0.496733 1.086412 -1.088590 0
M  V30 11 C -0.253499 1.745671 -2.064505 0
M  V30 12 C -0.838601 2.973744 -1.848568 0
M  V30 13 C -0.667956 3.570894 -0.604178 0
M  V30 14 N -1.097342 4.743917 -0.072583 0
M  V30 15 C -0.649152 4.852798 1.198745 0
M  V30 16 N 0.074174 3.729973 1.471910 0
M  V30 17 C 0.067243 2.937461 0.369186 0
M  V30 18 C 0.645298 1.706297 0.131355 0
M  V30 19 N 1.140664 -1.649291 0.501190 0
M  V30 20 C 1.666514 -2.373802 1.508398 0
M  V30 21 O 0.823480 -3.177255 2.289040 0
M  V30 22 C -0.542837 -3.217579 2.015065 0
M  V30 23 C -1.059988 -4.150118 1.136019 0
M  V30 24 C -2.424551 -4.132759 0.910979 0
M  V30 25 C -3.215787 -3.199483 1.560806 0
M  V30 26 Br -5.110450 -3.174169 1.249251 0
M  V30 27 C -2.676406 -2.278691 2.433838 0
M  V30 28 C -1.320278 -2.266416 2.682490 0
M  V30 29 H 4.856290 -1.372143 1.041140 0
M  V30 30 H 0.982250 -0.637741 -2.225069 0
M  V30 31 H -0.353595 1.239525 -3.008108 0
M  V30 32 H -1.411087 3.468704 -2.603829 0
M  V30 33 H -1.674882 5.470068 -0.524328 0
M  V30 34 H -0.759001 5.611170 1.962512 0
M  V30 35 H 1.233292 1.189679 0.896097 0
M  V30 36 H -0.343398 -4.820846 0.695065 0
M  V30 37 H -2.820885 -4.857003 0.229167 0
M  V30 38 H -3.318402 -1.558718 2.929360 0
M  V30 39 H -0.880782 -1.549954 3.365475 0
M  V30 END ATOM
M  V30 BEGIN BOND
M  V30 1 1 1 2
M  V30 2 1 2 3
M  V30 3 1 2 4
M  V30 4 1 2 5
M  V30 5 2 5 6
M  V30 6 1 6 7
M  V30 7 2 7 8
M  V30 8 1 8 9
M  V30 9 1 9 10
M  V30 10 2 10 11
M  V30 11 1 11 12
M  V30 12 2 12 13
M  V30 13 1 13 14
M  V30 14 1 14 15
M  V30 15 2 15 16
M  V30 16 1 16 17
M  V30 17 2 17 18
M  V30 18 1 8 19
M  V30 19 2 19 20
M  V30 20 1 20 21
M  V30 21 1 21 22
M  V30 22 2 22 23
M  V30 23 1 23 24
M  V30 24 2 24 25
M  V30 25 1 25 26
M  V30 26 1 25 27
M  V30 27 2 27 28
M  V30 28 1 20 5
M  V30 29 1 28 22
M  V30 30 1 18 10
M  V30 31 1 17 13
M  V30 32 1 6 29
M  V30 33 1 9 30
M  V30 34 1 11 31
M  V30 35 1 12 32
M  V30 36 1 14 33
M  V30 37 1 15 34
M  V30 38 1 18 35
M  V30 39 1 23 36
M  V30 40 1 24 37
M  V30 41 1 27 38
M  V30 42 1 28 39
M  V30 END BOND
M  V30 END CTAB
M  END
>  <Dataset>  (48) 
ChEMBL_Kinases

>  <Ligand_Instance>  (48) 
nan

>  <PDB_ID>  (48) 
nan

>  <Standardized_SMILES>  (48) 
FC(F)(F)c1cnc(Nc2ccc3[nH]cnc3c2)nc1Oc1ccc(Br)cc1

>  <Name>  (48) 
nan

>  <Pocket>  (48) 
nan

>  <ATP_Site>  (48) 
nan

>  <Peripheral>  (48) 
nan

>  <Num_H_Atoms_ProtBoundConf>  (48) 
nan

>  <Num_Resolved_Atoms>  (48) 
nan

>  <Num_Not_Resolved_Atoms>  (48) 
nan

$$$$
CHEMBL1957115
     RDKit          3D

  0  0  0  0  0  0  0  0  0  0999 V3000
M  V30 BEGIN CTAB
M  V30 COUNTS 30 32 0 0 0
M  V30 BEGIN ATOM
M  V30 1 C -0.999709 -4.382915 4.294778 0
M  V30 2 O -1.106766 -3.958723 2.933672 0
M  V30 3 C -0.508232 -2.759908 2.556928 0
M  V30 4 C 0.186438 -1.976906 3.480489 0
M  V30 5 C 0.738165 -0.798470 2.969082 0
M  V30 6 C 0.587375 -0.465263 1.643091 0
M  V30 7 C -0.104110 -1.257066 0.751477 0
M  V30 8 C -0.660816 -2.427227 1.225197 0
M  V30 9 N -0.052085 -0.635907 -0.437640 0
M  V30 10 C 0.631379 0.518437 -0.387833 0
M  V30 11 C 0.900301 1.427611 -1.386518 0
M  V30 12 C 0.484039 1.331648 -2.772224 0
M  V30 13 C -0.304519 0.280757 -3.450424 0
M  V30 14 O 0.840804 2.286136 -3.538282 0
M  V30 15 N 1.620651 2.488403 -0.986183 0
M  V30 16 C 2.042590 2.651338 0.274062 0
M  V30 17 C 1.762152 1.729396 1.257050 0
M  V30 18 C 1.031479 0.622048 0.921075 0
M  V30 19 H -1.633151 -3.787294 4.980303 0
M  V30 20 H -1.292188 -5.441139 4.355441 0
M  V30 21 H 0.052873 -4.334277 4.654077 0
M  V30 22 H 0.273916 -2.282077 4.499973 0
M  V30 23 H 1.290826 -0.160273 3.669726 0
M  V30 24 H -1.199204 -3.044907 0.533630 0
M  V30 25 H -0.512498 -1.066478 -1.248000 0
M  V30 26 H -1.348978 0.203487 -3.034924 0
M  V30 27 H 0.217853 -0.706811 -3.449794 0
M  V30 28 H -0.455962 0.542635 -4.531251 0
M  V30 29 H 2.626239 3.542589 0.527362 0
M  V30 30 H 2.094011 1.844016 2.278568 0
M  V30 END ATOM
M  V30 BEGIN BOND
M  V30 1 1 1 2
M  V30 2 1 2 3
M  V30 3 2 3 4
M  V30 4 1 4 5
M  V30 5 2 5 6
M  V30 6 1 6 7
M  V30 7 2 7 8
M  V30 8 1 7 9
M  V30 9 1 9 10
M  V30 10 2 10 11
M  V30 11 1 11 12
M  V30 12 1 12 13
M  V30 13 2 12 14
M  V30 14 1 11 15
M  V30 15 2 15 16
M  V30 16 1 16 17
M  V30 17 2 17 18
M  V30 18 1 8 3
M  V30 19 1 18 10
M  V30 20 1 18 6
M  V30 21 1 1 19
M  V30 22 1 1 20
M  V30 23 1 1 21
M  V30 24 1 4 22
M  V30 25 1 5 23
M  V30 26 1 8 24
M  V30 27 1 9 25
M  V30 28 1 13 26
M  V30 29 1 13 27
M  V30 30 1 13 28
M  V30 31 1 16 29
M  V30 32 1 17 30
M  V30 END BOND
M  V30 END CTAB
M  END
>  <Dataset>  (49) 
ChEMBL_Kinases

>  <Ligand_Instance>  (49) 
nan

>  <PDB_ID>  (49) 
nan

>  <Standardized_SMILES>  (49) 
COc1ccc2c(c1)[nH]c1c(C(C)=O)nccc12

>  <Name>  (49) 
ARENARINE C

>  <Pocket>  (49) 
nan

>  <ATP_Site>  (49) 
nan

>  <Peripheral>  (49) 
nan

>  <Num_H_Atoms_ProtBoundConf>  (49) 
nan

>  <Num_Resolved_Atoms>  (49) 
nan

>  <Num_Not_Resolved_Atoms>  (49) 
nan

$$$$
CHEMBL195678
     RDKit          3D

  0  0  0  0  0  0  0  0  0  0999 V3000
M  V30 BEGIN CTAB
M  V30 COUNTS 56 59 0 0 0
M  V30 BEGIN ATOM
M  V30 1 C 3.604506 -2.218758 0.754878 0
M  V30 2 C 4.682066 -1.180737 1.038019 0
M  V30 3 N 4.033651 0.071072 1.376985 0
M  V30 4 C 3.720624 0.342169 2.757841 0
M  V30 5 C 4.905940 1.058986 3.405581 0
M  V30 6 C 3.735939 0.977307 0.322685 0
M  V30 7 O 4.032370 0.683393 -0.847825 0
M  V30 8 C 3.089214 2.260054 0.534742 0
M  V30 9 C 3.722418 3.463057 0.806569 0
M  V30 10 C 2.927961 4.578983 0.977024 0
M  V30 11 C 1.559039 4.552074 0.890830 0
M  V30 12 C 0.935785 3.335225 0.616902 0
M  V30 13 O -0.449755 3.398457 0.547324 0
M  V30 14 C -1.094059 2.181811 0.272488 0
M  V30 15 C -1.425201 1.453398 1.417646 0
M  V30 16 C -2.061936 0.244630 1.225086 0
M  V30 17 C -2.359750 -0.227069 -0.033889 0
M  V30 18 C -3.034759 -1.513655 -0.171492 0
M  V30 19 N -3.404309 -2.133717 -1.301643 0
M  V30 20 C -4.004581 -3.309035 -1.032304 0
M  V30 21 C -4.542737 -4.277742 -1.854200 0
M  V30 22 C -5.077414 -5.358421 -1.190190 0
M  V30 23 C -5.669707 -6.434012 -1.976902 0
M  V30 24 N -5.741436 -6.458865 -3.395673 0
M  V30 25 O -6.228817 -7.529363 -1.713627 0
M  V30 26 C -5.107137 -5.524884 0.178728 0
M  V30 27 C -4.561498 -4.539766 0.975114 0
M  V30 28 C -4.011974 -3.434494 0.360910 0
M  V30 29 N -3.408261 -2.312658 0.844039 0
M  V30 30 C -2.029240 0.498620 -1.159594 0
M  V30 31 C -1.393275 1.707663 -0.989206 0
M  V30 32 C 1.713714 2.203205 0.442335 0
M  V30 33 H 4.052675 -3.221718 0.972837 0
M  V30 34 H 3.291994 -2.139109 -0.303645 0
M  V30 35 H 2.762968 -2.028703 1.469396 0
M  V30 36 H 5.312429 -1.003178 0.150728 0
M  V30 37 H 5.302204 -1.552931 1.896546 0
M  V30 38 H 2.829105 0.989210 2.796243 0
M  V30 39 H 3.571541 -0.626638 3.293026 0
M  V30 40 H 5.342385 1.762216 2.645217 0
M  V30 41 H 5.692296 0.312954 3.670245 0
M  V30 42 H 4.546544 1.600855 4.282623 0
M  V30 43 H 4.792261 3.434106 0.864146 0
M  V30 44 H 3.455512 5.506246 1.188912 0
M  V30 45 H 1.005275 5.472157 1.037356 0
M  V30 46 H -1.216023 1.774012 2.433244 0
M  V30 47 H -2.324697 -0.330596 2.097266 0
M  V30 48 H -4.549318 -4.205125 -2.919185 0
M  V30 49 H -5.286524 -5.800564 -4.081618 0
M  V30 50 H -5.414928 -5.967373 -4.255605 0
M  V30 51 H -5.544405 -6.401791 0.633154 0
M  V30 52 H -4.579436 -4.658895 2.037091 0
M  V30 53 H -3.272057 -2.130974 1.849846 0
M  V30 54 H -2.244285 0.165701 -2.165978 0
M  V30 55 H -1.082202 2.369528 -1.783090 0
M  V30 56 H 1.122809 1.317820 0.234911 0
M  V30 END ATOM
M  V30 BEGIN BOND
M  V30 1 1 1 2
M  V30 2 1 2 3
M  V30 3 1 3 4
M  V30 4 1 4 5
M  V30 5 1 3 6
M  V30 6 2 6 7
M  V30 7 1 6 8
M  V30 8 2 8 9
M  V30 9 1 9 10
M  V30 10 2 10 11
M  V30 11 1 11 12
M  V30 12 1 12 13
M  V30 13 1 13 14
M  V30 14 2 14 15
M  V30 15 1 15 16
M  V30 16 2 16 17
M  V30 17 1 17 18
M  V30 18 2 18 19
M  V30 19 1 19 20
M  V30 20 2 20 21
M  V30 21 1 21 22
M  V30 22 1 22 23
M  V30 23 1 23 24
M  V30 24 2 23 25
M  V30 25 2 22 26
M  V30 26 1 26 27
M  V30 27 2 27 28
M  V30 28 1 28 29
M  V30 29 1 17 30
M  V30 30 2 30 31
M  V30 31 2 12 32
M  V30 32 1 32 8
M  V30 33 1 31 14
M  V30 34 1 29 18
M  V30 35 1 28 20
M  V30 36 1 1 33
M  V30 37 1 1 34
M  V30 38 1 1 35
M  V30 39 1 2 36
M  V30 40 1 2 37
M  V30 41 1 4 38
M  V30 42 1 4 39
M  V30 43 1 5 40
M  V30 44 1 5 41
M  V30 45 1 5 42
M  V30 46 1 9 43
M  V30 47 1 10 44
M  V30 48 1 11 45
M  V30 49 1 15 46
M  V30 50 1 16 47
M  V30 51 1 21 48
M  V30 52 1 24 49
M  V30 53 1 24 50
M  V30 54 1 26 51
M  V30 55 1 27 52
M  V30 56 1 29 53
M  V30 57 1 30 54
M  V30 58 1 31 55
M  V30 59 1 32 56
M  V30 END BOND
M  V30 END CTAB
M  END
>  <Dataset>  (50) 
ChEMBL_Kinases

>  <Ligand_Instance>  (50) 
nan

>  <PDB_ID>  (50) 
nan

>  <Standardized_SMILES>  (50) 
CCN(CC)C(=O)c1cccc(Oc2ccc(-c3nc4cc(C(N)=O)ccc4[nH]3)cc2)c1

>  <Name>  (50) 
nan

>  <Pocket>  (50) 
nan

>  <ATP_Site>  (50) 
nan

>  <Peripheral>  (50) 
nan

>  <Num_H_Atoms_ProtBoundConf>  (50) 
nan

>  <Num_Resolved_Atoms>  (50) 
nan

>  <Num_Not_Resolved_Atoms>  (50) 
nan

$$$$
CHEMBL1956687
     RDKit          3D

  0  0  0  0  0  0  0  0  0  0999 V3000
M  V30 BEGIN CTAB
M  V30 COUNTS 45 49 0 0 0
M  V30 BEGIN ATOM
M  V30 1 C -0.021928 -4.342545 2.964525 0
M  V30 2 N 0.590191 -3.573755 2.016288 0
M  V30 3 C -0.309127 -3.430666 1.038473 0
M  V30 4 C -0.201813 -2.743505 -0.150359 0
M  V30 5 N 0.930529 -2.028879 -0.627195 0
M  V30 6 C 1.330606 -0.722443 -0.234203 0
M  V30 7 C 0.754438 -0.109797 0.885131 0
M  V30 8 C 1.206526 1.153897 1.179009 0
M  V30 9 C 2.158183 1.887467 0.504550 0
M  V30 10 N 2.564410 3.188078 0.901478 0
M  V30 11 C 3.291149 3.911942 -0.127626 0
M  V30 12 C 3.464593 5.319178 0.416537 0
M  V30 13 O 3.804609 5.315994 1.751374 0
M  V30 14 C 2.813743 4.873392 2.586924 0
M  V30 15 C 2.194438 3.561853 2.252649 0
M  V30 16 C 2.678474 1.198807 -0.596844 0
M  V30 17 C 2.273582 -0.067603 -0.950284 0
M  V30 18 N -1.226687 -2.707610 -1.023949 0
M  V30 19 C -2.393069 -3.356936 -0.740190 0
M  V30 20 C -2.457091 -4.032654 0.462928 0
M  V30 21 C -3.714998 -4.735627 0.747908 0
M  V30 22 C -4.548055 -4.823101 1.873289 0
M  V30 23 N -5.586052 -5.639152 1.538598 0
M  V30 24 N -5.437830 -6.050013 0.291354 0
M  V30 25 C -4.312372 -5.530278 -0.241973 0
M  V30 26 N -1.440389 -4.085703 1.363906 0
M  V30 27 N -1.270724 -4.648606 2.546192 0
M  V30 28 H 0.419915 -4.649262 3.886689 0
M  V30 29 H 1.486642 -2.555721 -1.329939 0
M  V30 30 H -0.001081 -0.633648 1.451604 0
M  V30 31 H 0.718717 1.592319 2.061005 0
M  V30 32 H 4.196391 3.441315 -0.479672 0
M  V30 33 H 2.549028 4.007757 -0.974348 0
M  V30 34 H 2.551321 5.942308 0.208555 0
M  V30 35 H 4.288130 5.783093 -0.156620 0
M  V30 36 H 3.267902 4.759667 3.612392 0
M  V30 37 H 2.007776 5.641696 2.745526 0
M  V30 38 H 2.459944 2.754140 2.973332 0
M  V30 39 H 1.071681 3.588581 2.279918 0
M  V30 40 H 3.441354 1.694331 -1.191783 0
M  V30 41 H 2.738516 -0.522838 -1.823999 0
M  V30 42 H -3.232239 -3.340772 -1.433626 0
M  V30 43 H -4.268541 -4.277318 2.767896 0
M  V30 44 H -6.056616 -6.682562 -0.259191 0
M  V30 45 H -3.945343 -5.697826 -1.246083 0
M  V30 END ATOM
M  V30 BEGIN BOND
M  V30 1 1 1 2
M  V30 2 2 2 3
M  V30 3 1 3 4
M  V30 4 1 4 5
M  V30 5 1 5 6
M  V30 6 2 6 7
M  V30 7 1 7 8
M  V30 8 2 8 9
M  V30 9 1 9 10
M  V30 10 1 10 11
M  V30 11 1 11 12
M  V30 12 1 12 13
M  V30 13 1 13 14
M  V30 14 1 14 15
M  V30 15 1 9 16
M  V30 16 2 16 17
M  V30 17 2 4 18
M  V30 18 1 18 19
M  V30 19 2 19 20
M  V30 20 1 20 21
M  V30 21 1 21 22
M  V30 22 2 22 23
M  V30 23 1 23 24
M  V30 24 1 24 25
M  V30 25 1 20 26
M  V30 26 1 26 27
M  V30 27 2 27 1
M  V30 28 1 26 3
M  V30 29 1 17 6
M  V30 30 2 25 21
M  V30 31 1 15 10
M  V30 32 1 1 28
M  V30 33 1 5 29
M  V30 34 1 7 30
M  V30 35 1 8 31
M  V30 36 1 11 32
M  V30 37 1 11 33
M  V30 38 1 12 34
M  V30 39 1 12 35
M  V30 40 1 14 36
M  V30 41 1 14 37
M  V30 42 1 15 38
M  V30 43 1 15 39
M  V30 44 1 16 40
M  V30 45 1 17 41
M  V30 46 1 19 42
M  V30 47 1 22 43
M  V30 48 1 24 44
M  V30 49 1 25 45
M  V30 END BOND
M  V30 END CTAB
M  END
>  <Dataset>  (51) 
ChEMBL_Kinases

>  <Ligand_Instance>  (51) 
nan

>  <PDB_ID>  (51) 
nan

>  <Standardized_SMILES>  (51) 
c1nc2c(Nc3ccc(N4CCOCC4)cc3)ncc(-c3cn[nH]c3)n2n1

>  <Name>  (51) 
nan

>  <Pocket>  (51) 
nan

>  <ATP_Site>  (51) 
nan

>  <Peripheral>  (51) 
nan

>  <Num_H_Atoms_ProtBoundConf>  (51) 
nan

>  <Num_Resolved_Atoms>  (51) 
nan

>  <Num_Not_Resolved_Atoms>  (51) 
nan

$$$$
CHEMBL1956686
     RDKit          3D

  0  0  0  0  0  0  0  0  0  0999 V3000
M  V30 BEGIN CTAB
M  V30 COUNTS 53 57 0 0 0
M  V30 BEGIN ATOM
M  V30 1 C 0.634618 -7.781693 -0.461327 0
M  V30 2 N 1.167681 -6.456765 -0.227016 0
M  V30 3 C 2.582568 -6.486805 -0.579381 0
M  V30 4 C 3.190281 -5.093168 -0.556981 0
M  V30 5 N 2.545566 -4.357945 0.507016 0
M  V30 6 C 2.235235 -2.954410 0.508370 0
M  V30 7 C 1.550876 -2.259734 1.493779 0
M  V30 8 C 1.327202 -0.916208 1.362190 0
M  V30 9 C 1.762828 -0.188297 0.258262 0
M  V30 10 N 1.480314 1.186522 0.161983 0
M  V30 11 C 0.372178 2.010435 0.398183 0
M  V30 12 N 0.535434 3.341855 0.319902 0
M  V30 13 C -0.522611 4.138327 0.523201 0
M  V30 14 C -1.793326 3.679561 0.812895 0
M  V30 15 C -2.817013 4.700173 0.998347 0
M  V30 16 C -3.743929 4.744981 1.998868 0
M  V30 17 C -4.696542 5.727753 2.131895 0
M  V30 18 N -4.738566 6.724566 1.227485 0
M  V30 19 C -3.850493 6.759450 0.194511 0
M  V30 20 O -3.920801 7.706842 -0.630581 0
M  V30 21 C -2.902519 5.757930 0.083730 0
M  V30 22 N -1.953352 2.346683 0.890106 0
M  V30 23 C -3.065115 1.668187 1.142791 0
M  V30 24 C -2.716652 0.346901 1.103017 0
M  V30 25 N -1.404433 0.314288 0.826508 0
M  V30 26 C -0.895030 1.548979 0.686785 0
M  V30 27 C 2.443949 -0.915859 -0.706969 0
M  V30 28 C 2.679525 -2.260395 -0.596291 0
M  V30 29 C 2.246721 -5.254237 1.614123 0
M  V30 30 C 1.114425 -6.173185 1.195940 0
M  V30 31 H 1.236472 -8.554454 0.020630 0
M  V30 32 H 0.541079 -7.995148 -1.540526 0
M  V30 33 H -0.382977 -7.844305 0.024114 0
M  V30 34 H 3.073611 -7.165156 0.146702 0
M  V30 35 H 2.711684 -6.928854 -1.595026 0
M  V30 36 H 4.284521 -5.191717 -0.394823 0
M  V30 37 H 2.936008 -4.616771 -1.525357 0
M  V30 38 H 1.228297 -2.854776 2.335054 0
M  V30 39 H 0.804914 -0.507993 2.193258 0
M  V30 40 H 2.369225 1.629079 -0.172807 0
M  V30 41 H -0.324841 5.214852 0.444613 0
M  V30 42 H -3.722117 3.957465 2.730942 0
M  V30 43 H -5.392971 5.676393 2.963986 0
M  V30 44 H -5.465436 7.480579 1.324299 0
M  V30 45 H -2.211957 5.840213 -0.772967 0
M  V30 46 H -4.046034 2.040126 1.339568 0
M  V30 47 H -3.325729 -0.528768 1.253903 0
M  V30 48 H 2.755629 -0.272013 -1.545507 0
M  V30 49 H 3.221426 -2.614141 -1.454163 0
M  V30 50 H 1.941188 -4.745992 2.533527 0
M  V30 51 H 3.161549 -5.851982 1.876096 0
M  V30 52 H 0.150043 -5.689608 1.422222 0
M  V30 53 H 1.193461 -7.095742 1.778521 0
M  V30 END ATOM
M  V30 BEGIN BOND
M  V30 1 1 1 2
M  V30 2 1 2 3
M  V30 3 1 3 4
M  V30 4 1 4 5
M  V30 5 1 5 6
M  V30 6 2 6 7
M  V30 7 1 7 8
M  V30 8 2 8 9
M  V30 9 1 9 10
M  V30 10 1 10 11
M  V30 11 2 11 12
M  V30 12 1 12 13
M  V30 13 2 13 14
M  V30 14 1 14 15
M  V30 15 1 15 16
M  V30 16 2 16 17
M  V30 17 1 17 18
M  V30 18 1 18 19
M  V30 19 2 19 20
M  V30 20 1 19 21
M  V30 21 1 14 22
M  V30 22 1 22 23
M  V30 23 2 23 24
M  V30 24 1 24 25
M  V30 25 2 25 26
M  V30 26 1 9 27
M  V30 27 2 27 28
M  V30 28 1 5 29
M  V30 29 1 29 30
M  V30 30 1 30 2
M  V30 31 1 28 6
M  V30 32 1 26 11
M  V30 33 2 21 15
M  V30 34 1 26 22
M  V30 35 1 1 31
M  V30 36 1 1 32
M  V30 37 1 1 33
M  V30 38 1 3 34
M  V30 39 1 3 35
M  V30 40 1 4 36
M  V30 41 1 4 37
M  V30 42 1 7 38
M  V30 43 1 8 39
M  V30 44 1 10 40
M  V30 45 1 13 41
M  V30 46 1 16 42
M  V30 47 1 17 43
M  V30 48 1 18 44
M  V30 49 1 21 45
M  V30 50 1 23 46
M  V30 51 1 24 47
M  V30 52 1 27 48
M  V30 53 1 28 49
M  V30 54 1 29 50
M  V30 55 1 29 51
M  V30 56 1 30 52
M  V30 57 1 30 53
M  V30 END BOND
M  V30 END CTAB
M  END
>  <Dataset>  (52) 
ChEMBL_Kinases

>  <Ligand_Instance>  (52) 
nan

>  <PDB_ID>  (52) 
nan

>  <Standardized_SMILES>  (52) 
CN1CCN(c2ccc(Nc3ncc(-c4cc[nH]c(=O)c4)n4ccnc34)cc2)CC1

>  <Name>  (52) 
nan

>  <Pocket>  (52) 
nan

>  <ATP_Site>  (52) 
nan

>  <Peripheral>  (52) 
nan

>  <Num_H_Atoms_ProtBoundConf>  (52) 
nan

>  <Num_Resolved_Atoms>  (52) 
nan

>  <Num_Not_Resolved_Atoms>  (52) 
nan

$$$$
CHEMBL1956685
     RDKit          3D

  0  0  0  0  0  0  0  0  0  0999 V3000
M  V30 BEGIN CTAB
M  V30 COUNTS 50 54 0 0 0
M  V30 BEGIN ATOM
M  V30 1 N 5.221734 -8.185405 1.704236 0
M  V30 2 C 5.278644 -6.981101 0.954960 0
M  V30 3 O 6.356270 -6.725059 0.364865 0
M  V30 4 C 4.149360 -6.062992 0.857886 0
M  V30 5 C 4.164917 -4.895146 0.146954 0
M  V30 6 C 2.908677 -4.298217 0.295064 0
M  V30 7 C 2.358713 -3.065488 -0.225920 0
M  V30 8 C 3.098427 -1.877781 -0.191184 0
M  V30 9 N 2.591763 -0.709755 -0.678547 0
M  V30 10 C 1.346897 -0.686077 -1.210150 0
M  V30 11 N 0.709879 0.466803 -1.749187 0
M  V30 12 C -0.065609 1.273669 -0.870531 0
M  V30 13 C -0.221041 0.989969 0.458588 0
M  V30 14 C -0.972839 1.773399 1.307821 0
M  V30 15 C -1.614813 2.899421 0.850132 0
M  V30 16 N -2.387083 3.704184 1.726002 0
M  V30 17 C -2.564341 3.451730 3.142278 0
M  V30 18 C -4.041527 3.075036 3.271875 0
M  V30 19 O -4.737054 4.243393 2.963899 0
M  V30 20 C -4.591257 4.578530 1.635616 0
M  V30 21 C -3.118242 4.897903 1.345988 0
M  V30 22 C -1.479695 3.214028 -0.481427 0
M  V30 23 C -0.713123 2.407512 -1.327490 0
M  V30 24 C 0.577661 -1.845532 -1.264002 0
M  V30 25 N -0.668575 -2.128918 -1.724384 0
M  V30 26 C -0.914069 -3.446034 -1.520038 0
M  V30 27 C 0.233432 -3.962501 -0.914271 0
M  V30 28 N 1.126600 -2.973810 -0.768064 0
M  V30 29 C 2.211265 -5.185277 1.112436 0
M  V30 30 O 2.978077 -6.221757 1.427565 0
M  V30 31 H 4.922988 -8.441842 2.673717 0
M  V30 32 H 5.534701 -9.076193 1.255076 0
M  V30 33 H 4.941951 -4.420181 -0.454054 0
M  V30 34 H 4.102646 -1.879522 0.233664 0
M  V30 35 H 0.791159 0.732568 -2.742588 0
M  V30 36 H 0.297063 0.089901 0.805738 0
M  V30 37 H -1.004377 1.431832 2.310561 0
M  V30 38 H -1.904919 2.716314 3.580923 0
M  V30 39 H -2.451147 4.394322 3.739014 0
M  V30 40 H -4.284311 2.357589 2.455413 0
M  V30 41 H -4.308721 2.694547 4.256196 0
M  V30 42 H -5.187617 5.493367 1.442358 0
M  V30 43 H -4.932683 3.814197 0.926254 0
M  V30 44 H -2.867162 5.736526 2.052942 0
M  V30 45 H -2.976918 5.234066 0.327846 0
M  V30 46 H -1.931443 4.057576 -0.936517 0
M  V30 47 H -0.610091 2.659159 -2.373163 0
M  V30 48 H -1.889830 -3.793124 -1.851380 0
M  V30 49 H 0.221641 -5.004264 -0.675587 0
M  V30 50 H 1.215542 -5.163004 1.501878 0
M  V30 END ATOM
M  V30 BEGIN BOND
M  V30 1 1 1 2
M  V30 2 2 2 3
M  V30 3 1 2 4
M  V30 4 2 4 5
M  V30 5 1 5 6
M  V30 6 1 6 7
M  V30 7 2 7 8
M  V30 8 1 8 9
M  V30 9 2 9 10
M  V30 10 1 10 11
M  V30 11 1 11 12
M  V30 12 2 12 13
M  V30 13 1 13 14
M  V30 14 2 14 15
M  V30 15 1 15 16
M  V30 16 1 16 17
M  V30 17 1 17 18
M  V30 18 1 18 19
M  V30 19 1 19 20
M  V30 20 1 20 21
M  V30 21 1 15 22
M  V30 22 2 22 23
M  V30 23 1 10 24
M  V30 24 2 24 25
M  V30 25 1 25 26
M  V30 26 2 26 27
M  V30 27 1 27 28
M  V30 28 2 6 29
M  V30 29 1 29 30
M  V30 30 1 30 4
M  V30 31 1 28 7
M  V30 32 1 23 12
M  V30 33 1 28 24
M  V30 34 1 21 16
M  V30 35 1 1 31
M  V30 36 1 1 32
M  V30 37 1 5 33
M  V30 38 1 8 34
M  V30 39 1 11 35
M  V30 40 1 13 36
M  V30 41 1 14 37
M  V30 42 1 17 38
M  V30 43 1 17 39
M  V30 44 1 18 40
M  V30 45 1 18 41
M  V30 46 1 20 42
M  V30 47 1 20 43
M  V30 48 1 21 44
M  V30 49 1 21 45
M  V30 50 1 22 46
M  V30 51 1 23 47
M  V30 52 1 26 48
M  V30 53 1 27 49
M  V30 54 1 29 50
M  V30 END BOND
M  V30 END CTAB
M  END
>  <Dataset>  (53) 
ChEMBL_Kinases

>  <Ligand_Instance>  (53) 
nan

>  <PDB_ID>  (53) 
nan

>  <Standardized_SMILES>  (53) 
NC(=O)c1cc(-c2cnc(Nc3ccc(N4CCOCC4)cc3)c3nccn23)co1

>  <Name>  (53) 
nan

>  <Pocket>  (53) 
nan

>  <ATP_Site>  (53) 
nan

>  <Peripheral>  (53) 
nan

>  <Num_H_Atoms_ProtBoundConf>  (53) 
nan

>  <Num_Resolved_Atoms>  (53) 
nan

>  <Num_Not_Resolved_Atoms>  (53) 
nan

$$$$
CHEMBL1956684
     RDKit          3D

  0  0  0  0  0  0  0  0  0  0999 V3000
M  V30 BEGIN CTAB
M  V30 COUNTS 50 54 0 0 0
M  V30 BEGIN ATOM
M  V30 1 N 3.610810 -8.029768 -1.112035 0
M  V30 2 C 4.681834 -7.067351 -1.044078 0
M  V30 3 O 5.916710 -7.336960 -0.924792 0
M  V30 4 C 4.333739 -5.675690 -1.116887 0
M  V30 5 C 5.148792 -4.567938 -1.078457 0
M  V30 6 O 4.454376 -3.492514 -1.171461 0
M  V30 7 C 3.172155 -3.734733 -1.276697 0
M  V30 8 C 2.271881 -2.607389 -1.389442 0
M  V30 9 C 2.787497 -1.326876 -1.380511 0
M  V30 10 N 2.018787 -0.227172 -1.479806 0
M  V30 11 C 0.685437 -0.317680 -1.594863 0
M  V30 12 N -0.140323 0.835062 -1.700674 0
M  V30 13 C -0.643048 1.430973 -0.509192 0
M  V30 14 C -0.325478 0.903670 0.735205 0
M  V30 15 C -0.813118 1.480399 1.891801 0
M  V30 16 C -1.614231 2.575000 1.853645 0
M  V30 17 N -2.120383 3.176363 3.033743 0
M  V30 18 C -1.855889 2.744020 4.371851 0
M  V30 19 C -3.177919 2.270772 4.961950 0
M  V30 20 O -4.192766 3.164399 4.779773 0
M  V30 21 C -3.794812 4.413736 4.323347 0
M  V30 22 C -2.993923 4.334558 3.044437 0
M  V30 23 C -1.923373 3.090141 0.617599 0
M  V30 24 C -1.458375 2.546169 -0.560584 0
M  V30 25 C 0.136277 -1.577094 -1.607341 0
M  V30 26 N -1.152625 -1.920542 -1.711692 0
M  V30 27 C -1.210085 -3.261781 -1.678653 0
M  V30 28 C 0.094662 -3.678213 -1.551409 0
M  V30 29 N 0.941231 -2.646612 -1.505806 0
M  V30 30 C 3.102746 -5.095230 -1.242248 0
M  V30 31 H 2.933498 -8.292288 -0.344460 0
M  V30 32 H 3.358808 -8.605817 -1.945365 0
M  V30 33 H 6.243304 -4.563217 -0.982646 0
M  V30 34 H 3.832838 -1.066247 -1.295533 0
M  V30 35 H -0.391372 1.261337 -2.616357 0
M  V30 36 H 0.319206 0.024198 0.751573 0
M  V30 37 H -0.515219 1.006362 2.790703 0
M  V30 38 H -1.093037 1.971059 4.491094 0
M  V30 39 H -1.545287 3.613696 5.017807 0
M  V30 40 H -3.424294 1.255189 4.595930 0
M  V30 41 H -3.006692 2.164777 6.066109 0
M  V30 42 H -3.245260 5.015725 5.058069 0
M  V30 43 H -4.731430 4.958511 4.078229 0
M  V30 44 H -3.634589 4.334358 2.145580 0
M  V30 45 H -2.320060 5.217816 3.011927 0
M  V30 46 H -2.546756 3.951296 0.469759 0
M  V30 47 H -1.678524 2.921230 -1.551476 0
M  V30 48 H -2.112333 -3.841265 -1.741827 0
M  V30 49 H 0.299592 -4.711533 -1.503762 0
M  V30 50 H 2.218542 -5.658345 -1.302812 0
M  V30 END ATOM
M  V30 BEGIN BOND
M  V30 1 1 1 2
M  V30 2 2 2 3
M  V30 3 1 2 4
M  V30 4 2 4 5
M  V30 5 1 5 6
M  V30 6 1 6 7
M  V30 7 1 7 8
M  V30 8 2 8 9
M  V30 9 1 9 10
M  V30 10 2 10 11
M  V30 11 1 11 12
M  V30 12 1 12 13
M  V30 13 2 13 14
M  V30 14 1 14 15
M  V30 15 2 15 16
M  V30 16 1 16 17
M  V30 17 1 17 18
M  V30 18 1 18 19
M  V30 19 1 19 20
M  V30 20 1 20 21
M  V30 21 1 21 22
M  V30 22 1 16 23
M  V30 23 2 23 24
M  V30 24 1 11 25
M  V30 25 2 25 26
M  V30 26 1 26 27
M  V30 27 2 27 28
M  V30 28 1 28 29
M  V30 29 2 7 30
M  V30 30 1 30 4
M  V30 31 1 29 8
M  V30 32 1 24 13
M  V30 33 1 29 25
M  V30 34 1 22 17
M  V30 35 1 1 31
M  V30 36 1 1 32
M  V30 37 1 5 33
M  V30 38 1 9 34
M  V30 39 1 12 35
M  V30 40 1 14 36
M  V30 41 1 15 37
M  V30 42 1 18 38
M  V30 43 1 18 39
M  V30 44 1 19 40
M  V30 45 1 19 41
M  V30 46 1 21 42
M  V30 47 1 21 43
M  V30 48 1 22 44
M  V30 49 1 22 45
M  V30 50 1 23 46
M  V30 51 1 24 47
M  V30 52 1 27 48
M  V30 53 1 28 49
M  V30 54 1 30 50
M  V30 END BOND
M  V30 END CTAB
M  END
>  <Dataset>  (54) 
ChEMBL_Kinases

>  <Ligand_Instance>  (54) 
nan

>  <PDB_ID>  (54) 
nan

>  <Standardized_SMILES>  (54) 
NC(=O)c1coc(-c2cnc(Nc3ccc(N4CCOCC4)cc3)c3nccn23)c1

>  <Name>  (54) 
nan

>  <Pocket>  (54) 
nan

>  <ATP_Site>  (54) 
nan

>  <Peripheral>  (54) 
nan

>  <Num_H_Atoms_ProtBoundConf>  (54) 
nan

>  <Num_Resolved_Atoms>  (54) 
nan

>  <Num_Not_Resolved_Atoms>  (54) 
nan

$$$$
CHEMBL1956682
     RDKit          3D

  0  0  0  0  0  0  0  0  0  0999 V3000
M  V30 BEGIN CTAB
M  V30 COUNTS 53 58 0 0 0
M  V30 BEGIN ATOM
M  V30 1 O 5.210505 -8.057300 3.259645 0
M  V30 2 C 5.352952 -6.816018 3.407882 0
M  V30 3 N 6.281294 -6.154646 4.258415 0
M  V30 4 C 6.190555 -4.705800 4.173787 0
M  V30 5 C 5.077602 -4.499600 3.194408 0
M  V30 6 C 4.468120 -3.373893 2.674882 0
M  V30 7 C 3.424578 -3.450527 1.743925 0
M  V30 8 C 2.793292 -2.233581 1.224779 0
M  V30 9 C 3.468840 -1.104452 0.818870 0
M  V30 10 N 2.813479 -0.030544 0.358355 0
M  V30 11 C 1.495478 0.017629 0.263587 0
M  V30 12 N 0.891784 1.209700 -0.210926 0
M  V30 13 C -0.439120 1.564439 -0.537617 0
M  V30 14 C -0.961477 2.762814 -0.101643 0
M  V30 15 C -2.216960 3.269616 -0.337658 0
M  V30 16 C -3.033432 2.468134 -1.103127 0
M  V30 17 N -4.363962 2.888363 -1.403665 0
M  V30 18 C -5.346730 2.298386 -2.302196 0
M  V30 19 C -6.416888 1.664201 -1.439986 0
M  V30 20 O -6.793483 2.490576 -0.390692 0
M  V30 21 C -6.473009 3.826165 -0.590639 0
M  V30 22 C -4.992580 4.068019 -0.794580 0
M  V30 23 C -2.609285 1.252546 -1.589323 0
M  V30 24 C -1.333520 0.812359 -1.309193 0
M  V30 25 C 0.802764 -1.099577 0.663249 0
M  V30 26 N -0.505802 -1.375978 0.701132 0
M  V30 27 C -0.657415 -2.617095 1.183160 0
M  V30 28 N 0.557668 -3.124553 1.450585 0
M  V30 29 N 1.448363 -2.188122 1.129154 0
M  V30 30 C 2.968262 -4.685150 1.311646 0
M  V30 31 C 3.576520 -5.821387 1.830219 0
M  V30 32 C 4.605180 -5.720787 2.748819 0
M  V30 33 H 6.990666 -6.609232 4.910314 0
M  V30 34 H 5.960652 -4.207584 5.115597 0
M  V30 35 H 7.144873 -4.307030 3.735235 0
M  V30 36 H 4.778287 -2.373428 2.971896 0
M  V30 37 H 4.547976 -1.116500 0.885184 0
M  V30 38 H 1.522493 2.049999 -0.379188 0
M  V30 39 H -0.295573 3.393344 0.509344 0
M  V30 40 H -2.502925 4.225017 0.062191 0
M  V30 41 H -4.900827 1.470550 -2.889493 0
M  V30 42 H -5.803324 3.053152 -2.981186 0
M  V30 43 H -6.106557 0.649055 -1.130844 0
M  V30 44 H -7.322022 1.564482 -2.108726 0
M  V30 45 H -7.057101 4.262391 -1.403427 0
M  V30 46 H -6.752663 4.348065 0.359177 0
M  V30 47 H -4.517534 4.271480 0.186355 0
M  V30 48 H -4.893719 4.892453 -1.527767 0
M  V30 49 H -3.210642 0.570986 -2.201728 0
M  V30 50 H -0.980374 -0.134396 -1.692413 0
M  V30 51 H -1.683032 -2.998907 1.277462 0
M  V30 52 H 2.177348 -4.763246 0.604274 0
M  V30 53 H 3.206492 -6.788574 1.480097 0
M  V30 END ATOM
M  V30 BEGIN BOND
M  V30 1 2 1 2
M  V30 2 1 2 3
M  V30 3 1 3 4
M  V30 4 1 4 5
M  V30 5 2 5 6
M  V30 6 1 6 7
M  V30 7 1 7 8
M  V30 8 2 8 9
M  V30 9 1 9 10
M  V30 10 2 10 11
M  V30 11 1 11 12
M  V30 12 1 12 13
M  V30 13 2 13 14
M  V30 14 1 14 15
M  V30 15 2 15 16
M  V30 16 1 16 17
M  V30 17 1 17 18
M  V30 18 1 18 19
M  V30 19 1 19 20
M  V30 20 1 20 21
M  V30 21 1 21 22
M  V30 22 1 16 23
M  V30 23 2 23 24
M  V30 24 1 11 25
M  V30 25 2 25 26
M  V30 26 1 26 27
M  V30 27 2 27 28
M  V30 28 1 28 29
M  V30 29 2 7 30
M  V30 30 1 30 31
M  V30 31 2 31 32
M  V30 32 1 32 2
M  V30 33 1 32 5
M  V30 34 1 29 8
M  V30 35 1 24 13
M  V30 36 1 29 25
M  V30 37 1 22 17
M  V30 38 1 3 33
M  V30 39 1 4 34
M  V30 40 1 4 35
M  V30 41 1 6 36
M  V30 42 1 9 37
M  V30 43 1 12 38
M  V30 44 1 14 39
M  V30 45 1 15 40
M  V30 46 1 18 41
M  V30 47 1 18 42
M  V30 48 1 19 43
M  V30 49 1 19 44
M  V30 50 1 21 45
M  V30 51 1 21 46
M  V30 52 1 22 47
M  V30 53 1 22 48
M  V30 54 1 23 49
M  V30 55 1 24 50
M  V30 56 1 27 51
M  V30 57 1 30 52
M  V30 58 1 31 53
M  V30 END BOND
M  V30 END CTAB
M  END
>  <Dataset>  (55) 
ChEMBL_Kinases

>  <Ligand_Instance>  (55) 
nan

>  <PDB_ID>  (55) 
nan

>  <Standardized_SMILES>  (55) 
O=C1NCc2cc(-c3cnc(Nc4ccc(N5CCOCC5)cc4)c4ncnn34)ccc21

>  <Name>  (55) 
nan

>  <Pocket>  (55) 
nan

>  <ATP_Site>  (55) 
nan

>  <Peripheral>  (55) 
nan

>  <Num_H_Atoms_ProtBoundConf>  (55) 
nan

>  <Num_Resolved_Atoms>  (55) 
nan

>  <Num_Not_Resolved_Atoms>  (55) 
nan

$$$$
CHEMBL1956574
     RDKit          3D

  0  0  0  0  0  0  0  0  0  0999 V3000
M  V30 BEGIN CTAB
M  V30 COUNTS 54 59 0 0 0
M  V30 BEGIN ATOM
M  V30 1 O 4.495336 -7.477907 2.279444 0
M  V30 2 C 4.218116 -6.263946 2.465799 0
M  V30 3 N 4.240480 -5.662427 3.772297 0
M  V30 4 C 3.862767 -4.249821 3.682920 0
M  V30 5 C 3.628809 -4.013723 2.245877 0
M  V30 6 C 3.252400 -2.898649 1.508334 0
M  V30 7 C 3.092926 -2.981636 0.158773 0
M  V30 8 C 2.682320 -1.720241 -0.449739 0
M  V30 9 C 3.237398 -0.453428 -0.319024 0
M  V30 10 N 2.693546 0.612634 -0.932759 0
M  V30 11 C 1.590160 0.469297 -1.691282 0
M  V30 12 N 0.848574 1.499838 -2.385287 0
M  V30 13 C -0.306391 1.709518 -1.557626 0
M  V30 14 C -1.541057 1.866501 -2.098166 0
M  V30 15 C -2.679121 2.065291 -1.352149 0
M  V30 16 C -2.613235 2.115666 0.012487 0
M  V30 17 N -3.738385 2.287306 0.888262 0
M  V30 18 C -5.091125 2.076733 0.412068 0
M  V30 19 C -6.081781 2.628503 1.377100 0
M  V30 20 O -5.959483 2.087003 2.633857 0
M  V30 21 C -4.676594 1.760331 2.986949 0
M  V30 22 C -3.661480 2.673260 2.275485 0
M  V30 23 C -1.380041 1.968126 0.687155 0
M  V30 24 C -0.303030 1.772068 -0.170149 0
M  V30 25 C 1.016376 -0.811356 -1.831504 0
M  V30 26 N -0.080651 -1.202191 -2.514511 0
M  V30 27 C -0.281460 -2.523699 -2.366295 0
M  V30 28 C 0.756354 -2.914529 -1.553608 0
M  V30 29 N 1.565184 -1.878290 -1.215177 0
M  V30 30 C 3.287046 -4.142292 -0.577005 0
M  V30 31 C 3.659350 -5.223821 0.188784 0
M  V30 32 C 3.834745 -5.208734 1.541716 0
M  V30 33 H 4.489171 -6.153665 4.662552 0
M  V30 34 H 2.919576 -4.092826 4.277309 0
M  V30 35 H 4.684692 -3.652635 4.113426 0
M  V30 36 H 3.108958 -1.997294 2.098367 0
M  V30 37 H 4.112506 -0.429684 0.304379 0
M  V30 38 H 1.019042 2.024126 -3.267701 0
M  V30 39 H -1.692347 1.835093 -3.188627 0
M  V30 40 H -3.629359 2.175356 -1.835352 0
M  V30 41 H -5.234367 2.448847 -0.614676 0
M  V30 42 H -5.198747 0.957374 0.333421 0
M  V30 43 H -7.094708 2.451076 0.931308 0
M  V30 44 H -5.929159 3.739435 1.456420 0
M  V30 45 H -4.556441 1.997724 4.063882 0
M  V30 46 H -4.383720 0.711181 2.826220 0
M  V30 47 H -2.707422 2.512784 2.766772 0
M  V30 48 H -3.933738 3.738685 2.431788 0
M  V30 49 H -1.126990 1.978394 1.714908 0
M  V30 50 H 0.705257 1.645787 0.227181 0
M  V30 51 H -1.061985 -3.161979 -2.772603 0
M  V30 52 H 0.861601 -3.942886 -1.240100 0
M  V30 53 H 3.149168 -4.111084 -1.642542 0
M  V30 54 H 3.821915 -6.162648 -0.340658 0
M  V30 END ATOM
M  V30 BEGIN BOND
M  V30 1 2 1 2
M  V30 2 1 2 3
M  V30 3 1 3 4
M  V30 4 1 4 5
M  V30 5 2 5 6
M  V30 6 1 6 7
M  V30 7 1 7 8
M  V30 8 2 8 9
M  V30 9 1 9 10
M  V30 10 2 10 11
M  V30 11 1 11 12
M  V30 12 1 12 13
M  V30 13 2 13 14
M  V30 14 1 14 15
M  V30 15 2 15 16
M  V30 16 1 16 17
M  V30 17 1 17 18
M  V30 18 1 18 19
M  V30 19 1 19 20
M  V30 20 1 20 21
M  V30 21 1 21 22
M  V30 22 1 16 23
M  V30 23 2 23 24
M  V30 24 1 11 25
M  V30 25 2 25 26
M  V30 26 1 26 27
M  V30 27 2 27 28
M  V30 28 1 28 29
M  V30 29 2 7 30
M  V30 30 1 30 31
M  V30 31 2 31 32
M  V30 32 1 32 2
M  V30 33 1 32 5
M  V30 34 1 29 8
M  V30 35 1 24 13
M  V30 36 1 29 25
M  V30 37 1 22 17
M  V30 38 1 3 33
M  V30 39 1 4 34
M  V30 40 1 4 35
M  V30 41 1 6 36
M  V30 42 1 9 37
M  V30 43 1 12 38
M  V30 44 1 14 39
M  V30 45 1 15 40
M  V30 46 1 18 41
M  V30 47 1 18 42
M  V30 48 1 19 43
M  V30 49 1 19 44
M  V30 50 1 21 45
M  V30 51 1 21 46
M  V30 52 1 22 47
M  V30 53 1 22 48
M  V30 54 1 23 49
M  V30 55 1 24 50
M  V30 56 1 27 51
M  V30 57 1 28 52
M  V30 58 1 30 53
M  V30 59 1 31 54
M  V30 END BOND
M  V30 END CTAB
M  END
>  <Dataset>  (56) 
ChEMBL_Kinases

>  <Ligand_Instance>  (56) 
nan

>  <PDB_ID>  (56) 
nan

>  <Standardized_SMILES>  (56) 
O=C1NCc2cc(-c3cnc(Nc4ccc(N5CCOCC5)cc4)c4nccn34)ccc21

>  <Name>  (56) 
nan

>  <Pocket>  (56) 
nan

>  <ATP_Site>  (56) 
nan

>  <Peripheral>  (56) 
nan

>  <Num_H_Atoms_ProtBoundConf>  (56) 
nan

>  <Num_Resolved_Atoms>  (56) 
nan

>  <Num_Not_Resolved_Atoms>  (56) 
nan

$$$$
CHEMBL1956573
     RDKit          3D

  0  0  0  0  0  0  0  0  0  0999 V3000
M  V30 BEGIN CTAB
M  V30 COUNTS 50 54 0 0 0
M  V30 BEGIN ATOM
M  V30 1 N 6.179111 -4.378028 3.540130 0
M  V30 2 C 6.123642 -5.166485 2.365502 0
M  V30 3 O 6.796111 -6.248483 2.374727 0
M  V30 4 C 5.339252 -4.734504 1.245646 0
M  V30 5 C 4.558028 -3.682496 0.970310 0
M  V30 6 C 3.938662 -3.584836 -0.233570 0
M  V30 7 C 3.073757 -2.472432 -0.628730 0
M  V30 8 C 3.456598 -1.164347 -0.415133 0
M  V30 9 N 2.658675 -0.143712 -0.775171 0
M  V30 10 C 1.459466 -0.338948 -1.355480 0
M  V30 11 N 0.542804 0.663456 -1.775660 0
M  V30 12 C -0.452354 1.156765 -0.888228 0
M  V30 13 C -0.509125 0.689430 0.407818 0
M  V30 14 C -1.500180 1.188014 1.258306 0
M  V30 15 C -2.410850 2.126683 0.831284 0
M  V30 16 N -3.407154 2.620539 1.709654 0
M  V30 17 C -3.515813 2.276305 3.115703 0
M  V30 18 C -4.810289 1.476029 3.225279 0
M  V30 19 O -5.890980 2.193540 2.741957 0
M  V30 20 C -5.736930 2.672041 1.472703 0
M  V30 21 C -4.470832 3.534293 1.339106 0
M  V30 22 C -2.323005 2.568993 -0.467414 0
M  V30 23 C -1.354946 2.101796 -1.348584 0
M  V30 24 C 1.053653 -1.653599 -1.579651 0
M  V30 25 N -0.058556 -2.187842 -2.121728 0
M  V30 26 C 0.039760 -3.531468 -2.102009 0
M  V30 27 C 1.249584 -3.807941 -1.529744 0
M  V30 28 N 1.875063 -2.656301 -1.207987 0
M  V30 29 C 4.155842 -4.613425 -1.142822 0
M  V30 30 S 5.273496 -5.740732 -0.244124 0
M  V30 31 H 6.234448 -3.764563 4.364819 0
M  V30 32 H 6.060055 -4.283892 4.570024 0
M  V30 33 H 4.473187 -2.954455 1.763074 0
M  V30 34 H 4.409891 -0.915635 0.047585 0
M  V30 35 H 0.635673 1.012206 -2.750643 0
M  V30 36 H 0.213315 -0.048798 0.731474 0
M  V30 37 H -1.470259 0.775473 2.231520 0
M  V30 38 H -2.693485 1.710300 3.529166 0
M  V30 39 H -3.668591 3.192056 3.728313 0
M  V30 40 H -4.684336 0.474417 2.795716 0
M  V30 41 H -4.971800 1.342719 4.323819 0
M  V30 42 H -5.739724 1.924243 0.681843 0
M  V30 43 H -6.566628 3.390586 1.279944 0
M  V30 44 H -4.532416 4.363662 2.095104 0
M  V30 45 H -4.419638 3.945108 0.340602 0
M  V30 46 H -2.973530 3.288456 -0.896589 0
M  V30 47 H -1.262487 2.427428 -2.365554 0
M  V30 48 H -0.809633 -4.057185 -2.519103 0
M  V30 49 H 1.538442 -4.843579 -1.410606 0
M  V30 50 H 3.796548 -4.782288 -2.153333 0
M  V30 END ATOM
M  V30 BEGIN BOND
M  V30 1 1 1 2
M  V30 2 2 2 3
M  V30 3 1 2 4
M  V30 4 2 4 5
M  V30 5 1 5 6
M  V30 6 1 6 7
M  V30 7 2 7 8
M  V30 8 1 8 9
M  V30 9 2 9 10
M  V30 10 1 10 11
M  V30 11 1 11 12
M  V30 12 2 12 13
M  V30 13 1 13 14
M  V30 14 2 14 15
M  V30 15 1 15 16
M  V30 16 1 16 17
M  V30 17 1 17 18
M  V30 18 1 18 19
M  V30 19 1 19 20
M  V30 20 1 20 21
M  V30 21 1 15 22
M  V30 22 2 22 23
M  V30 23 1 10 24
M  V30 24 2 24 25
M  V30 25 1 25 26
M  V30 26 2 26 27
M  V30 27 1 27 28
M  V30 28 2 6 29
M  V30 29 1 29 30
M  V30 30 1 30 4
M  V30 31 1 28 7
M  V30 32 1 23 12
M  V30 33 1 28 24
M  V30 34 1 21 16
M  V30 35 1 1 31
M  V30 36 1 1 32
M  V30 37 1 5 33
M  V30 38 1 8 34
M  V30 39 1 11 35
M  V30 40 1 13 36
M  V30 41 1 14 37
M  V30 42 1 17 38
M  V30 43 1 17 39
M  V30 44 1 18 40
M  V30 45 1 18 41
M  V30 46 1 20 42
M  V30 47 1 20 43
M  V30 48 1 21 44
M  V30 49 1 21 45
M  V30 50 1 22 46
M  V30 51 1 23 47
M  V30 52 1 26 48
M  V30 53 1 27 49
M  V30 54 1 29 50
M  V30 END BOND
M  V30 END CTAB
M  END
>  <Dataset>  (57) 
ChEMBL_Kinases

>  <Ligand_Instance>  (57) 
nan

>  <PDB_ID>  (57) 
nan

>  <Standardized_SMILES>  (57) 
NC(=O)c1cc(-c2cnc(Nc3ccc(N4CCOCC4)cc3)c3nccn23)cs1

>  <Name>  (57) 
nan

>  <Pocket>  (57) 
nan

>  <ATP_Site>  (57) 
nan

>  <Peripheral>  (57) 
nan

>  <Num_H_Atoms_ProtBoundConf>  (57) 
nan

>  <Num_Resolved_Atoms>  (57) 
nan

>  <Num_Not_Resolved_Atoms>  (57) 
nan

$$$$
CHEMBL1956570
     RDKit          3D

  0  0  0  0  0  0  0  0  0  0999 V3000
M  V30 BEGIN CTAB
M  V30 COUNTS 50 54 0 0 0
M  V30 BEGIN ATOM
M  V30 1 N 5.039495 -6.492537 4.369816 0
M  V30 2 C 4.576751 -5.295433 3.684128 0
M  V30 3 O 5.653288 -5.273806 4.431345 0
M  V30 4 C 4.927767 -3.959526 3.512853 0
M  V30 5 C 5.457857 -2.721977 3.559026 0
M  V30 6 C 5.055246 -1.710290 2.757268 0
M  V30 7 C 3.982257 -2.039745 1.808326 0
M  V30 8 C 3.398639 -1.042575 0.856569 0
M  V30 9 C 3.754888 0.249555 0.825652 0
M  V30 10 N 3.136624 1.075909 -0.029091 0
M  V30 11 C 2.171703 0.689939 -0.870022 0
M  V30 12 N 1.324953 1.365197 -1.810733 0
M  V30 13 C 0.035838 1.473108 -1.224304 0
M  V30 14 C -0.249950 1.090235 0.060892 0
M  V30 15 C -1.577736 1.200892 0.491968 0
M  V30 16 C -2.516024 1.684192 -0.383927 0
M  V30 17 N -3.859546 1.707825 0.108809 0
M  V30 18 C -4.369290 0.920447 1.238909 0
M  V30 19 C -5.280679 -0.129957 0.619844 0
M  V30 20 O -5.522972 0.147329 -0.731573 0
M  V30 21 C -6.017691 1.450873 -0.879431 0
M  V30 22 C -5.011934 2.471602 -0.375748 0
M  V30 23 C -2.249541 2.075993 -1.676023 0
M  V30 24 C -0.939822 1.962326 -2.093173 0
M  V30 25 C 1.840815 -0.679205 -0.795024 0
M  V30 26 N 0.913177 -1.432215 -1.468614 0
M  V30 27 C 0.940077 -2.703004 -1.049193 0
M  V30 28 C 1.900501 -2.762243 -0.093401 0
M  V30 29 N 2.444976 -1.559450 0.065245 0
M  V30 30 S 3.720847 -3.686113 2.186828 0
M  V30 31 H 4.691535 -7.335803 3.791984 0
M  V30 32 H 4.693205 -7.342495 3.794483 0
M  V30 33 H 6.211386 -2.737197 4.319832 0
M  V30 34 H 5.512050 -0.744129 2.843281 0
M  V30 35 H 4.522459 0.646138 1.472329 0
M  V30 36 H 2.089913 1.417604 -2.439035 0
M  V30 37 H 0.524106 0.719760 0.724998 0
M  V30 38 H -1.660596 0.866832 1.513102 0
M  V30 39 H -4.916057 1.545290 1.945027 0
M  V30 40 H -3.526828 0.447127 1.767713 0
M  V30 41 H -6.216824 -0.232758 1.199280 0
M  V30 42 H -4.744345 -1.093899 0.659246 0
M  V30 43 H -6.168747 1.626169 -1.958449 0
M  V30 44 H -6.977473 1.596458 -0.366156 0
M  V30 45 H -4.763282 3.224150 -1.125354 0
M  V30 46 H -5.460297 3.005623 0.507317 0
M  V30 47 H -3.091801 2.436280 -2.257712 0
M  V30 48 H -0.791387 2.284153 -3.125787 0
M  V30 49 H 0.221012 -3.334445 -1.562288 0
M  V30 50 H 2.072979 -3.713642 0.368231 0
M  V30 END ATOM
M  V30 BEGIN BOND
M  V30 1 1 1 2
M  V30 2 2 2 3
M  V30 3 1 2 4
M  V30 4 2 4 5
M  V30 5 1 5 6
M  V30 6 2 6 7
M  V30 7 1 7 8
M  V30 8 2 8 9
M  V30 9 1 9 10
M  V30 10 2 10 11
M  V30 11 1 11 12
M  V30 12 1 12 13
M  V30 13 2 13 14
M  V30 14 1 14 15
M  V30 15 2 15 16
M  V30 16 1 16 17
M  V30 17 1 17 18
M  V30 18 1 18 19
M  V30 19 1 19 20
M  V30 20 1 20 21
M  V30 21 1 21 22
M  V30 22 1 16 23
M  V30 23 2 23 24
M  V30 24 1 11 25
M  V30 25 2 25 26
M  V30 26 1 26 27
M  V30 27 2 27 28
M  V30 28 1 28 29
M  V30 29 1 7 30
M  V30 30 1 30 4
M  V30 31 1 29 8
M  V30 32 1 24 13
M  V30 33 1 29 25
M  V30 34 1 22 17
M  V30 35 1 1 31
M  V30 36 1 1 32
M  V30 37 1 5 33
M  V30 38 1 6 34
M  V30 39 1 9 35
M  V30 40 1 12 36
M  V30 41 1 14 37
M  V30 42 1 15 38
M  V30 43 1 18 39
M  V30 44 1 18 40
M  V30 45 1 19 41
M  V30 46 1 19 42
M  V30 47 1 21 43
M  V30 48 1 21 44
M  V30 49 1 22 45
M  V30 50 1 22 46
M  V30 51 1 23 47
M  V30 52 1 24 48
M  V30 53 1 27 49
M  V30 54 1 28 50
M  V30 END BOND
M  V30 END CTAB
M  END
>  <Dataset>  (58) 
ChEMBL_Kinases

>  <Ligand_Instance>  (58) 
nan

>  <PDB_ID>  (58) 
nan

>  <Standardized_SMILES>  (58) 
NC(=O)c1ccc(-c2cnc(Nc3ccc(N4CCOCC4)cc3)c3nccn23)s1

>  <Name>  (58) 
nan

>  <Pocket>  (58) 
nan

>  <ATP_Site>  (58) 
nan

>  <Peripheral>  (58) 
nan

>  <Num_H_Atoms_ProtBoundConf>  (58) 
nan

>  <Num_Resolved_Atoms>  (58) 
nan

>  <Num_Not_Resolved_Atoms>  (58) 
nan

$$$$
CHEMBL1956567
     RDKit          3D

  0  0  0  0  0  0  0  0  0  0999 V3000
M  V30 BEGIN CTAB
M  V30 COUNTS 49 53 0 0 0
M  V30 BEGIN ATOM
M  V30 1 O 1.733634 -6.466103 1.401202 0
M  V30 2 C 0.651273 -6.328959 0.755326 0
M  V30 3 C 0.205402 -5.055372 0.432688 0
M  V30 4 C -0.979971 -4.868178 -0.277692 0
M  V30 5 C -1.341093 -3.494239 -0.584436 0
M  V30 6 C -0.260507 -2.771871 -1.082293 0
M  V30 7 N -0.432611 -1.470004 -1.414258 0
M  V30 8 C -1.613457 -0.826254 -1.285281 0
M  V30 9 N -1.704539 0.558236 -1.666810 0
M  V30 10 C -0.939560 1.183070 -0.615242 0
M  V30 11 C 0.414165 1.196258 -0.989684 0
M  V30 12 C 1.344230 1.750867 -0.106103 0
M  V30 13 C 0.993860 2.279783 1.103835 0
M  V30 14 N 1.897007 2.857246 2.062208 0
M  V30 15 C 3.329617 2.943103 1.920458 0
M  V30 16 C 3.752612 4.364045 2.246509 0
M  V30 17 O 3.337899 4.777517 3.485288 0
M  V30 18 C 2.507518 3.893745 4.129648 0
M  V30 19 C 1.367860 3.408002 3.291183 0
M  V30 20 C -0.360767 2.258690 1.458087 0
M  V30 21 C -1.294387 1.718238 0.604474 0
M  V30 22 C -2.660653 -1.572932 -0.789788 0
M  V30 23 N -3.930683 -1.238336 -0.552387 0
M  V30 24 C -4.559983 -2.340958 -0.068242 0
M  V30 25 C -3.669191 -3.394054 0.002408 0
M  V30 26 N -2.521885 -2.872110 -0.450478 0
M  V30 27 C -1.694894 -6.001241 -0.648303 0
M  V30 28 C -1.140275 -7.217337 -0.264640 0
M  V30 29 N -0.014863 -7.429659 0.411080 0
M  V30 30 H 0.843968 -4.237660 0.773215 0
M  V30 31 H 0.749485 -3.096412 -1.256755 0
M  V30 32 H -2.212274 0.953429 -2.506329 0
M  V30 33 H 0.836374 0.810889 -1.922208 0
M  V30 34 H 2.393459 1.763649 -0.383761 0
M  V30 35 H 3.815997 2.217647 2.622722 0
M  V30 36 H 3.650355 2.647689 0.904664 0
M  V30 37 H 4.839468 4.458554 2.052673 0
M  V30 38 H 3.273132 5.024716 1.482037 0
M  V30 39 H 2.040145 4.481437 4.971993 0
M  V30 40 H 3.020760 3.056718 4.651344 0
M  V30 41 H 0.857218 2.552572 3.807978 0
M  V30 42 H 0.657060 4.191850 3.009161 0
M  V30 43 H -0.746677 2.642991 2.382881 0
M  V30 44 H -2.357960 1.633674 0.742495 0
M  V30 45 H -5.595998 -2.338536 0.204499 0
M  V30 46 H -3.837001 -4.403199 0.340283 0
M  V30 47 H -2.609043 -5.858935 -1.196502 0
M  V30 48 H -1.746173 -8.058542 -0.586144 0
M  V30 49 H 0.304851 -8.391172 0.642597 0
M  V30 END ATOM
M  V30 BEGIN BOND
M  V30 1 2 1 2
M  V30 2 1 2 3
M  V30 3 2 3 4
M  V30 4 1 4 5
M  V30 5 2 5 6
M  V30 6 1 6 7
M  V30 7 2 7 8
M  V30 8 1 8 9
M  V30 9 1 9 10
M  V30 10 2 10 11
M  V30 11 1 11 12
M  V30 12 2 12 13
M  V30 13 1 13 14
M  V30 14 1 14 15
M  V30 15 1 15 16
M  V30 16 1 16 17
M  V30 17 1 17 18
M  V30 18 1 18 19
M  V30 19 1 13 20
M  V30 20 2 20 21
M  V30 21 1 8 22
M  V30 22 2 22 23
M  V30 23 1 23 24
M  V30 24 2 24 25
M  V30 25 1 25 26
M  V30 26 1 4 27
M  V30 27 2 27 28
M  V30 28 1 28 29
M  V30 29 1 29 2
M  V30 30 1 26 5
M  V30 31 1 21 10
M  V30 32 1 26 22
M  V30 33 1 19 14
M  V30 34 1 3 30
M  V30 35 1 6 31
M  V30 36 1 9 32
M  V30 37 1 11 33
M  V30 38 1 12 34
M  V30 39 1 15 35
M  V30 40 1 15 36
M  V30 41 1 16 37
M  V30 42 1 16 38
M  V30 43 1 18 39
M  V30 44 1 18 40
M  V30 45 1 19 41
M  V30 46 1 19 42
M  V30 47 1 20 43
M  V30 48 1 21 44
M  V30 49 1 24 45
M  V30 50 1 25 46
M  V30 51 1 27 47
M  V30 52 1 28 48
M  V30 53 1 29 49
M  V30 END BOND
M  V30 END CTAB
M  END
>  <Dataset>  (59) 
ChEMBL_Kinases

>  <Ligand_Instance>  (59) 
nan

>  <PDB_ID>  (59) 
nan

>  <Standardized_SMILES>  (59) 
O=c1cc(-c2cnc(Nc3ccc(N4CCOCC4)cc3)c3nccn23)cc[nH]1

>  <Name>  (59) 
nan

>  <Pocket>  (59) 
nan

>  <ATP_Site>  (59) 
nan

>  <Peripheral>  (59) 
nan

>  <Num_H_Atoms_ProtBoundConf>  (59) 
nan

>  <Num_Resolved_Atoms>  (59) 
nan

>  <Num_Not_Resolved_Atoms>  (59) 
nan

$$$$
CHEMBL1956564
     RDKit          3D

  0  0  0  0  0  0  0  0  0  0999 V3000
M  V30 BEGIN CTAB
M  V30 COUNTS 53 57 0 0 0
M  V30 BEGIN ATOM
M  V30 1 N 4.725059 -5.525747 6.441530 0
M  V30 2 C 5.455484 -4.758859 5.510869 0
M  V30 3 O 6.712957 -4.624776 5.601981 0
M  V30 4 C 4.762576 -4.092381 4.403807 0
M  V30 5 C 5.428468 -3.341788 3.482856 0
M  V30 6 C 4.785265 -2.705791 2.430085 0
M  V30 7 C 3.407119 -2.815263 2.275465 0
M  V30 8 C 2.708711 -2.156220 1.188654 0
M  V30 9 C 3.022583 -0.816874 0.931300 0
M  V30 10 N 2.413028 -0.147264 -0.061915 0
M  V30 11 C 1.480412 -0.726444 -0.849522 0
M  V30 12 N 0.784765 -0.099568 -1.921050 0
M  V30 13 C -0.451836 0.585708 -1.760506 0
M  V30 14 C -1.055865 0.683008 -0.524678 0
M  V30 15 C -2.255011 1.337384 -0.324471 0
M  V30 16 C -2.847663 1.908679 -1.436333 0
M  V30 17 N -4.084372 2.603450 -1.328510 0
M  V30 18 C -4.851148 3.266259 -2.372023 0
M  V30 19 C -6.264551 2.740018 -2.270871 0
M  V30 20 O -6.872262 3.123856 -1.100360 0
M  V30 21 C -5.997049 3.505087 -0.111049 0
M  V30 22 C -4.728950 2.709951 -0.046888 0
M  V30 23 C -2.252278 1.819728 -2.688652 0
M  V30 24 C -1.033979 1.151759 -2.876316 0
M  V30 25 C 1.152575 -2.064002 -0.608795 0
M  V30 26 N 0.288598 -2.906496 -1.201830 0
M  V30 27 C 0.370120 -4.107964 -0.564846 0
M  V30 28 C 1.305738 -3.961463 0.425538 0
M  V30 29 N 1.780651 -2.705248 0.392156 0
M  V30 30 C 2.771556 -3.582875 3.227852 0
M  V30 31 C 3.394085 -4.221528 4.279705 0
M  V30 32 H 4.396757 -5.612529 7.424410 0
M  V30 33 H 4.445623 -5.516604 7.459694 0
M  V30 34 H 6.506614 -3.283272 3.642267 0
M  V30 35 H 5.381273 -2.124256 1.733820 0
M  V30 36 H 3.752371 -0.252000 1.496351 0
M  V30 37 H 1.251144 -0.180622 -2.836645 0
M  V30 38 H -0.599747 0.237865 0.351270 0
M  V30 39 H -2.695067 1.391770 0.657077 0
M  V30 40 H -4.864830 4.347305 -2.103132 0
M  V30 41 H -4.491679 3.080158 -3.385339 0
M  V30 42 H -6.838286 3.148902 -3.119794 0
M  V30 43 H -6.204451 1.640243 -2.409093 0
M  V30 44 H -6.487413 3.437993 0.896050 0
M  V30 45 H -5.726222 4.574517 -0.269382 0
M  V30 46 H -4.928455 1.727976 0.432222 0
M  V30 47 H -4.015385 3.233772 0.617663 0
M  V30 48 H -2.648677 2.235278 -3.600972 0
M  V30 49 H -0.557034 1.073386 -3.836698 0
M  V30 50 H -0.255357 -4.929192 -0.899646 0
M  V30 51 H 1.551212 -4.778733 1.071105 0
M  V30 52 H 1.701001 -3.725717 3.198220 0
M  V30 53 H 2.857890 -4.814556 5.004971 0
M  V30 END ATOM
M  V30 BEGIN BOND
M  V30 1 1 1 2
M  V30 2 2 2 3
M  V30 3 1 2 4
M  V30 4 2 4 5
M  V30 5 1 5 6
M  V30 6 2 6 7
M  V30 7 1 7 8
M  V30 8 2 8 9
M  V30 9 1 9 10
M  V30 10 2 10 11
M  V30 11 1 11 12
M  V30 12 1 12 13
M  V30 13 2 13 14
M  V30 14 1 14 15
M  V30 15 2 15 16
M  V30 16 1 16 17
M  V30 17 1 17 18
M  V30 18 1 18 19
M  V30 19 1 19 20
M  V30 20 1 20 21
M  V30 21 1 21 22
M  V30 22 1 16 23
M  V30 23 2 23 24
M  V30 24 1 11 25
M  V30 25 2 25 26
M  V30 26 1 26 27
M  V30 27 2 27 28
M  V30 28 1 28 29
M  V30 29 1 7 30
M  V30 30 2 30 31
M  V30 31 1 31 4
M  V30 32 1 29 8
M  V30 33 1 24 13
M  V30 34 1 29 25
M  V30 35 1 22 17
M  V30 36 1 1 32
M  V30 37 1 1 33
M  V30 38 1 5 34
M  V30 39 1 6 35
M  V30 40 1 9 36
M  V30 41 1 12 37
M  V30 42 1 14 38
M  V30 43 1 15 39
M  V30 44 1 18 40
M  V30 45 1 18 41
M  V30 46 1 19 42
M  V30 47 1 19 43
M  V30 48 1 21 44
M  V30 49 1 21 45
M  V30 50 1 22 46
M  V30 51 1 22 47
M  V30 52 1 23 48
M  V30 53 1 24 49
M  V30 54 1 27 50
M  V30 55 1 28 51
M  V30 56 1 30 52
M  V30 57 1 31 53
M  V30 END BOND
M  V30 END CTAB
M  END
>  <Dataset>  (60) 
ChEMBL_Kinases

>  <Ligand_Instance>  (60) 
nan

>  <PDB_ID>  (60) 
nan

>  <Standardized_SMILES>  (60) 
NC(=O)c1ccc(-c2cnc(Nc3ccc(N4CCOCC4)cc3)c3nccn23)cc1

>  <Name>  (60) 
nan

>  <Pocket>  (60) 
nan

>  <ATP_Site>  (60) 
nan

>  <Peripheral>  (60) 
nan

>  <Num_H_Atoms_ProtBoundConf>  (60) 
nan

>  <Num_Resolved_Atoms>  (60) 
nan

>  <Num_Not_Resolved_Atoms>  (60) 
nan

$$$$
CHEMBL1956561
     RDKit          3D

  0  0  0  0  0  0  0  0  0  0999 V3000
M  V30 BEGIN CTAB
M  V30 COUNTS 46 50 0 0 0
M  V30 BEGIN ATOM
M  V30 1 C 0.237762 -2.527697 -1.599374 0
M  V30 2 C 1.337313 -1.905430 -2.148013 0
M  V30 3 N 1.065983 -0.592156 -2.239660 0
M  V30 4 C 1.685417 0.556561 -2.655943 0
M  V30 5 C 3.041076 0.273321 -3.167394 0
M  V30 6 C 3.441313 -0.700630 -4.045047 0
M  V30 7 N 4.794931 -0.573284 -4.197372 0
M  V30 8 N 5.183091 0.454577 -3.425323 0
M  V30 9 C 4.151779 1.020509 -2.763540 0
M  V30 10 C 1.089820 1.784306 -2.586041 0
M  V30 11 N -0.151466 1.925973 -2.097064 0
M  V30 12 C -0.835222 0.856055 -1.664176 0
M  V30 13 N -2.166421 0.865720 -1.093269 0
M  V30 14 C -1.916442 0.547878 0.290755 0
M  V30 15 C -0.830752 0.898408 1.062182 0
M  V30 16 C -0.613949 0.510365 2.365771 0
M  V30 17 C -1.551868 -0.292979 2.954855 0
M  V30 18 N -1.307731 -0.720342 4.289277 0
M  V30 19 C -2.099063 -1.671500 5.084509 0
M  V30 20 C -1.205194 -2.884782 5.219281 0
M  V30 21 O -0.091080 -2.529372 5.938684 0
M  V30 22 C 0.675210 -1.558775 5.292874 0
M  V30 23 C -0.187588 -0.304806 5.110471 0
M  V30 24 C -2.669140 -0.688988 2.259718 0
M  V30 25 C -2.857238 -0.277283 0.940964 0
M  V30 26 C -0.200444 -0.412447 -1.745706 0
M  V30 27 N -0.719893 -1.586824 -1.349633 0
M  V30 28 H 0.065343 -3.563897 -1.368765 0
M  V30 29 H 2.255243 -2.364452 -2.448317 0
M  V30 30 H 2.840193 -1.444180 -4.550970 0
M  V30 31 H 6.217544 0.698485 -3.414791 0
M  V30 32 H 4.232589 1.866072 -2.085481 0
M  V30 33 H 1.661701 2.624394 -2.941636 0
M  V30 34 H -3.106536 1.041217 -1.459239 0
M  V30 35 H -0.136546 1.542757 0.506948 0
M  V30 36 H 0.285689 0.891075 2.775758 0
M  V30 37 H -2.286533 -1.287653 6.114545 0
M  V30 38 H -3.034860 -1.957926 4.579709 0
M  V30 39 H -0.881229 -3.140275 4.173593 0
M  V30 40 H -1.709620 -3.747381 5.697254 0
M  V30 41 H 1.525959 -1.315651 5.957098 0
M  V30 42 H 0.964634 -1.967664 4.315329 0
M  V30 43 H -0.532108 0.007686 6.142727 0
M  V30 44 H 0.393246 0.529823 4.741957 0
M  V30 45 H -3.428781 -1.319389 2.696331 0
M  V30 46 H -3.737834 -0.605888 0.424064 0
M  V30 END ATOM
M  V30 BEGIN BOND
M  V30 1 2 1 2
M  V30 2 1 2 3
M  V30 3 1 3 4
M  V30 4 1 4 5
M  V30 5 1 5 6
M  V30 6 2 6 7
M  V30 7 1 7 8
M  V30 8 1 8 9
M  V30 9 2 4 10
M  V30 10 1 10 11
M  V30 11 2 11 12
M  V30 12 1 12 13
M  V30 13 1 13 14
M  V30 14 2 14 15
M  V30 15 1 15 16
M  V30 16 2 16 17
M  V30 17 1 17 18
M  V30 18 1 18 19
M  V30 19 1 19 20
M  V30 20 1 20 21
M  V30 21 1 21 22
M  V30 22 1 22 23
M  V30 23 1 17 24
M  V30 24 2 24 25
M  V30 25 1 12 26
M  V30 26 2 26 27
M  V30 27 1 27 1
M  V30 28 1 26 3
M  V30 29 2 9 5
M  V30 30 1 25 14
M  V30 31 1 23 18
M  V30 32 1 1 28
M  V30 33 1 2 29
M  V30 34 1 6 30
M  V30 35 1 8 31
M  V30 36 1 9 32
M  V30 37 1 10 33
M  V30 38 1 13 34
M  V30 39 1 15 35
M  V30 40 1 16 36
M  V30 41 1 19 37
M  V30 42 1 19 38
M  V30 43 1 20 39
M  V30 44 1 20 40
M  V30 45 1 22 41
M  V30 46 1 22 42
M  V30 47 1 23 43
M  V30 48 1 23 44
M  V30 49 1 24 45
M  V30 50 1 25 46
M  V30 END BOND
M  V30 END CTAB
M  END
>  <Dataset>  (61) 
ChEMBL_Kinases

>  <Ligand_Instance>  (61) 
nan

>  <PDB_ID>  (61) 
nan

>  <Standardized_SMILES>  (61) 
c1cn2c(-c3cn[nH]c3)cnc(Nc3ccc(N4CCOCC4)cc3)c2n1

>  <Name>  (61) 
nan

>  <Pocket>  (61) 
nan

>  <ATP_Site>  (61) 
nan

>  <Peripheral>  (61) 
nan

>  <Num_H_Atoms_ProtBoundConf>  (61) 
nan

>  <Num_Resolved_Atoms>  (61) 
nan

>  <Num_Not_Resolved_Atoms>  (61) 
nan

$$$$
CHEMBL195648
     RDKit          3D

  0  0  0  0  0  0  0  0  0  0999 V3000
M  V30 BEGIN CTAB
M  V30 COUNTS 38 42 0 0 0
M  V30 BEGIN ATOM
M  V30 1 N -0.351201 -6.391178 3.936214 0
M  V30 2 C -0.267229 -6.569509 2.536086 0
M  V30 3 O -0.317277 -7.790387 2.239047 0
M  V30 4 C -0.139894 -5.490170 1.563741 0
M  V30 5 C -0.072034 -5.859461 0.237589 0
M  V30 6 C 0.048333 -4.835542 -0.678175 0
M  V30 7 C 0.097394 -3.500961 -0.266589 0
M  V30 8 N 0.211036 -2.369758 -0.989946 0
M  V30 9 C 0.209262 -1.359961 -0.099218 0
M  V30 10 C 0.314477 0.055234 -0.453592 0
M  V30 11 C 0.424373 0.413443 -1.782116 0
M  V30 12 C 0.526461 1.734247 -2.170231 0
M  V30 13 C 0.519393 2.737389 -1.206186 0
M  V30 14 O 0.598212 4.042134 -1.261830 0
M  V30 15 C 0.549886 4.589955 -0.073801 0
M  V30 16 C 0.600218 5.923648 0.318998 0
M  V30 17 C 0.523222 6.177283 1.681581 0
M  V30 18 C 0.401637 5.138365 2.601154 0
M  V30 19 C 0.354986 3.827744 2.173352 0
M  V30 20 C 0.429843 3.552444 0.824026 0
M  V30 21 C 0.407239 2.340820 0.123010 0
M  V30 22 C 0.304422 1.026489 0.527570 0
M  V30 23 N 0.096908 -1.860646 1.144639 0
M  V30 24 C 0.022958 -3.219000 1.082786 0
M  V30 25 C -0.098784 -4.206939 2.049743 0
M  V30 26 H 0.151560 -6.503930 4.837792 0
M  V30 27 H -1.320563 -5.994144 3.944318 0
M  V30 28 H -0.113520 -6.915803 -0.048434 0
M  V30 29 H 0.105834 -5.071495 -1.736039 0
M  V30 30 H 0.285402 -2.286162 -2.025190 0
M  V30 31 H 0.435513 -0.325984 -2.580739 0
M  V30 32 H 0.613499 2.047570 -3.197260 0
M  V30 33 H 0.694902 6.746676 -0.385042 0
M  V30 34 H 0.561129 7.209243 2.000937 0
M  V30 35 H 0.343568 5.357925 3.653164 0
M  V30 36 H 0.260014 3.008486 2.884898 0
M  V30 37 H 0.218622 0.769124 1.583905 0
M  V30 38 H -0.155079 -3.968324 3.092016 0
M  V30 END ATOM
M  V30 BEGIN BOND
M  V30 1 1 1 2
M  V30 2 2 2 3
M  V30 3 1 2 4
M  V30 4 2 4 5
M  V30 5 1 5 6
M  V30 6 2 6 7
M  V30 7 1 7 8
M  V30 8 1 8 9
M  V30 9 1 9 10
M  V30 10 2 10 11
M  V30 11 1 11 12
M  V30 12 2 12 13
M  V30 13 1 13 14
M  V30 14 1 14 15
M  V30 15 2 15 16
M  V30 16 1 16 17
M  V30 17 2 17 18
M  V30 18 1 18 19
M  V30 19 2 19 20
M  V30 20 1 20 21
M  V30 21 2 21 22
M  V30 22 2 9 23
M  V30 23 1 23 24
M  V30 24 2 24 25
M  V30 25 1 25 4
M  V30 26 1 24 7
M  V30 27 1 22 10
M  V30 28 1 21 13
M  V30 29 1 20 15
M  V30 30 1 1 26
M  V30 31 1 1 27
M  V30 32 1 5 28
M  V30 33 1 6 29
M  V30 34 1 8 30
M  V30 35 1 11 31
M  V30 36 1 12 32
M  V30 37 1 16 33
M  V30 38 1 17 34
M  V30 39 1 18 35
M  V30 40 1 19 36
M  V30 41 1 22 37
M  V30 42 1 25 38
M  V30 END BOND
M  V30 END CTAB
M  END
>  <Dataset>  (62) 
ChEMBL_Kinases

>  <Ligand_Instance>  (62) 
nan

>  <PDB_ID>  (62) 
nan

>  <Standardized_SMILES>  (62) 
NC(=O)c1ccc2[nH]c(-c3ccc4oc5ccccc5c4c3)nc2c1

>  <Name>  (62) 
nan

>  <Pocket>  (62) 
nan

>  <ATP_Site>  (62) 
nan

>  <Peripheral>  (62) 
nan

>  <Num_H_Atoms_ProtBoundConf>  (62) 
nan

>  <Num_Resolved_Atoms>  (62) 
nan

>  <Num_Not_Resolved_Atoms>  (62) 
nan

$$$$
CHEMBL1956073
     RDKit          3D

  0  0  0  0  0  0  0  0  0  0999 V3000
M  V30 BEGIN CTAB
M  V30 COUNTS 66 69 0 0 0
M  V30 BEGIN ATOM
M  V30 1 C 0.250086 1.264334 5.510069 0
M  V30 2 C 0.422864 0.256379 4.401215 0 CFG=1
M  V30 3 C -0.591715 -0.815356 4.436810 0
M  V30 4 C -0.180689 -2.126045 4.676039 0
M  V30 5 C -1.147802 -3.135515 4.706318 0
M  V30 6 C -2.462176 -2.792892 4.499001 0
M  V30 7 C -2.836520 -1.494739 4.265944 0
M  V30 8 C -1.913876 -0.469307 4.228023 0
M  V30 9 C 0.500982 0.919476 3.044784 0 CFG=1
M  V30 10 C 1.635404 1.859311 2.941052 0
M  V30 11 O 1.842006 2.787995 3.794542 0
M  V30 12 N 2.624716 1.860893 1.908035 0
M  V30 13 C 3.692311 2.795733 1.869792 0
M  V30 14 C 4.902833 2.552125 2.476596 0
M  V30 15 C 5.963548 3.428201 2.465652 0
M  V30 16 C 5.817091 4.639298 1.803786 0
M  V30 17 I 7.330007 6.087886 1.688506 0
M  V30 18 C 4.608562 4.897856 1.190453 0
M  V30 19 C 3.536485 4.014165 1.200534 0
M  V30 20 F 2.355869 4.313376 0.577877 0
M  V30 21 N 0.463870 -0.076063 1.998552 0
M  V30 22 C 1.542488 -1.030287 1.900079 0
M  V30 23 O 2.601510 -1.224494 2.562029 0
M  V30 24 N 1.187127 -1.855517 0.768992 0
M  V30 25 C -0.255688 -1.808537 0.686866 0 CFG=2
M  V30 26 C -0.799224 -2.241322 -0.610513 0
M  V30 27 C -0.224740 -3.411533 -1.117040 0
M  V30 28 C -0.645463 -3.938519 -2.336457 0
M  V30 29 C -1.635768 -3.332187 -3.084811 0
M  V30 30 O -2.049209 -3.867500 -4.302571 0
M  V30 31 C -3.069171 -3.164764 -4.984287 0
M  V30 32 C -3.467844 -3.800419 -6.292143 0 CFG=2
M  V30 33 O -2.358811 -3.849029 -7.117900 0
M  V30 34 C -4.485011 -2.899918 -6.970686 0
M  V30 35 O -3.889204 -1.635822 -7.118315 0
M  V30 36 C -2.179336 -2.178346 -2.552199 0
M  V30 37 C -1.788267 -1.628428 -1.349658 0
M  V30 38 C -0.483137 -0.344211 0.956207 0
M  V30 39 O -1.167971 0.680552 0.616438 0
M  V30 40 H -0.115674 0.710629 6.398115 0
M  V30 41 H 1.212732 1.709591 5.768067 0
M  V30 42 H -0.426083 2.096775 5.234561 0
M  V30 43 H 1.448104 -0.186803 4.575911 0
M  V30 44 H 0.855432 -2.389889 4.838642 0
M  V30 45 H -0.843041 -4.162634 4.892201 0
M  V30 46 H -3.156069 -3.606720 4.533337 0
M  V30 47 H -3.897085 -1.331369 4.115289 0
M  V30 48 H -2.220910 0.531187 4.046050 0
M  V30 49 H -0.446628 1.519142 2.898298 0
M  V30 50 H 2.531389 1.127253 1.157740 0
M  V30 51 H 5.050130 1.603554 3.008403 0
M  V30 52 H 6.917269 3.249958 2.937579 0
M  V30 53 H 4.459308 5.830856 0.666659 0
M  V30 54 H 1.781943 -2.390932 0.116934 0
M  V30 55 H -0.769958 -2.349503 1.502341 0
M  V30 56 H 0.543840 -3.957492 -0.623124 0
M  V30 57 H -0.202885 -4.855993 -2.744490 0
M  V30 58 H -3.945585 -3.076544 -4.285970 0
M  V30 59 H -2.772318 -2.106606 -5.183720 0
M  V30 60 H -3.873616 -4.794831 -6.105450 0
M  V30 61 H -2.503773 -3.562232 -8.039671 0
M  V30 62 H -5.430588 -2.818072 -6.386803 0
M  V30 63 H -4.694507 -3.302952 -7.982678 0
M  V30 64 H -4.426888 -0.911887 -6.743591 0
M  V30 65 H -2.956447 -1.657742 -3.090243 0
M  V30 66 H -2.207450 -0.727871 -0.924762 0
M  V30 END ATOM
M  V30 BEGIN BOND
M  V30 1 1 1 2
M  V30 2 1 2 3
M  V30 3 2 3 4
M  V30 4 1 4 5
M  V30 5 2 5 6
M  V30 6 1 6 7
M  V30 7 2 7 8
M  V30 8 1 2 9
M  V30 9 1 9 10
M  V30 10 2 10 11
M  V30 11 1 10 12
M  V30 12 1 12 13
M  V30 13 2 13 14
M  V30 14 1 14 15
M  V30 15 2 15 16
M  V30 16 1 16 17
M  V30 17 1 16 18
M  V30 18 2 18 19
M  V30 19 1 19 20
M  V30 20 1 9 21
M  V30 21 1 21 22
M  V30 22 2 22 23
M  V30 23 1 22 24
M  V30 24 1 24 25
M  V30 25 1 25 26
M  V30 26 2 26 27
M  V30 27 1 27 28
M  V30 28 2 28 29
M  V30 29 1 29 30
M  V30 30 1 30 31
M  V30 31 1 31 32
M  V30 32 1 32 33
M  V30 33 1 32 34
M  V30 34 1 34 35
M  V30 35 1 29 36
M  V30 36 2 36 37
M  V30 37 1 25 38
M  V30 38 2 38 39
M  V30 39 1 8 3
M  V30 40 1 19 13
M  V30 41 1 38 21
M  V30 42 1 37 26
M  V30 43 1 1 40
M  V30 44 1 1 41
M  V30 45 1 1 42
M  V30 46 1 2 43 CFG=1
M  V30 47 1 4 44
M  V30 48 1 5 45
M  V30 49 1 6 46
M  V30 50 1 7 47
M  V30 51 1 8 48
M  V30 52 1 9 49 CFG=3
M  V30 53 1 12 50
M  V30 54 1 14 51
M  V30 55 1 15 52
M  V30 56 1 18 53
M  V30 57 1 24 54
M  V30 58 1 25 55 CFG=1
M  V30 59 1 27 56
M  V30 60 1 28 57
M  V30 61 1 31 58
M  V30 62 1 31 59
M  V30 63 1 32 60 CFG=1
M  V30 64 1 33 61
M  V30 65 1 34 62
M  V30 66 1 34 63
M  V30 67 1 35 64
M  V30 68 1 36 65
M  V30 69 1 37 66
M  V30 END BOND
M  V30 END CTAB
M  END
>  <Dataset>  (63) 
ChEMBL_Kinases

>  <Ligand_Instance>  (63) 
nan

>  <PDB_ID>  (63) 
nan

>  <Standardized_SMILES>  (63) 
C[C@@H](c1ccccc1)[C@@H](C(=O)Nc1ccc(I)cc1F)N1C(=O)N[C@H](c2ccc(OC[C@H](O)CO)cc2)C1=O

>  <Name>  (63) 
nan

>  <Pocket>  (63) 
nan

>  <ATP_Site>  (63) 
nan

>  <Peripheral>  (63) 
nan

>  <Num_H_Atoms_ProtBoundConf>  (63) 
nan

>  <Num_Resolved_Atoms>  (63) 
nan

>  <Num_Not_Resolved_Atoms>  (63) 
nan

$$$$
CHEMBL1945026
     RDKit          3D

  0  0  0  0  0  0  0  0  0  0999 V3000
M  V30 BEGIN CTAB
M  V30 COUNTS 54 58 0 0 0
M  V30 BEGIN ATOM
M  V30 1 O -0.893646 -4.947309 4.853001 0
M  V30 2 C -0.002372 -5.126110 3.952138 0
M  V30 3 C 1.397062 -4.683804 4.072948 0
M  V30 4 C 1.864673 -3.785143 3.013718 0
M  V30 5 C 2.645664 -2.724046 3.429724 0
M  V30 6 N 3.139132 -1.822839 2.527737 0
M  V30 7 C 2.877446 -1.945927 1.211707 0
M  V30 8 N 3.463840 -0.916272 0.416355 0
M  V30 9 C 2.669145 0.228752 0.058244 0
M  V30 10 C 3.111618 1.320165 -0.616209 0
M  V30 11 C 2.287568 2.395214 -0.944723 0
M  V30 12 C 0.956792 2.358819 -0.571279 0
M  V30 13 C 0.154286 3.515759 -0.937441 0
M  V30 14 O 0.719860 4.509804 -1.464752 0
M  V30 15 N -1.225972 3.567123 -0.726082 0
M  V30 16 C -2.277615 4.534962 -0.964336 0
M  V30 17 C -3.173631 3.855993 -2.020926 0
M  V30 18 C -3.742892 2.707869 -1.194576 0
M  V30 19 C -3.805252 3.210107 0.230718 0
M  V30 20 C -3.255777 4.638757 0.169627 0
M  V30 21 C 0.459595 1.278249 0.112471 0
M  V30 22 C 1.332207 0.252300 0.402932 0
M  V30 23 N 2.106660 -2.987597 0.772737 0
M  V30 24 C 1.609073 -3.890311 1.656527 0
M  V30 25 C 0.827926 -4.863336 0.882079 0
M  V30 26 C 1.116737 -4.892372 -0.466025 0
M  V30 27 C 0.430854 -5.772370 -1.287157 0
M  V30 28 C -0.525927 -6.596837 -0.724512 0
M  V30 29 Cl -1.446584 -7.740979 -1.675226 0
M  V30 30 C -0.835564 -6.588672 0.623646 0
M  V30 31 C -0.142426 -5.699374 1.453708 0
M  V30 32 N -0.584574 -5.818075 2.824480 0
M  V30 33 H 1.511641 -4.222334 5.088047 0
M  V30 34 H 2.096989 -5.566870 4.109747 0
M  V30 35 H 2.859221 -2.620397 4.485261 0
M  V30 36 H 4.460988 -0.901619 0.045109 0
M  V30 37 H 4.170190 1.338759 -0.908079 0
M  V30 38 H 2.749189 3.220749 -1.489204 0
M  V30 39 H -1.675382 2.744348 -0.299838 0
M  V30 40 H -1.910448 5.504545 -1.352830 0
M  V30 41 H -3.942812 4.573423 -2.304620 0
M  V30 42 H -2.540898 3.504407 -2.855443 0
M  V30 43 H -3.167050 1.772388 -1.314901 0
M  V30 44 H -4.795164 2.554406 -1.539260 0
M  V30 45 H -3.276122 2.573006 0.941855 0
M  V30 46 H -4.864399 3.273047 0.592794 0
M  V30 47 H -4.088921 5.292127 -0.194914 0
M  V30 48 H -2.837771 4.980013 1.122622 0
M  V30 49 H -0.560479 1.223190 0.413787 0
M  V30 50 H 0.907392 -0.602520 0.952837 0
M  V30 51 H 1.883565 -4.217683 -0.857308 0
M  V30 52 H 0.630038 -5.823457 -2.346175 0
M  V30 53 H -1.582843 -7.231090 1.068641 0
M  V30 54 H -1.393871 -6.464394 2.979319 0
M  V30 END ATOM
M  V30 BEGIN BOND
M  V30 1 2 1 2
M  V30 2 1 2 3
M  V30 3 1 3 4
M  V30 4 2 4 5
M  V30 5 1 5 6
M  V30 6 2 6 7
M  V30 7 1 7 8
M  V30 8 1 8 9
M  V30 9 2 9 10
M  V30 10 1 10 11
M  V30 11 2 11 12
M  V30 12 1 12 13
M  V30 13 2 13 14
M  V30 14 1 13 15
M  V30 15 1 15 16
M  V30 16 1 16 17
M  V30 17 1 17 18
M  V30 18 1 18 19
M  V30 19 1 19 20
M  V30 20 1 12 21
M  V30 21 2 21 22
M  V30 22 1 7 23
M  V30 23 2 23 24
M  V30 24 1 24 25
M  V30 25 2 25 26
M  V30 26 1 26 27
M  V30 27 2 27 28
M  V30 28 1 28 29
M  V30 29 1 28 30
M  V30 30 2 30 31
M  V30 31 1 31 32
M  V30 32 1 32 2
M  V30 33 1 24 4
M  V30 34 1 31 25
M  V30 35 1 22 9
M  V30 36 1 20 16
M  V30 37 1 3 33
M  V30 38 1 3 34
M  V30 39 1 5 35
M  V30 40 1 8 36
M  V30 41 1 10 37
M  V30 42 1 11 38
M  V30 43 1 15 39
M  V30 44 1 16 40
M  V30 45 1 17 41
M  V30 46 1 17 42
M  V30 47 1 18 43
M  V30 48 1 18 44
M  V30 49 1 19 45
M  V30 50 1 19 46
M  V30 51 1 20 47
M  V30 52 1 20 48
M  V30 53 1 21 49
M  V30 54 1 22 50
M  V30 55 1 26 51
M  V30 56 1 27 52
M  V30 57 1 30 53
M  V30 58 1 32 54
M  V30 END BOND
M  V30 END CTAB
M  END
>  <Dataset>  (64) 
ChEMBL_Kinases

>  <Ligand_Instance>  (64) 
nan

>  <PDB_ID>  (64) 
nan

>  <Standardized_SMILES>  (64) 
O=C1Cc2cnc(Nc3ccc(C(=O)NC4CCCC4)cc3)nc2-c2ccc(Cl)cc2N1

>  <Name>  (64) 
nan

>  <Pocket>  (64) 
nan

>  <ATP_Site>  (64) 
nan

>  <Peripheral>  (64) 
nan

>  <Num_H_Atoms_ProtBoundConf>  (64) 
nan

>  <Num_Resolved_Atoms>  (64) 
nan

>  <Num_Not_Resolved_Atoms>  (64) 
nan

$$$$
CHEMBL1952125
     RDKit          3D

  0  0  0  0  0  0  0  0  0  0999 V3000
M  V30 BEGIN CTAB
M  V30 COUNTS 51 55 0 0 0
M  V30 BEGIN ATOM
M  V30 1 F 4.641807 -3.808213 -0.799461 0
M  V30 2 C 5.615513 -3.001562 -0.266487 0
M  V30 3 F 6.830839 -3.635185 -0.528540 0
M  V30 4 F 5.517142 -2.897001 1.090691 0
M  V30 5 O 5.673302 -1.744940 -0.918533 0
M  V30 6 C 4.609866 -0.871650 -0.959605 0
M  V30 7 C 3.716366 -0.967518 -2.005627 0
M  V30 8 C 2.629839 -0.107675 -2.087104 0
M  V30 9 C 2.490127 0.843658 -1.072456 0
M  V30 10 C 3.406756 0.910440 -0.037848 0
M  V30 11 N 3.097897 1.940175 0.896516 0
M  V30 12 N 3.693166 3.082710 1.191790 0
M  V30 13 N 3.022910 3.715484 2.145750 0
M  V30 14 C 1.950083 2.956760 2.485235 0
M  V30 15 C 0.925581 3.105897 3.395043 0
M  V30 16 C -0.035578 2.121497 3.494997 0
M  V30 17 C 0.016713 0.991457 2.696219 0
M  V30 18 N -0.952408 -0.074523 2.747790 0
M  V30 19 C -0.927680 -1.251893 1.939088 0
M  V30 20 C -2.089785 -2.175038 2.238871 0
M  V30 21 C -2.727078 -1.848788 0.902868 0
M  V30 22 C -3.853397 -0.876418 1.086076 0
M  V30 23 C -4.775785 -0.803812 -0.104728 0
M  V30 24 N -5.270960 -2.155887 -0.308411 0
M  V30 25 C -4.161249 -2.909442 -0.866693 0
M  V30 26 C -3.082606 -3.088382 0.168124 0
M  V30 27 C -1.440943 -1.155745 0.536610 0
M  V30 28 N 1.028917 0.897054 1.832815 0
M  V30 29 C 2.000731 1.823480 1.685582 0
M  V30 30 C 4.485993 0.060698 0.048364 0
M  V30 31 H 3.833867 -1.702691 -2.779813 0
M  V30 32 H 1.930040 -0.172317 -2.893625 0
M  V30 33 H 1.625719 1.489178 -1.184259 0
M  V30 34 H 0.869878 3.980383 4.025221 0
M  V30 35 H -0.877901 2.172068 4.194734 0
M  V30 36 H -1.725274 0.078187 3.461062 0
M  V30 37 H 0.060806 -1.746529 1.951779 0
M  V30 38 H -2.670115 -1.841593 3.125044 0
M  V30 39 H -1.730217 -3.202264 2.380427 0
M  V30 40 H -4.469837 -1.133488 1.960185 0
M  V30 41 H -3.444702 0.141877 1.252701 0
M  V30 42 H -5.553595 -0.065240 0.093180 0
M  V30 43 H -4.144499 -0.540020 -0.999203 0
M  V30 44 H -6.113735 -2.190180 -0.893145 0
M  V30 45 H -4.549543 -3.921174 -1.122199 0
M  V30 46 H -3.823128 -2.429745 -1.797343 0
M  V30 47 H -2.202680 -3.535199 -0.339399 0
M  V30 48 H -3.454980 -3.885861 0.876238 0
M  V30 49 H -1.589944 -0.120442 0.138958 0
M  V30 50 H -0.911448 -1.755247 -0.237650 0
M  V30 51 H 5.152909 0.177948 0.884833 0
M  V30 END ATOM
M  V30 BEGIN BOND
M  V30 1 1 1 2
M  V30 2 1 2 3
M  V30 3 1 2 4
M  V30 4 1 2 5
M  V30 5 1 5 6
M  V30 6 2 6 7
M  V30 7 1 7 8
M  V30 8 2 8 9
M  V30 9 1 9 10
M  V30 10 1 10 11
M  V30 11 1 11 12
M  V30 12 2 12 13
M  V30 13 1 13 14
M  V30 14 2 14 15
M  V30 15 1 15 16
M  V30 16 2 16 17
M  V30 17 1 17 18
M  V30 18 1 18 19
M  V30 19 1 19 20
M  V30 20 1 20 21
M  V30 21 1 21 22
M  V30 22 1 22 23
M  V30 23 1 23 24
M  V30 24 1 24 25
M  V30 25 1 25 26
M  V30 26 1 21 27
M  V30 27 1 17 28
M  V30 28 2 28 29
M  V30 29 2 10 30
M  V30 30 1 30 6
M  V30 31 1 29 11
M  V30 32 1 29 14
M  V30 33 1 27 19
M  V30 34 1 26 21
M  V30 35 1 7 31
M  V30 36 1 8 32
M  V30 37 1 9 33
M  V30 38 1 15 34
M  V30 39 1 16 35
M  V30 40 1 18 36
M  V30 41 1 19 37
M  V30 42 1 20 38
M  V30 43 1 20 39
M  V30 44 1 22 40
M  V30 45 1 22 41
M  V30 46 1 23 42
M  V30 47 1 23 43
M  V30 48 1 24 44
M  V30 49 1 25 45
M  V30 50 1 25 46
M  V30 51 1 26 47
M  V30 52 1 26 48
M  V30 53 1 27 49
M  V30 54 1 27 50
M  V30 55 1 30 51
M  V30 END BOND
M  V30 END CTAB
M  END
>  <Dataset>  (65) 
ChEMBL_Kinases

>  <Ligand_Instance>  (65) 
nan

>  <PDB_ID>  (65) 
nan

>  <Standardized_SMILES>  (65) 
FC(F)(F)Oc1cccc(-n2nnc3ccc(NC4CC5(CCNCC5)C4)nc32)c1

>  <Name>  (65) 
nan

>  <Pocket>  (65) 
nan

>  <ATP_Site>  (65) 
nan

>  <Peripheral>  (65) 
nan

>  <Num_H_Atoms_ProtBoundConf>  (65) 
nan

>  <Num_Resolved_Atoms>  (65) 
nan

>  <Num_Not_Resolved_Atoms>  (65) 
nan

$$$$
CHEMBL1952126
     RDKit          3D

  0  0  0  0  0  0  0  0  0  0999 V3000
M  V30 BEGIN CTAB
M  V30 COUNTS 54 58 0 0 0
M  V30 BEGIN ATOM
M  V30 1 F 3.560933 -2.445618 0.387363 0
M  V30 2 C 3.478728 -3.089808 -0.849085 0
M  V30 3 F 2.287356 -3.797867 -0.860111 0
M  V30 4 F 4.567673 -3.914409 -1.044299 0
M  V30 5 O 3.507100 -2.122461 -1.906455 0
M  V30 6 C 2.556111 -1.122371 -2.042792 0
M  V30 7 C 1.369711 -1.213923 -2.766967 0
M  V30 8 C 0.495776 -0.150053 -2.832372 0
M  V30 9 C 0.754919 1.050613 -2.185374 0
M  V30 10 C 1.945017 1.145857 -1.456615 0
M  V30 11 N 2.230675 2.379870 -0.761526 0
M  V30 12 N 2.752291 3.565119 -1.020131 0
M  V30 13 N 2.726580 4.309584 0.097800 0
M  V30 14 C 2.172843 3.567388 1.086498 0
M  V30 15 C 1.932240 3.889168 2.402652 0
M  V30 16 C 1.350863 2.984779 3.262399 0
M  V30 17 C 1.029075 1.741991 2.716549 0
M  V30 18 N 0.432861 0.589062 3.280220 0
M  V30 19 C -0.822004 -0.074368 3.447060 0
M  V30 20 C -1.468673 -0.451799 2.129439 0
M  V30 21 C -0.657603 -1.384081 1.259680 0
M  V30 22 C -1.931907 -2.147024 0.980443 0
M  V30 23 C -2.627405 -1.773987 -0.310414 0
M  V30 24 C -3.984202 -2.428027 -0.304267 0
M  V30 25 N -3.965628 -3.800104 0.107574 0
M  V30 26 C -2.638363 -4.343964 0.017100 0
M  V30 27 C -1.759583 -3.648753 1.031732 0
M  V30 28 C -2.504558 -1.542679 2.239094 0
M  V30 29 N 1.286440 1.485999 1.431410 0
M  V30 30 C 1.848297 2.322407 0.549503 0
M  V30 31 C 2.833396 0.070581 -1.388398 0
M  V30 32 H 1.190369 -2.176214 -3.269105 0
M  V30 33 H -0.420553 -0.258112 -3.406031 0
M  V30 34 H 0.053801 1.880658 -2.247927 0
M  V30 35 H 2.160455 4.831833 2.877929 0
M  V30 36 H 1.082890 3.036390 4.304363 0
M  V30 37 H 1.280675 0.121123 3.698827 0
M  V30 38 H -1.525352 0.611490 3.953083 0
M  V30 39 H -0.751206 -0.977355 4.070968 0
M  V30 40 H -1.841553 0.451101 1.563555 0
M  V30 41 H -0.200470 -0.904565 0.370205 0
M  V30 42 H 0.010531 -2.018163 1.855279 0
M  V30 43 H -2.750634 -0.700531 -0.428376 0
M  V30 44 H -1.990621 -2.142566 -1.128280 0
M  V30 45 H -4.338890 -2.393956 -1.374406 0
M  V30 46 H -4.697020 -1.842863 0.289207 0
M  V30 47 H -4.399499 -3.974541 1.028084 0
M  V30 48 H -2.292543 -4.181480 -1.019225 0
M  V30 49 H -2.652147 -5.434533 0.225520 0
M  V30 50 H -0.704938 -3.900698 0.800639 0
M  V30 51 H -2.003821 -4.053834 2.040831 0
M  V30 52 H -3.560284 -1.209626 2.192929 0
M  V30 53 H -2.248890 -2.192623 3.106504 0
M  V30 54 H 3.731699 0.254495 -0.793583 0
M  V30 END ATOM
M  V30 BEGIN BOND
M  V30 1 1 1 2
M  V30 2 1 2 3
M  V30 3 1 2 4
M  V30 4 1 2 5
M  V30 5 1 5 6
M  V30 6 2 6 7
M  V30 7 1 7 8
M  V30 8 2 8 9
M  V30 9 1 9 10
M  V30 10 1 10 11
M  V30 11 1 11 12
M  V30 12 2 12 13
M  V30 13 1 13 14
M  V30 14 2 14 15
M  V30 15 1 15 16
M  V30 16 2 16 17
M  V30 17 1 17 18
M  V30 18 1 18 19
M  V30 19 1 19 20
M  V30 20 1 20 21
M  V30 21 1 21 22
M  V30 22 1 22 23
M  V30 23 1 23 24
M  V30 24 1 24 25
M  V30 25 1 25 26
M  V30 26 1 26 27
M  V30 27 1 22 28
M  V30 28 1 17 29
M  V30 29 2 29 30
M  V30 30 2 10 31
M  V30 31 1 31 6
M  V30 32 1 30 11
M  V30 33 1 30 14
M  V30 34 1 28 20
M  V30 35 1 27 22
M  V30 36 1 7 32
M  V30 37 1 8 33
M  V30 38 1 9 34
M  V30 39 1 15 35
M  V30 40 1 16 36
M  V30 41 1 18 37
M  V30 42 1 19 38
M  V30 43 1 19 39
M  V30 44 1 20 40
M  V30 45 1 21 41
M  V30 46 1 21 42
M  V30 47 1 23 43
M  V30 48 1 23 44
M  V30 49 1 24 45
M  V30 50 1 24 46
M  V30 51 1 25 47
M  V30 52 1 26 48
M  V30 53 1 26 49
M  V30 54 1 27 50
M  V30 55 1 27 51
M  V30 56 1 28 52
M  V30 57 1 28 53
M  V30 58 1 31 54
M  V30 END BOND
M  V30 END CTAB
M  END
>  <Dataset>  (66) 
ChEMBL_Kinases

>  <Ligand_Instance>  (66) 
nan

>  <PDB_ID>  (66) 
nan

>  <Standardized_SMILES>  (66) 
FC(F)(F)Oc1cccc(-n2nnc3ccc(NCC4CC5(CCNCC5)C4)nc32)c1

>  <Name>  (66) 
nan

>  <Pocket>  (66) 
nan

>  <ATP_Site>  (66) 
nan

>  <Peripheral>  (66) 
nan

>  <Num_H_Atoms_ProtBoundConf>  (66) 
nan

>  <Num_Resolved_Atoms>  (66) 
nan

>  <Num_Not_Resolved_Atoms>  (66) 
nan

$$$$
CHEMBL1952132
     RDKit          3D

  0  0  0  0  0  0  0  0  0  0999 V3000
M  V30 BEGIN CTAB
M  V30 COUNTS 46 49 0 0 0
M  V30 BEGIN ATOM
M  V30 1 O -4.629889 -3.431929 4.324479 0
M  V30 2 C -3.366500 -3.188423 3.780805 0 CFG=1
M  V30 3 C -3.418516 -3.487142 2.313660 0
M  V30 4 C -2.259120 -2.914072 1.533118 0
M  V30 5 C -2.164832 -1.391623 1.754950 0 CFG=2
M  V30 6 N -0.958952 -0.968365 1.111149 0
M  V30 7 C -0.561207 0.382016 0.968314 0
M  V30 8 C -1.302035 1.445511 1.401774 0
M  V30 9 C -0.957894 2.776985 1.295661 0
M  V30 10 C 0.249486 3.096141 0.695893 0
M  V30 11 N 0.958143 4.181594 0.390735 0
M  V30 12 N 2.087568 3.828934 -0.204409 0
M  V30 13 N 2.151549 2.493874 -0.306820 0
M  V30 14 C 3.189094 1.687433 -0.878759 0
M  V30 15 C 4.414168 1.740933 -0.246638 0
M  V30 16 C 5.477082 0.985387 -0.740756 0
M  V30 17 C 5.280818 0.199642 -1.852366 0
M  V30 18 C 4.042738 0.138700 -2.500136 0
M  V30 19 O 3.804730 -0.641352 -3.623516 0
M  V30 20 C 3.352788 -1.979303 -3.543658 0
M  V30 21 F 2.136729 -2.105616 -2.902308 0
M  V30 22 F 4.278778 -2.801395 -2.936284 0
M  V30 23 F 3.159958 -2.454890 -4.826470 0
M  V30 24 C 3.001757 0.893228 -1.997267 0
M  V30 25 C 1.005296 2.033187 0.254429 0
M  V30 26 N 0.593154 0.761448 0.398560 0
M  V30 27 C -1.873736 -1.249184 3.257964 0
M  V30 28 C -3.002707 -1.753744 4.089140 0
M  V30 29 H -4.602525 -4.341772 4.743619 0
M  V30 30 H -2.608862 -3.839813 4.277279 0
M  V30 31 H -3.354579 -4.588207 2.189291 0
M  V30 32 H -4.383655 -3.156845 1.864495 0
M  V30 33 H -1.328333 -3.345632 1.952485 0
M  V30 34 H -2.395791 -3.179259 0.484892 0
M  V30 35 H -3.077370 -0.874523 1.471338 0
M  V30 36 H -0.270506 -1.664010 0.690166 0
M  V30 37 H -2.262120 1.308437 1.875315 0
M  V30 38 H -1.560168 3.592291 1.645783 0
M  V30 39 H 4.682149 2.315450 0.623311 0
M  V30 40 H 6.478602 0.958538 -0.315744 0
M  V30 41 H 6.053206 -0.415405 -2.297230 0
M  V30 42 H 2.014209 0.915846 -2.421378 0
M  V30 43 H -0.997209 -1.942700 3.414725 0
M  V30 44 H -1.634099 -0.223627 3.546478 0
M  V30 45 H -3.898413 -1.117141 3.989240 0
M  V30 46 H -2.654688 -1.726067 5.142594 0
M  V30 END ATOM
M  V30 BEGIN BOND
M  V30 1 1 1 2
M  V30 2 1 2 3
M  V30 3 1 3 4
M  V30 4 1 4 5
M  V30 5 1 5 6
M  V30 6 1 6 7
M  V30 7 2 7 8
M  V30 8 1 8 9
M  V30 9 2 9 10
M  V30 10 1 10 11
M  V30 11 2 11 12
M  V30 12 1 12 13
M  V30 13 1 13 14
M  V30 14 2 14 15
M  V30 15 1 15 16
M  V30 16 2 16 17
M  V30 17 1 17 18
M  V30 18 1 18 19
M  V30 19 1 19 20
M  V30 20 1 20 21
M  V30 21 1 20 22
M  V30 22 1 20 23
M  V30 23 2 18 24
M  V30 24 1 13 25
M  V30 25 2 25 26
M  V30 26 1 5 27
M  V30 27 1 27 28
M  V30 28 1 28 2
M  V30 29 1 26 7
M  V30 30 1 25 10
M  V30 31 1 24 14
M  V30 32 1 1 29
M  V30 33 1 2 30 CFG=1
M  V30 34 1 3 31
M  V30 35 1 3 32
M  V30 36 1 4 33
M  V30 37 1 4 34
M  V30 38 1 5 35 CFG=3
M  V30 39 1 6 36
M  V30 40 1 8 37
M  V30 41 1 9 38
M  V30 42 1 15 39
M  V30 43 1 16 40
M  V30 44 1 17 41
M  V30 45 1 24 42
M  V30 46 1 27 43
M  V30 47 1 27 44
M  V30 48 1 28 45
M  V30 49 1 28 46
M  V30 END BOND
M  V30 END CTAB
M  END
>  <Dataset>  (67) 
ChEMBL_Kinases

>  <Ligand_Instance>  (67) 
nan

>  <PDB_ID>  (67) 
nan

>  <Standardized_SMILES>  (67) 
O[C@H]1CC[C@H](Nc2ccc3nnn(-c4cccc(OC(F)(F)F)c4)c3n2)CC1

>  <Name>  (67) 
nan

>  <Pocket>  (67) 
nan

>  <ATP_Site>  (67) 
nan

>  <Peripheral>  (67) 
nan

>  <Num_H_Atoms_ProtBoundConf>  (67) 
nan

>  <Num_Resolved_Atoms>  (67) 
nan

>  <Num_Not_Resolved_Atoms>  (67) 
nan

$$$$
CHEMBL1952133
     RDKit          3D

  0  0  0  0  0  0  0  0  0  0999 V3000
M  V30 BEGIN CTAB
M  V30 COUNTS 46 49 0 0 0
M  V30 BEGIN ATOM
M  V30 1 O -2.764161 -5.929390 1.742319 0
M  V30 2 C -3.102845 -4.886772 0.884152 0 CFG=1
M  V30 3 C -3.667260 -3.754275 1.681612 0
M  V30 4 C -2.572539 -2.729582 1.875809 0
M  V30 5 C -2.240434 -2.059806 0.530621 0 CFG=1
M  V30 6 N -1.095367 -1.238125 0.750510 0
M  V30 7 C -0.520542 -0.419626 -0.269909 0
M  V30 8 C -1.019508 -0.339701 -1.542717 0
M  V30 9 C -0.485733 0.438514 -2.549252 0
M  V30 10 C 0.631890 1.195955 -2.265666 0
M  V30 11 N 1.401151 2.054779 -2.995471 0
M  V30 12 N 2.353266 2.492750 -2.184924 0
M  V30 13 N 2.215116 1.949068 -0.986185 0
M  V30 14 C 3.083676 2.218370 0.107763 0
M  V30 15 C 4.278595 2.882544 -0.066538 0
M  V30 16 C 5.146367 3.161723 0.967386 0
M  V30 17 C 4.823376 2.764773 2.256496 0
M  V30 18 C 3.622048 2.087051 2.488722 0
M  V30 19 O 3.296549 1.688871 3.776342 0
M  V30 20 C 2.558163 2.559748 4.628638 0
M  V30 21 F 3.198355 3.750755 4.858244 0
M  V30 22 F 2.434113 1.947035 5.879168 0
M  V30 23 F 1.291066 2.790782 4.116499 0
M  V30 24 C 2.802554 1.842377 1.403937 0
M  V30 25 C 1.150171 1.127008 -0.981892 0
M  V30 26 N 0.566181 0.344347 -0.069359 0
M  V30 27 C -1.961822 -3.125864 -0.514246 0
M  V30 28 C -1.873942 -4.501511 0.104317 0
M  V30 29 H -2.788085 -5.643355 2.690904 0
M  V30 30 H -3.915483 -5.262573 0.219758 0
M  V30 31 H -4.573023 -3.307955 1.217945 0
M  V30 32 H -3.948656 -4.121620 2.688304 0
M  V30 33 H -2.861149 -1.957062 2.614708 0
M  V30 34 H -1.693370 -3.262148 2.292212 0
M  V30 35 H -3.153670 -1.549013 0.240172 0
M  V30 36 H -0.599142 -1.186005 1.692236 0
M  V30 37 H -1.889150 -0.900687 -1.831116 0
M  V30 38 H -0.909629 0.478220 -3.553376 0
M  V30 39 H 4.579464 3.216933 -1.066301 0
M  V30 40 H 6.084959 3.695377 0.761823 0
M  V30 41 H 5.525330 2.998499 3.047365 0
M  V30 42 H 1.905122 1.326582 1.632545 0
M  V30 43 H -2.693236 -3.094415 -1.326627 0
M  V30 44 H -0.962192 -2.914319 -0.941780 0
M  V30 45 H -1.838119 -5.221665 -0.764572 0
M  V30 46 H -0.930158 -4.653063 0.647322 0
M  V30 END ATOM
M  V30 BEGIN BOND
M  V30 1 1 1 2
M  V30 2 1 2 3
M  V30 3 1 3 4
M  V30 4 1 4 5
M  V30 5 1 5 6
M  V30 6 1 6 7
M  V30 7 2 7 8
M  V30 8 1 8 9
M  V30 9 2 9 10
M  V30 10 1 10 11
M  V30 11 2 11 12
M  V30 12 1 12 13
M  V30 13 1 13 14
M  V30 14 2 14 15
M  V30 15 1 15 16
M  V30 16 2 16 17
M  V30 17 1 17 18
M  V30 18 1 18 19
M  V30 19 1 19 20
M  V30 20 1 20 21
M  V30 21 1 20 22
M  V30 22 1 20 23
M  V30 23 2 18 24
M  V30 24 1 13 25
M  V30 25 2 25 26
M  V30 26 1 5 27
M  V30 27 1 27 28
M  V30 28 1 28 2
M  V30 29 1 26 7
M  V30 30 1 25 10
M  V30 31 1 24 14
M  V30 32 1 1 29
M  V30 33 1 2 30 CFG=3
M  V30 34 1 3 31
M  V30 35 1 3 32
M  V30 36 1 4 33
M  V30 37 1 4 34
M  V30 38 1 5 35 CFG=3
M  V30 39 1 6 36
M  V30 40 1 8 37
M  V30 41 1 9 38
M  V30 42 1 15 39
M  V30 43 1 16 40
M  V30 44 1 17 41
M  V30 45 1 24 42
M  V30 46 1 27 43
M  V30 47 1 27 44
M  V30 48 1 28 45
M  V30 49 1 28 46
M  V30 END BOND
M  V30 END CTAB
M  END
>  <Dataset>  (68) 
ChEMBL_Kinases

>  <Ligand_Instance>  (68) 
nan

>  <PDB_ID>  (68) 
nan

>  <Standardized_SMILES>  (68) 
O[C@H]1CC[C@@H](Nc2ccc3nnn(-c4cccc(OC(F)(F)F)c4)c3n2)CC1

>  <Name>  (68) 
nan

>  <Pocket>  (68) 
nan

>  <ATP_Site>  (68) 
nan

>  <Peripheral>  (68) 
nan

>  <Num_H_Atoms_ProtBoundConf>  (68) 
nan

>  <Num_Resolved_Atoms>  (68) 
nan

>  <Num_Not_Resolved_Atoms>  (68) 
nan

$$$$
CHEMBL1952134
     RDKit          3D

  0  0  0  0  0  0  0  0  0  0999 V3000
M  V30 BEGIN CTAB
M  V30 COUNTS 51 54 0 0 0
M  V30 BEGIN ATOM
M  V30 1 C 1.881487 -5.043511 2.535601 0
M  V30 2 N 1.545671 -3.924803 1.696048 0
M  V30 3 C 0.146870 -3.698565 1.395016 0
M  V30 4 C 2.592668 -3.119751 1.212622 0
M  V30 5 C 3.910043 -3.391749 1.510463 0
M  V30 6 C 4.955660 -2.616914 1.056811 0
M  V30 7 C 4.711450 -1.510521 0.266584 0
M  V30 8 C 3.400213 -1.194115 -0.060693 0
M  V30 9 N 3.158326 -0.041660 -0.870261 0
M  V30 10 N 3.759072 0.450256 -1.923470 0
M  V30 11 N 3.186328 1.563859 -2.342564 0
M  V30 12 C 2.142765 1.865643 -1.552681 0
M  V30 13 C 1.177529 2.845406 -1.448968 0
M  V30 14 C 0.205862 2.859710 -0.471055 0
M  V30 15 C 0.273234 1.786296 0.424416 0
M  V30 16 N -0.637815 1.652915 1.497207 0
M  V30 17 C -1.967169 1.257323 1.825292 0
M  V30 18 C -2.375787 -0.098708 1.319572 0
M  V30 19 C -2.325760 -0.173201 -0.195321 0
M  V30 20 C -3.154330 0.954404 -0.727119 0
M  V30 21 N -4.386852 1.219962 -0.110381 0
M  V30 22 C -4.817396 0.434505 0.976901 0
M  V30 23 C -3.804357 -0.368357 1.711506 0
M  V30 24 N 1.210573 0.818349 0.338362 0
M  V30 25 C 2.141522 0.840161 -0.630001 0
M  V30 26 C 2.391988 -2.009194 0.423168 0
M  V30 27 H 1.010111 -5.754369 2.640471 0
M  V30 28 H 2.713021 -5.661887 2.178548 0
M  V30 29 H 2.040770 -4.635398 3.570793 0
M  V30 30 H -0.419259 -3.254299 2.253472 0
M  V30 31 H -0.298077 -4.726317 1.238657 0
M  V30 32 H -0.034080 -3.167276 0.449228 0
M  V30 33 H 4.186890 -4.253116 2.133718 0
M  V30 34 H 5.977936 -2.877379 1.320882 0
M  V30 35 H 5.496433 -0.873362 -0.113563 0
M  V30 36 H 1.196092 3.643008 -2.183245 0
M  V30 37 H -0.550534 3.607996 -0.372545 0
M  V30 38 H -0.033088 1.995868 2.306959 0
M  V30 39 H -2.083691 1.230346 2.927924 0
M  V30 40 H -2.681205 2.023865 1.445446 0
M  V30 41 H -1.749632 -0.905704 1.756536 0
M  V30 42 H -2.664983 -1.180935 -0.489211 0
M  V30 43 H -1.288459 -0.056441 -0.568630 0
M  V30 44 H -3.305349 0.804011 -1.824829 0
M  V30 45 H -2.507435 1.875234 -0.644386 0
M  V30 46 H -4.650520 2.223291 -0.119133 0
M  V30 47 H -5.636302 -0.255901 0.632175 0
M  V30 48 H -5.318760 1.112201 1.729631 0
M  V30 49 H -3.835128 -0.185680 2.829358 0
M  V30 50 H -4.017138 -1.474734 1.618433 0
M  V30 51 H 1.378296 -1.737470 0.150916 0
M  V30 END ATOM
M  V30 BEGIN BOND
M  V30 1 1 1 2
M  V30 2 1 2 3
M  V30 3 1 2 4
M  V30 4 2 4 5
M  V30 5 1 5 6
M  V30 6 2 6 7
M  V30 7 1 7 8
M  V30 8 1 8 9
M  V30 9 1 9 10
M  V30 10 2 10 11
M  V30 11 1 11 12
M  V30 12 2 12 13
M  V30 13 1 13 14
M  V30 14 2 14 15
M  V30 15 1 15 16
M  V30 16 1 16 17
M  V30 17 1 17 18
M  V30 18 1 18 19
M  V30 19 1 19 20
M  V30 20 1 20 21
M  V30 21 1 21 22
M  V30 22 1 22 23
M  V30 23 1 15 24
M  V30 24 2 24 25
M  V30 25 2 8 26
M  V30 26 1 26 4
M  V30 27 1 25 9
M  V30 28 1 25 12
M  V30 29 1 23 18
M  V30 30 1 1 27
M  V30 31 1 1 28
M  V30 32 1 1 29
M  V30 33 1 3 30
M  V30 34 1 3 31
M  V30 35 1 3 32
M  V30 36 1 5 33
M  V30 37 1 6 34
M  V30 38 1 7 35
M  V30 39 1 13 36
M  V30 40 1 14 37
M  V30 41 1 16 38
M  V30 42 1 17 39
M  V30 43 1 17 40
M  V30 44 1 18 41
M  V30 45 1 19 42
M  V30 46 1 19 43
M  V30 47 1 20 44
M  V30 48 1 20 45
M  V30 49 1 21 46
M  V30 50 1 22 47
M  V30 51 1 22 48
M  V30 52 1 23 49
M  V30 53 1 23 50
M  V30 54 1 26 51
M  V30 END BOND
M  V30 END CTAB
M  END
>  <Dataset>  (69) 
ChEMBL_Kinases

>  <Ligand_Instance>  (69) 
nan

>  <PDB_ID>  (69) 
nan

>  <Standardized_SMILES>  (69) 
CN(C)c1cccc(-n2nnc3ccc(NCC4CCNCC4)nc32)c1

>  <Name>  (69) 
nan

>  <Pocket>  (69) 
nan

>  <ATP_Site>  (69) 
nan

>  <Peripheral>  (69) 
nan

>  <Num_H_Atoms_ProtBoundConf>  (69) 
nan

>  <Num_Resolved_Atoms>  (69) 
nan

>  <Num_Not_Resolved_Atoms>  (69) 
nan

$$$$
CHEMBL1952136
     RDKit          3D

  0  0  0  0  0  0  0  0  0  0999 V3000
M  V30 BEGIN CTAB
M  V30 COUNTS 53 57 0 0 0
M  V30 BEGIN ATOM
M  V30 1 F 4.414739 -2.012175 1.476269 0
M  V30 2 C 4.270383 -2.533799 0.208616 0
M  V30 3 F 3.451365 -3.652050 0.336234 0
M  V30 4 F 5.476632 -2.895190 -0.351278 0
M  V30 5 C 3.605644 -1.520538 -0.681896 0
M  V30 6 C 3.333705 -1.836272 -1.989373 0
M  V30 7 C 2.728032 -0.924177 -2.807342 0
M  V30 8 C 2.391945 0.317077 -2.307962 0
M  V30 9 C 2.662289 0.638942 -0.997606 0
M  V30 10 N 2.342290 1.901141 -0.406835 0
M  V30 11 N 2.525572 3.163582 -0.757887 0
M  V30 12 N 2.024421 3.968245 0.163389 0
M  V30 13 C 1.489024 3.245290 1.162465 0
M  V30 14 C 0.849285 3.554482 2.342028 0
M  V30 15 C 0.413036 2.533003 3.156346 0
M  V30 16 C 0.617144 1.211757 2.790274 0
M  V30 17 N 0.242860 0.032532 3.476409 0
M  V30 18 C -0.761813 -0.990204 3.528894 0
M  V30 19 C -0.820595 -1.809616 2.277402 0
M  V30 20 C -1.114441 -1.128900 0.989245 0
M  V30 21 C -2.417037 -1.883470 0.826595 0
M  V30 22 C -3.636430 -0.994112 0.836670 0
M  V30 23 C -4.166735 -0.720794 -0.542654 0
M  V30 24 N -4.473548 -1.913248 -1.286572 0
M  V30 25 C -3.789776 -3.082207 -0.789072 0
M  V30 26 C -2.381737 -2.827618 -0.357827 0
M  V30 27 C -2.122082 -2.564369 2.146772 0
M  V30 28 N 1.247602 0.978990 1.627896 0
M  V30 29 C 1.694718 1.933217 0.793293 0
M  V30 30 C 3.279767 -0.289322 -0.161693 0
M  V30 31 H 3.613120 -2.825077 -2.350301 0
M  V30 32 H 2.506447 -1.156023 -3.838087 0
M  V30 33 H 1.912416 1.076173 -2.911307 0
M  V30 34 H 0.680592 4.557649 2.645714 0
M  V30 35 H -0.099124 2.649544 4.102635 0
M  V30 36 H 1.074921 0.044561 4.132515 0
M  V30 37 H -0.501495 -1.670300 4.369599 0
M  V30 38 H -1.722510 -0.532595 3.807696 0
M  V30 39 H 0.103390 -2.458728 2.234442 0
M  V30 40 H -0.370293 -1.410690 0.192702 0
M  V30 41 H -1.317326 -0.041986 1.007588 0
M  V30 42 H -4.395358 -1.467358 1.492306 0
M  V30 43 H -3.315826 -0.017480 1.252028 0
M  V30 44 H -3.460716 -0.056844 -1.080636 0
M  V30 45 H -5.110943 -0.149562 -0.424553 0
M  V30 46 H -4.260165 -1.731019 -2.290555 0
M  V30 47 H -4.382009 -3.509843 0.029307 0
M  V30 48 H -3.775237 -3.807942 -1.647406 0
M  V30 49 H -1.980050 -3.802488 0.007695 0
M  V30 50 H -1.738713 -2.500910 -1.178652 0
M  V30 51 H -2.849807 -2.409480 2.950562 0
M  V30 52 H -1.896037 -3.652186 1.992320 0
M  V30 53 H 3.494530 -0.041595 0.871190 0
M  V30 END ATOM
M  V30 BEGIN BOND
M  V30 1 1 1 2
M  V30 2 1 2 3
M  V30 3 1 2 4
M  V30 4 1 2 5
M  V30 5 2 5 6
M  V30 6 1 6 7
M  V30 7 2 7 8
M  V30 8 1 8 9
M  V30 9 1 9 10
M  V30 10 1 10 11
M  V30 11 2 11 12
M  V30 12 1 12 13
M  V30 13 2 13 14
M  V30 14 1 14 15
M  V30 15 2 15 16
M  V30 16 1 16 17
M  V30 17 1 17 18
M  V30 18 1 18 19
M  V30 19 1 19 20
M  V30 20 1 20 21
M  V30 21 1 21 22
M  V30 22 1 22 23
M  V30 23 1 23 24
M  V30 24 1 24 25
M  V30 25 1 25 26
M  V30 26 1 21 27
M  V30 27 1 16 28
M  V30 28 2 28 29
M  V30 29 2 9 30
M  V30 30 1 30 5
M  V30 31 1 29 10
M  V30 32 1 29 13
M  V30 33 1 27 19
M  V30 34 1 26 21
M  V30 35 1 6 31
M  V30 36 1 7 32
M  V30 37 1 8 33
M  V30 38 1 14 34
M  V30 39 1 15 35
M  V30 40 1 17 36
M  V30 41 1 18 37
M  V30 42 1 18 38
M  V30 43 1 19 39
M  V30 44 1 20 40
M  V30 45 1 20 41
M  V30 46 1 22 42
M  V30 47 1 22 43
M  V30 48 1 23 44
M  V30 49 1 23 45
M  V30 50 1 24 46
M  V30 51 1 25 47
M  V30 52 1 25 48
M  V30 53 1 26 49
M  V30 54 1 26 50
M  V30 55 1 27 51
M  V30 56 1 27 52
M  V30 57 1 30 53
M  V30 END BOND
M  V30 END CTAB
M  END
>  <Dataset>  (70) 
ChEMBL_Kinases

>  <Ligand_Instance>  (70) 
nan

>  <PDB_ID>  (70) 
nan

>  <Standardized_SMILES>  (70) 
FC(F)(F)c1cccc(-n2nnc3ccc(NCC4CC5(CCNCC5)C4)nc32)c1

>  <Name>  (70) 
nan

>  <Pocket>  (70) 
nan

>  <ATP_Site>  (70) 
nan

>  <Peripheral>  (70) 
nan

>  <Num_H_Atoms_ProtBoundConf>  (70) 
nan

>  <Num_Resolved_Atoms>  (70) 
nan

>  <Num_Not_Resolved_Atoms>  (70) 
nan

$$$$
CHEMBL1952137
     RDKit          3D

  0  0  0  0  0  0  0  0  0  0999 V3000
M  V30 BEGIN CTAB
M  V30 COUNTS 50 54 0 0 0
M  V30 BEGIN ATOM
M  V30 1 F 5.370691 -2.618342 0.428649 0
M  V30 2 C 4.538886 -3.292474 -0.473505 0
M  V30 3 F 3.595607 -3.959241 0.283537 0
M  V30 4 F 5.306071 -4.180672 -1.199904 0
M  V30 5 C 3.838111 -2.323081 -1.358160 0
M  V30 6 C 3.318695 -2.851170 -2.523050 0
M  V30 7 C 2.638707 -2.089195 -3.454417 0
M  V30 8 C 2.464158 -0.745364 -3.224477 0
M  V30 9 C 2.977208 -0.205861 -2.066562 0
M  V30 10 N 2.883296 1.179508 -1.672303 0
M  V30 11 N 3.542039 2.183274 -2.231273 0
M  V30 12 N 3.226025 3.333728 -1.627247 0
M  V30 13 C 2.342873 3.048693 -0.659563 0
M  V30 14 C 1.640154 3.742851 0.299954 0
M  V30 15 C 0.774890 3.083919 1.169895 0
M  V30 16 C 0.581191 1.737962 1.117994 0
M  V30 17 N -0.288753 1.005251 1.978213 0
M  V30 18 C -0.420282 -0.449898 1.831610 0
M  V30 19 C -1.382724 -1.061537 2.824290 0
M  V30 20 C -2.396742 -1.181016 1.734705 0
M  V30 21 C -3.550735 -0.209440 1.819040 0
M  V30 22 C -4.224006 -0.409371 3.137663 0
M  V30 23 N -4.707519 -1.751537 3.245535 0
M  V30 24 C -3.725920 -2.773501 3.008680 0
M  V30 25 C -2.990477 -2.570360 1.688074 0
M  V30 26 C -1.345555 -0.865759 0.724282 0
M  V30 27 N 1.276444 1.078449 0.174280 0
M  V30 28 C 2.120276 1.681381 -0.682278 0
M  V30 29 C 3.655126 -0.962777 -1.136909 0
M  V30 30 H 3.414559 -3.897055 -2.775105 0
M  V30 31 H 2.221970 -2.478845 -4.375142 0
M  V30 32 H 1.956518 -0.029186 -3.859598 0
M  V30 33 H 1.789809 4.812026 0.346087 0
M  V30 34 H 0.226086 3.644536 1.923036 0
M  V30 35 H -0.828723 1.523200 2.712313 0
M  V30 36 H 0.566193 -0.949070 1.842177 0
M  V30 37 H -1.009951 -2.068079 3.171051 0
M  V30 38 H -1.655657 -0.378326 3.657140 0
M  V30 39 H -4.273212 -0.478627 1.029106 0
M  V30 40 H -3.166041 0.819675 1.680593 0
M  V30 41 H -3.644815 -0.065576 4.004840 0
M  V30 42 H -5.141813 0.246255 3.130975 0
M  V30 43 H -5.001336 -1.873683 4.256236 0
M  V30 44 H -4.263418 -3.739201 2.908087 0
M  V30 45 H -3.000531 -2.886674 3.846519 0
M  V30 46 H -2.212275 -3.359381 1.654614 0
M  V30 47 H -3.703527 -2.725144 0.861212 0
M  V30 48 H -1.564711 0.008686 0.064639 0
M  V30 49 H -0.947727 -1.742684 0.141128 0
M  V30 50 H 4.082390 -0.598705 -0.207402 0
M  V30 END ATOM
M  V30 BEGIN BOND
M  V30 1 1 1 2
M  V30 2 1 2 3
M  V30 3 1 2 4
M  V30 4 1 2 5
M  V30 5 2 5 6
M  V30 6 1 6 7
M  V30 7 2 7 8
M  V30 8 1 8 9
M  V30 9 1 9 10
M  V30 10 1 10 11
M  V30 11 2 11 12
M  V30 12 1 12 13
M  V30 13 2 13 14
M  V30 14 1 14 15
M  V30 15 2 15 16
M  V30 16 1 16 17
M  V30 17 1 17 18
M  V30 18 1 18 19
M  V30 19 1 19 20
M  V30 20 1 20 21
M  V30 21 1 21 22
M  V30 22 1 22 23
M  V30 23 1 23 24
M  V30 24 1 24 25
M  V30 25 1 20 26
M  V30 26 1 16 27
M  V30 27 2 27 28
M  V30 28 2 9 29
M  V30 29 1 29 5
M  V30 30 1 28 10
M  V30 31 1 28 13
M  V30 32 1 26 18
M  V30 33 1 25 20
M  V30 34 1 6 30
M  V30 35 1 7 31
M  V30 36 1 8 32
M  V30 37 1 14 33
M  V30 38 1 15 34
M  V30 39 1 17 35
M  V30 40 1 18 36
M  V30 41 1 19 37
M  V30 42 1 19 38
M  V30 43 1 21 39
M  V30 44 1 21 40
M  V30 45 1 22 41
M  V30 46 1 22 42
M  V30 47 1 23 43
M  V30 48 1 24 44
M  V30 49 1 24 45
M  V30 50 1 25 46
M  V30 51 1 25 47
M  V30 52 1 26 48
M  V30 53 1 26 49
M  V30 54 1 29 50
M  V30 END BOND
M  V30 END CTAB
M  END
>  <Dataset>  (71) 
ChEMBL_Kinases

>  <Ligand_Instance>  (71) 
nan

>  <PDB_ID>  (71) 
nan

>  <Standardized_SMILES>  (71) 
FC(F)(F)c1cccc(-n2nnc3ccc(NC4CC5(CCNCC5)C4)nc32)c1

>  <Name>  (71) 
nan

>  <Pocket>  (71) 
nan

>  <ATP_Site>  (71) 
nan

>  <Peripheral>  (71) 
nan

>  <Num_H_Atoms_ProtBoundConf>  (71) 
nan

>  <Num_Resolved_Atoms>  (71) 
nan

>  <Num_Not_Resolved_Atoms>  (71) 
nan

$$$$
CHEMBL195599
     RDKit          3D

  0  0  0  0  0  0  0  0  0  0999 V3000
M  V30 BEGIN CTAB
M  V30 COUNTS 39 42 0 0 0
M  V30 BEGIN ATOM
M  V30 1 N -1.801535 -7.611368 0.907738 0
M  V30 2 C -0.582805 -7.465376 0.217844 0
M  V30 3 O -0.014514 -8.456793 -0.252278 0
M  V30 4 C -0.006877 -6.129459 0.069325 0
M  V30 5 C 1.185002 -5.985355 -0.605940 0
M  V30 6 C 1.744750 -4.709792 -0.753469 0
M  V30 7 C 1.132354 -3.575003 -0.236775 0
M  V30 8 N 1.423493 -2.261538 -0.222339 0
M  V30 9 C 0.439647 -1.606179 0.443722 0
M  V30 10 C 0.400406 -0.161176 0.669283 0
M  V30 11 C 1.432938 0.610354 0.175045 0
M  V30 12 C 1.367064 1.984028 0.406027 0
M  V30 13 C 0.304166 2.565650 1.107659 0
M  V30 14 C 0.270160 4.006805 1.329313 0
M  V30 15 C -0.328168 4.489470 2.474114 0
M  V30 16 C -0.429518 5.832638 2.807756 0
M  V30 17 C 0.116044 6.759994 1.915451 0
M  V30 18 Cl 0.007051 8.463458 2.303519 0
M  V30 19 C 0.707411 6.279923 0.783632 0
M  V30 20 C 0.808920 4.941991 0.450232 0
M  V30 21 C -0.706471 1.753670 1.583442 0
M  V30 22 C -0.666192 0.375121 1.366715 0
M  V30 23 N -0.453109 -2.526907 0.835457 0
M  V30 24 C -0.071637 -3.760322 0.439770 0
M  V30 25 C -0.637539 -5.018866 0.593282 0
M  V30 26 H -1.522933 -7.435721 1.905212 0
M  V30 27 H -2.810038 -7.810778 0.840967 0
M  V30 28 H 1.646831 -6.872431 -1.000004 0
M  V30 29 H 2.686686 -4.611262 -1.289215 0
M  V30 30 H 2.277955 -1.815839 -0.658406 0
M  V30 31 H 2.283943 0.226180 -0.375271 0
M  V30 32 H 2.174582 2.604960 0.022011 0
M  V30 33 H -0.760853 3.780202 3.184742 0
M  V30 34 H -0.907989 6.161068 3.716726 0
M  V30 35 H 1.142336 6.993455 0.069315 0
M  V30 36 H 1.282539 4.576788 -0.454095 0
M  V30 37 H -1.541565 2.199091 2.133072 0
M  V30 38 H -1.442257 -0.285883 1.726818 0
M  V30 39 H -1.563312 -5.145604 1.115717 0
M  V30 END ATOM
M  V30 BEGIN BOND
M  V30 1 1 1 2
M  V30 2 2 2 3
M  V30 3 1 2 4
M  V30 4 2 4 5
M  V30 5 1 5 6
M  V30 6 2 6 7
M  V30 7 1 7 8
M  V30 8 1 8 9
M  V30 9 1 9 10
M  V30 10 2 10 11
M  V30 11 1 11 12
M  V30 12 2 12 13
M  V30 13 1 13 14
M  V30 14 2 14 15
M  V30 15 1 15 16
M  V30 16 2 16 17
M  V30 17 1 17 18
M  V30 18 1 17 19
M  V30 19 2 19 20
M  V30 20 1 13 21
M  V30 21 2 21 22
M  V30 22 2 9 23
M  V30 23 1 23 24
M  V30 24 2 24 25
M  V30 25 1 25 4
M  V30 26 1 24 7
M  V30 27 1 22 10
M  V30 28 1 20 14
M  V30 29 1 1 26
M  V30 30 1 1 27
M  V30 31 1 5 28
M  V30 32 1 6 29
M  V30 33 1 8 30
M  V30 34 1 11 31
M  V30 35 1 12 32
M  V30 36 1 15 33
M  V30 37 1 16 34
M  V30 38 1 19 35
M  V30 39 1 20 36
M  V30 40 1 21 37
M  V30 41 1 22 38
M  V30 42 1 25 39
M  V30 END BOND
M  V30 END CTAB
M  END
>  <Dataset>  (72) 
ChEMBL_Kinases

>  <Ligand_Instance>  (72) 
nan

>  <PDB_ID>  (72) 
nan

>  <Standardized_SMILES>  (72) 
NC(=O)c1ccc2[nH]c(-c3ccc(-c4ccc(Cl)cc4)cc3)nc2c1

>  <Name>  (72) 
nan

>  <Pocket>  (72) 
nan

>  <ATP_Site>  (72) 
nan

>  <Peripheral>  (72) 
nan

>  <Num_H_Atoms_ProtBoundConf>  (72) 
nan

>  <Num_Resolved_Atoms>  (72) 
nan

>  <Num_Not_Resolved_Atoms>  (72) 
nan

$$$$
CHEMBL1952143
     RDKit          3D

  0  0  0  0  0  0  0  0  0  0999 V3000
M  V30 BEGIN CTAB
M  V30 COUNTS 55 58 0 0 0
M  V30 BEGIN ATOM
M  V30 1 C 3.300757 -1.179080 6.170823 0
M  V30 2 O 1.987684 -1.493861 5.759988 0
M  V30 3 C 1.481627 -1.048259 4.548829 0
M  V30 4 C 2.288797 -0.286427 3.746152 0
M  V30 5 C 1.826084 0.188240 2.513903 0
M  V30 6 N 2.635587 0.991175 1.669511 0
M  V30 7 C 2.419628 1.543033 0.362269 0
M  V30 8 C 2.336731 0.591493 -0.769623 0
M  V30 9 C 1.274872 -0.435488 -0.758940 0
M  V30 10 C 1.135526 -0.906434 -2.222338 0
M  V30 11 N 0.337738 0.095550 -2.888108 0
M  V30 12 C 0.722690 1.442054 -2.503664 0
M  V30 13 C 2.163418 1.422680 -2.049589 0
M  V30 14 N 0.565708 -0.169990 2.223559 0
M  V30 15 C -0.246762 -0.901900 2.966695 0
M  V30 16 C 0.196551 -1.374539 4.180486 0
M  V30 17 N -0.812718 -2.083196 4.731135 0
M  V30 18 N -1.849484 -2.050991 3.885223 0
M  V30 19 N -1.517883 -1.339555 2.815572 0
M  V30 20 C -2.344828 -1.066780 1.682121 0
M  V30 21 C -3.159393 0.028370 1.687054 0
M  V30 22 C -3.966303 0.292946 0.578342 0
M  V30 23 C -3.908691 -0.572994 -0.492386 0
M  V30 24 C -3.095040 -1.697121 -0.538337 0
M  V30 25 N -3.065286 -2.562157 -1.658617 0
M  V30 26 C -2.180522 -3.730024 -1.634650 0
M  V30 27 C -3.895723 -2.297477 -2.810003 0
M  V30 28 C -2.333935 -1.896775 0.575153 0
M  V30 29 H 3.364997 -1.484472 7.243396 0
M  V30 30 H 4.036331 -1.781009 5.582056 0
M  V30 31 H 3.530748 -0.097751 6.084315 0
M  V30 32 H 3.289024 -0.046741 4.059448 0
M  V30 33 H 3.585344 1.218792 2.106209 0
M  V30 34 H 3.259759 2.243346 0.108980 0
M  V30 35 H 1.527632 2.251950 0.371453 0
M  V30 36 H 3.313617 0.055156 -0.906160 0
M  V30 37 H 1.486165 -1.315715 -0.112324 0
M  V30 38 H 0.268160 -0.055834 -0.517721 0
M  V30 39 H 0.598005 -1.856132 -2.292295 0
M  V30 40 H 2.154066 -0.934920 -2.636861 0
M  V30 41 H -0.674665 -0.043630 -2.830242 0
M  V30 42 H 0.033326 1.922819 -1.798788 0
M  V30 43 H 0.712414 2.046905 -3.433992 0
M  V30 44 H 2.765040 1.017427 -2.882511 0
M  V30 45 H 2.519994 2.467847 -1.872804 0
M  V30 46 H -3.175067 0.680183 2.543372 0
M  V30 47 H -4.593967 1.162445 0.617012 0
M  V30 48 H -4.546780 -0.321363 -1.311456 0
M  V30 49 H -2.006287 -4.034873 -2.689472 0
M  V30 50 H -1.200696 -3.428251 -1.219619 0
M  V30 51 H -2.626857 -4.587063 -1.106744 0
M  V30 52 H -4.915765 -2.736997 -2.677079 0
M  V30 53 H -3.982106 -1.214424 -3.055967 0
M  V30 54 H -3.411096 -2.827439 -3.681284 0
M  V30 55 H -1.663084 -2.743684 0.645767 0
M  V30 END ATOM
M  V30 BEGIN BOND
M  V30 1 1 1 2
M  V30 2 1 2 3
M  V30 3 2 3 4
M  V30 4 1 4 5
M  V30 5 1 5 6
M  V30 6 1 6 7
M  V30 7 1 7 8
M  V30 8 1 8 9
M  V30 9 1 9 10
M  V30 10 1 10 11
M  V30 11 1 11 12
M  V30 12 1 12 13
M  V30 13 2 5 14
M  V30 14 1 14 15
M  V30 15 2 15 16
M  V30 16 1 16 17
M  V30 17 2 17 18
M  V30 18 1 18 19
M  V30 19 1 19 20
M  V30 20 2 20 21
M  V30 21 1 21 22
M  V30 22 2 22 23
M  V30 23 1 23 24
M  V30 24 1 24 25
M  V30 25 1 25 26
M  V30 26 1 25 27
M  V30 27 2 24 28
M  V30 28 1 16 3
M  V30 29 1 28 20
M  V30 30 1 13 8
M  V30 31 1 19 15
M  V30 32 1 1 29
M  V30 33 1 1 30
M  V30 34 1 1 31
M  V30 35 1 4 32
M  V30 36 1 6 33
M  V30 37 1 7 34
M  V30 38 1 7 35
M  V30 39 1 8 36
M  V30 40 1 9 37
M  V30 41 1 9 38
M  V30 42 1 10 39
M  V30 43 1 10 40
M  V30 44 1 11 41
M  V30 45 1 12 42
M  V30 46 1 12 43
M  V30 47 1 13 44
M  V30 48 1 13 45
M  V30 49 1 21 46
M  V30 50 1 22 47
M  V30 51 1 23 48
M  V30 52 1 26 49
M  V30 53 1 26 50
M  V30 54 1 26 51
M  V30 55 1 27 52
M  V30 56 1 27 53
M  V30 57 1 27 54
M  V30 58 1 28 55
M  V30 END BOND
M  V30 END CTAB
M  END
>  <Dataset>  (73) 
ChEMBL_Kinases

>  <Ligand_Instance>  (73) 
nan

>  <PDB_ID>  (73) 
nan

>  <Standardized_SMILES>  (73) 
COc1cc(NCC2CCNCC2)nc2c1nnn2-c1cccc(N(C)C)c1

>  <Name>  (73) 
nan

>  <Pocket>  (73) 
nan

>  <ATP_Site>  (73) 
nan

>  <Peripheral>  (73) 
nan

>  <Num_H_Atoms_ProtBoundConf>  (73) 
nan

>  <Num_Resolved_Atoms>  (73) 
nan

>  <Num_Not_Resolved_Atoms>  (73) 
nan

$$$$
CHEMBL1952144
     RDKit          3D

  0  0  0  0  0  0  0  0  0  0999 V3000
M  V30 BEGIN CTAB
M  V30 COUNTS 47 50 0 0 0
M  V30 BEGIN ATOM
M  V30 1 F 5.073156 -1.283276 2.916418 0
M  V30 2 C 4.870359 -2.469174 2.211138 0
M  V30 3 F 4.776649 -3.459887 3.181563 0
M  V30 4 F 5.860861 -2.730881 1.311729 0
M  V30 5 O 3.598496 -2.357582 1.629054 0
M  V30 6 C 3.241767 -1.361114 0.731041 0
M  V30 7 C 3.446870 -1.624730 -0.609017 0
M  V30 8 C 3.129652 -0.708259 -1.589884 0
M  V30 9 C 2.590064 0.512319 -1.227654 0
M  V30 10 C 2.374477 0.802244 0.103863 0
M  V30 11 N 1.828519 2.010143 0.633017 0
M  V30 12 N 2.546130 3.088564 0.985739 0
M  V30 13 N 1.702763 4.024511 1.437517 0
M  V30 14 C 0.465299 3.543363 1.371270 0
M  V30 15 C -0.785816 4.003204 1.676369 0
M  V30 16 C -1.928491 3.265670 1.499901 0
M  V30 17 Cl -3.534067 3.866740 1.895767 0
M  V30 18 C -1.847261 1.989406 0.990008 0
M  V30 19 N -2.926657 1.110905 0.734621 0
M  V30 20 C -3.163646 -0.218169 0.238697 0
M  V30 21 C -2.707298 -1.345701 1.095027 0
M  V30 22 C -1.255958 -1.421212 1.391552 0
M  V30 23 C -0.836381 -2.773693 1.941678 0
M  V30 24 N -1.213280 -3.845177 1.052980 0
M  V30 25 C -1.953977 -3.350782 -0.091131 0
M  V30 26 C -3.164033 -2.622297 0.422289 0
M  V30 27 N -0.601512 1.580000 0.705287 0
M  V30 28 C 0.521595 2.264592 0.862888 0
M  V30 29 C 2.702075 -0.138839 1.084534 0
M  V30 30 H 3.871109 -2.580975 -0.914214 0
M  V30 31 H 3.270912 -0.866554 -2.652550 0
M  V30 32 H 2.311752 1.290276 -1.931508 0
M  V30 33 H -0.949169 4.994647 2.082410 0
M  V30 34 H -3.826306 1.621390 1.008005 0
M  V30 35 H -4.244899 -0.299610 -0.018619 0
M  V30 36 H -2.589710 -0.264261 -0.748973 0
M  V30 37 H -3.318258 -1.250843 2.056646 0
M  V30 38 H -0.637736 -1.144818 0.513748 0
M  V30 39 H -1.013526 -0.707986 2.201201 0
M  V30 40 H 0.264194 -2.765648 2.021924 0
M  V30 41 H -1.268263 -2.969106 2.935421 0
M  V30 42 H -1.604742 -4.678296 1.496171 0
M  V30 43 H -1.296470 -2.690197 -0.689243 0
M  V30 44 H -2.244189 -4.244096 -0.694339 0
M  V30 45 H -3.844326 -2.437055 -0.442060 0
M  V30 46 H -3.670048 -3.299925 1.157275 0
M  V30 47 H 2.569406 -0.002102 2.154041 0
M  V30 END ATOM
M  V30 BEGIN BOND
M  V30 1 1 1 2
M  V30 2 1 2 3
M  V30 3 1 2 4
M  V30 4 1 2 5
M  V30 5 1 5 6
M  V30 6 2 6 7
M  V30 7 1 7 8
M  V30 8 2 8 9
M  V30 9 1 9 10
M  V30 10 1 10 11
M  V30 11 1 11 12
M  V30 12 2 12 13
M  V30 13 1 13 14
M  V30 14 2 14 15
M  V30 15 1 15 16
M  V30 16 1 16 17
M  V30 17 2 16 18
M  V30 18 1 18 19
M  V30 19 1 19 20
M  V30 20 1 20 21
M  V30 21 1 21 22
M  V30 22 1 22 23
M  V30 23 1 23 24
M  V30 24 1 24 25
M  V30 25 1 25 26
M  V30 26 1 18 27
M  V30 27 2 27 28
M  V30 28 2 10 29
M  V30 29 1 29 6
M  V30 30 1 28 11
M  V30 31 1 28 14
M  V30 32 1 26 21
M  V30 33 1 7 30
M  V30 34 1 8 31
M  V30 35 1 9 32
M  V30 36 1 15 33
M  V30 37 1 19 34
M  V30 38 1 20 35
M  V30 39 1 20 36
M  V30 40 1 21 37
M  V30 41 1 22 38
M  V30 42 1 22 39
M  V30 43 1 23 40
M  V30 44 1 23 41
M  V30 45 1 24 42
M  V30 46 1 25 43
M  V30 47 1 25 44
M  V30 48 1 26 45
M  V30 49 1 26 46
M  V30 50 1 29 47
M  V30 END BOND
M  V30 END CTAB
M  END
>  <Dataset>  (74) 
ChEMBL_Kinases

>  <Ligand_Instance>  (74) 
nan

>  <PDB_ID>  (74) 
nan

>  <Standardized_SMILES>  (74) 
FC(F)(F)Oc1cccc(-n2nnc3cc(Cl)c(NCC4CCNCC4)nc32)c1

>  <Name>  (74) 
nan

>  <Pocket>  (74) 
nan

>  <ATP_Site>  (74) 
nan

>  <Peripheral>  (74) 
nan

>  <Num_H_Atoms_ProtBoundConf>  (74) 
nan

>  <Num_Resolved_Atoms>  (74) 
nan

>  <Num_Not_Resolved_Atoms>  (74) 
nan

$$$$
CHEMBL1952328
     RDKit          3D

  0  0  0  0  0  0  0  0  0  0999 V3000
M  V30 BEGIN CTAB
M  V30 COUNTS 40 43 0 0 0
M  V30 BEGIN ATOM
M  V30 1 O -0.293086 -5.670242 2.701254 0
M  V30 2 C 0.266932 -4.681062 1.894346 0
M  V30 3 C 0.858822 -5.046880 0.684414 0
M  V30 4 C 1.420474 -4.063004 -0.125620 0
M  V30 5 C 1.402579 -2.734662 0.245479 0
M  V30 6 C 1.975631 -1.657018 -0.553718 0
M  V30 7 C 3.243084 -1.864682 -1.099111 0
M  V30 8 N 3.546784 -0.726360 -1.788836 0
M  V30 9 C 2.510635 0.120638 -1.662260 0
M  V30 10 C 2.308273 1.407356 -2.165564 0
M  V30 11 C 1.097170 2.025308 -1.842366 0
M  V30 12 C 0.144145 1.389816 -1.060037 0
M  V30 13 N -1.023877 2.155892 -0.831152 0
M  V30 14 C -1.297574 3.058884 0.296198 0
M  V30 15 C -1.238428 2.197578 1.511915 0
M  V30 16 C -0.091912 1.979511 2.243367 0
M  V30 17 C -0.114380 1.158144 3.367208 0
M  V30 18 C -1.345142 0.609052 3.661104 0
M  V30 19 F -1.375064 -0.203073 4.769259 0
M  V30 20 C -2.531755 0.781102 2.977747 0
M  V30 21 C -2.460041 1.608593 1.864454 0
M  V30 22 N 0.385934 0.135703 -0.591559 0
M  V30 23 N 1.539636 -0.426864 -0.911697 0
M  V30 24 C 0.800452 -2.461188 1.450716 0
M  V30 25 C 0.215947 -3.370541 2.322592 0
M  V30 26 H -1.300030 -5.765227 2.660974 0
M  V30 27 H 0.863270 -6.092046 0.409045 0
M  V30 28 H 1.882655 -4.335916 -1.065915 0
M  V30 29 H 3.983599 -2.653735 -1.102723 0
M  V30 30 H 3.073711 1.863164 -2.768104 0
M  V30 31 H 0.989899 3.019569 -2.256378 0
M  V30 32 H -1.738462 2.021763 -1.587007 0
M  V30 33 H -2.284742 3.497407 0.165148 0
M  V30 34 H -0.543776 3.865056 0.351228 0
M  V30 35 H 0.822080 2.449774 1.937411 0
M  V30 36 H 0.752897 0.958062 3.970761 0
M  V30 37 H -3.424423 0.282388 3.328002 0
M  V30 38 H -3.370114 1.768319 1.303993 0
M  V30 39 H 0.781421 -1.403876 1.753377 0
M  V30 40 H -0.229745 -3.045150 3.247882 0
M  V30 END ATOM
M  V30 BEGIN BOND
M  V30 1 1 1 2
M  V30 2 2 2 3
M  V30 3 1 3 4
M  V30 4 2 4 5
M  V30 5 1 5 6
M  V30 6 2 6 7
M  V30 7 1 7 8
M  V30 8 2 8 9
M  V30 9 1 9 10
M  V30 10 2 10 11
M  V30 11 1 11 12
M  V30 12 1 12 13
M  V30 13 1 13 14
M  V30 14 1 14 15
M  V30 15 2 15 16
M  V30 16 1 16 17
M  V30 17 2 17 18
M  V30 18 1 18 19
M  V30 19 1 18 20
M  V30 20 2 20 21
M  V30 21 2 12 22
M  V30 22 1 22 23
M  V30 23 1 5 24
M  V30 24 2 24 25
M  V30 25 1 25 2
M  V30 26 1 23 6
M  V30 27 1 23 9
M  V30 28 1 21 15
M  V30 29 1 1 26
M  V30 30 1 3 27
M  V30 31 1 4 28
M  V30 32 1 7 29
M  V30 33 1 10 30
M  V30 34 1 11 31
M  V30 35 1 13 32
M  V30 36 1 14 33
M  V30 37 1 14 34
M  V30 38 1 16 35
M  V30 39 1 17 36
M  V30 40 1 20 37
M  V30 41 1 21 38
M  V30 42 1 24 39
M  V30 43 1 25 40
M  V30 END BOND
M  V30 END CTAB
M  END
>  <Dataset>  (75) 
ChEMBL_Kinases

>  <Ligand_Instance>  (75) 
nan

>  <PDB_ID>  (75) 
nan

>  <Standardized_SMILES>  (75) 
Oc1ccc(-c2cnc3ccc(NCc4ccc(F)cc4)nn23)cc1

>  <Name>  (75) 
nan

>  <Pocket>  (75) 
nan

>  <ATP_Site>  (75) 
nan

>  <Peripheral>  (75) 
nan

>  <Num_H_Atoms_ProtBoundConf>  (75) 
nan

>  <Num_Resolved_Atoms>  (75) 
nan

>  <Num_Not_Resolved_Atoms>  (75) 
nan

$$$$
CHEMBL195320
     RDKit          3D

  0  0  0  0  0  0  0  0  0  0999 V3000
M  V30 BEGIN CTAB
M  V30 COUNTS 44 47 0 0 0
M  V30 BEGIN ATOM
M  V30 1 N 2.105000 -7.929726 -2.628790 0
M  V30 2 C 2.711403 -6.733475 -2.169138 0
M  V30 3 O 3.957314 -6.748145 -2.048225 0
M  V30 4 C 1.839681 -5.600294 -1.879736 0
M  V30 5 C 0.477577 -5.607831 -2.019779 0
M  V30 6 C -0.298895 -4.503954 -1.730520 0
M  V30 7 C 0.360279 -3.362098 -1.283652 0
M  V30 8 N -0.132400 -2.155801 -0.931622 0
M  V30 9 C 0.901092 -1.356298 -0.560982 0
M  V30 10 C 0.872645 0.044196 -0.097396 0
M  V30 11 C 2.049417 0.697341 0.238968 0
M  V30 12 C 2.035394 2.009266 0.674517 0
M  V30 13 C 0.805918 2.632272 0.757878 0
M  V30 14 S 0.699879 4.301348 1.303094 0
M  V30 15 O -0.375473 5.041137 0.567669 0
M  V30 16 O 2.010301 4.946117 0.941862 0
M  V30 17 N 0.510281 4.390465 3.002187 0
M  V30 18 C -0.649546 3.792617 3.543168 0
M  V30 19 C -1.943959 3.898008 3.074457 0
M  V30 20 C -2.976560 3.236038 3.736137 0
M  V30 21 C -2.661920 2.482075 4.861091 0
M  V30 22 C -1.387412 2.358555 5.350011 0
M  V30 23 C -0.379912 3.022550 4.679267 0
M  V30 24 C -0.385182 2.013980 0.431675 0
M  V30 25 C -0.359520 0.683408 -0.008907 0
M  V30 26 N 2.018962 -2.091076 -0.692841 0
M  V30 27 C 1.732270 -3.331192 -1.134829 0
M  V30 28 C 2.492378 -4.459489 -1.433875 0
M  V30 29 H 1.824435 -8.897561 -2.345828 0
M  V30 30 H 2.032827 -8.702399 -1.929593 0
M  V30 31 H 0.047445 -6.538067 -2.373033 0
M  V30 32 H -1.359152 -4.548038 -1.852264 0
M  V30 33 H -1.140857 -1.835715 -0.926837 0
M  V30 34 H 2.974007 0.114905 0.138332 0
M  V30 35 H 2.961253 2.502824 0.932389 0
M  V30 36 H 1.208748 4.860105 3.621201 0
M  V30 37 H -2.054271 4.518045 2.186303 0
M  V30 38 H -3.966984 3.352958 3.327137 0
M  V30 39 H -3.498935 1.991233 5.333950 0
M  V30 40 H -1.232929 1.758099 6.221987 0
M  V30 41 H 0.618374 2.892081 5.109026 0
M  V30 42 H -1.355515 2.460913 0.482558 0
M  V30 43 H -1.268651 0.156472 -0.276209 0
M  V30 44 H 3.579078 -4.426667 -1.313221 0
M  V30 END ATOM
M  V30 BEGIN BOND
M  V30 1 1 1 2
M  V30 2 2 2 3
M  V30 3 1 2 4
M  V30 4 2 4 5
M  V30 5 1 5 6
M  V30 6 2 6 7
M  V30 7 1 7 8
M  V30 8 1 8 9
M  V30 9 1 9 10
M  V30 10 2 10 11
M  V30 11 1 11 12
M  V30 12 2 12 13
M  V30 13 1 13 14
M  V30 14 2 14 15
M  V30 15 2 14 16
M  V30 16 1 14 17
M  V30 17 1 17 18
M  V30 18 2 18 19
M  V30 19 1 19 20
M  V30 20 2 20 21
M  V30 21 1 21 22
M  V30 22 2 22 23
M  V30 23 1 13 24
M  V30 24 2 24 25
M  V30 25 2 9 26
M  V30 26 1 26 27
M  V30 27 2 27 28
M  V30 28 1 28 4
M  V30 29 1 27 7
M  V30 30 1 25 10
M  V30 31 1 23 18
M  V30 32 1 1 29
M  V30 33 1 1 30
M  V30 34 1 5 31
M  V30 35 1 6 32
M  V30 36 1 8 33
M  V30 37 1 11 34
M  V30 38 1 12 35
M  V30 39 1 17 36
M  V30 40 1 19 37
M  V30 41 1 20 38
M  V30 42 1 21 39
M  V30 43 1 22 40
M  V30 44 1 23 41
M  V30 45 1 24 42
M  V30 46 1 25 43
M  V30 47 1 28 44
M  V30 END BOND
M  V30 END CTAB
M  END
>  <Dataset>  (76) 
ChEMBL_Kinases

>  <Ligand_Instance>  (76) 
nan

>  <PDB_ID>  (76) 
nan

>  <Standardized_SMILES>  (76) 
NC(=O)c1ccc2[nH]c(-c3ccc(S(=O)(=O)Nc4ccccc4)cc3)nc2c1

>  <Name>  (76) 
nan

>  <Pocket>  (76) 
nan

>  <ATP_Site>  (76) 
nan

>  <Peripheral>  (76) 
nan

>  <Num_H_Atoms_ProtBoundConf>  (76) 
nan

>  <Num_Resolved_Atoms>  (76) 
nan

>  <Num_Not_Resolved_Atoms>  (76) 
nan

$$$$
CHEMBL195423
     RDKit          3D

  0  0  0  0  0  0  0  0  0  0999 V3000
M  V30 BEGIN CTAB
M  V30 COUNTS 37 40 0 0 0
M  V30 BEGIN ATOM
M  V30 1 F -0.908263 -6.806417 1.499629 0
M  V30 2 C -0.069876 -5.745114 1.639752 0
M  V30 3 C -0.171422 -4.662854 0.788344 0
M  V30 4 C 0.704043 -3.615971 0.978654 0
M  V30 5 C 1.679682 -3.544603 1.945308 0
M  V30 6 N 2.580154 -2.476235 2.157014 0
M  V30 7 C 2.617047 -1.233610 1.475451 0
M  V30 8 N 1.801810 -0.830663 0.491464 0
M  V30 9 C 1.910545 0.368814 -0.092053 0
M  V30 10 N 1.041209 0.776998 -1.134178 0
M  V30 11 C -0.226171 1.420401 -1.111599 0
M  V30 12 C -0.885796 1.741825 -2.283691 0
M  V30 13 C -2.111243 2.360234 -2.164911 0
M  V30 14 C -2.652163 2.644005 -0.914336 0
M  V30 15 N -3.822933 3.235956 -0.607311 0
M  V30 16 C -3.877642 3.275332 0.753934 0
M  V30 17 N -2.760710 2.718044 1.256206 0
M  V30 18 C -1.972774 2.312601 0.239005 0
M  V30 19 C -0.740322 1.691411 0.163171 0
M  V30 20 N 2.860179 1.275948 0.269305 0
M  V30 21 C 3.722061 0.931490 1.263193 0
M  V30 22 C 3.567063 -0.310186 1.827686 0
M  V30 23 Br 4.830567 -0.696374 3.216368 0
M  V30 24 C 1.721181 -4.656405 2.754553 0
M  V30 25 C 0.882931 -5.739100 2.627475 0
M  V30 26 H -0.915154 -4.650634 0.005204 0
M  V30 27 H 0.583961 -2.797985 0.287519 0
M  V30 28 H 3.297665 -2.627989 2.901805 0
M  V30 29 H 1.511595 0.510928 -2.034760 0
M  V30 30 H -0.417728 1.495946 -3.237947 0
M  V30 31 H -2.604570 2.600000 -3.110684 0
M  V30 32 H -4.580138 3.611483 -1.254059 0
M  V30 33 H -4.696154 3.693256 1.360392 0
M  V30 34 H -0.209905 1.433323 1.060462 0
M  V30 35 H 4.475304 1.644576 1.553221 0
M  V30 36 H 2.456320 -4.715275 3.560772 0
M  V30 37 H 0.977293 -6.589582 3.312613 0
M  V30 END ATOM
M  V30 BEGIN BOND
M  V30 1 1 1 2
M  V30 2 2 2 3
M  V30 3 1 3 4
M  V30 4 2 4 5
M  V30 5 1 5 6
M  V30 6 1 6 7
M  V30 7 2 7 8
M  V30 8 1 8 9
M  V30 9 1 9 10
M  V30 10 1 10 11
M  V30 11 2 11 12
M  V30 12 1 12 13
M  V30 13 2 13 14
M  V30 14 1 14 15
M  V30 15 1 15 16
M  V30 16 2 16 17
M  V30 17 1 17 18
M  V30 18 2 18 19
M  V30 19 2 9 20
M  V30 20 1 20 21
M  V30 21 2 21 22
M  V30 22 1 22 23
M  V30 23 1 5 24
M  V30 24 2 24 25
M  V30 25 1 25 2
M  V30 26 1 22 7
M  V30 27 1 19 11
M  V30 28 1 18 14
M  V30 29 1 3 26
M  V30 30 1 4 27
M  V30 31 1 6 28
M  V30 32 1 10 29
M  V30 33 1 12 30
M  V30 34 1 13 31
M  V30 35 1 15 32
M  V30 36 1 16 33
M  V30 37 1 19 34
M  V30 38 1 21 35
M  V30 39 1 24 36
M  V30 40 1 25 37
M  V30 END BOND
M  V30 END CTAB
M  END
>  <Dataset>  (77) 
ChEMBL_Kinases

>  <Ligand_Instance>  (77) 
nan

>  <PDB_ID>  (77) 
nan

>  <Standardized_SMILES>  (77) 
Fc1ccc(Nc2nc(Nc3ccc4[nH]cnc4c3)ncc2Br)cc1

>  <Name>  (77) 
nan

>  <Pocket>  (77) 
nan

>  <ATP_Site>  (77) 
nan

>  <Peripheral>  (77) 
nan

>  <Num_H_Atoms_ProtBoundConf>  (77) 
nan

>  <Num_Resolved_Atoms>  (77) 
nan

>  <Num_Not_Resolved_Atoms>  (77) 
nan

$$$$
CHEMBL1955884
     RDKit          3D

  0  0  0  0  0  0  0  0  0  0999 V3000
M  V30 BEGIN CTAB
M  V30 COUNTS 57 61 0 0 0
M  V30 BEGIN ATOM
M  V30 1 C 5.022812 -4.978384 1.943949 0
M  V30 2 C 4.845458 -3.657546 2.623894 0
M  V30 3 C 5.743736 -2.873294 3.542549 0
M  V30 4 S 4.721261 -1.402189 3.876340 0
M  V30 5 C 3.341571 -2.012716 2.811874 0
M  V30 6 C 2.154785 -1.131546 2.716812 0
M  V30 7 N 1.898245 0.058695 3.279885 0
M  V30 8 C 0.670857 0.474072 2.892218 0
M  V30 9 C 0.083076 1.758236 3.339010 0
M  V30 10 C 0.428981 2.893631 2.399332 0
M  V30 11 C -0.087638 2.646403 0.986351 0
M  V30 12 C -1.605720 2.517668 1.066697 0
M  V30 13 C -2.137914 2.276729 -0.293477 0
M  V30 14 O -1.276278 2.218546 -1.201269 0
M  V30 15 N -3.485905 2.116514 -0.615642 0
M  V30 16 C -4.104589 1.884551 -1.862860 0
M  V30 17 C -5.468355 1.760435 -1.933657 0
M  V30 18 C -6.138016 1.533798 -3.113991 0
M  V30 19 C -5.476397 1.417690 -4.298632 0
M  V30 20 C -4.095420 1.536053 -4.276520 0
M  V30 21 C -3.467830 1.762123 -3.075852 0
M  V30 22 N 0.198443 -0.493251 2.085162 0
M  V30 23 C 1.075806 -1.504243 1.945375 0
M  V30 24 C 0.911333 -2.724291 1.148629 0
M  V30 25 C 0.879647 -4.010485 1.647206 0
M  V30 26 C 0.717730 -5.058202 0.754819 0
M  V30 27 C 0.588638 -4.853889 -0.603951 0
M  V30 28 C 0.617758 -3.580915 -1.118960 0
M  V30 29 C 0.781177 -2.524323 -0.217851 0
M  V30 30 O 0.469111 -3.644633 -2.497175 0
M  V30 31 C 0.121715 -4.971815 -2.843224 0
M  V30 32 O 0.419805 -5.696651 -1.690259 0
M  V30 33 N 3.694579 -3.074338 2.373562 0
M  V30 34 H 5.003141 -4.872246 0.835595 0
M  V30 35 H 4.242778 -5.713535 2.281228 0
M  V30 36 H 5.974714 -5.404937 2.305369 0
M  V30 37 H 6.792961 -3.558721 3.680841 0
M  V30 38 H -1.002959 1.657752 3.514064 0
M  V30 39 H 0.513028 2.041021 4.322541 0
M  V30 40 H 1.534709 3.004896 2.402679 0
M  V30 41 H -0.046918 3.800713 2.818885 0
M  V30 42 H 0.194444 3.520408 0.373478 0
M  V30 43 H 0.370763 1.737873 0.556022 0
M  V30 44 H -2.026459 3.457112 1.476783 0
M  V30 45 H -1.882186 1.643326 1.679260 0
M  V30 46 H -4.090413 2.188251 0.236216 0
M  V30 47 H -6.049304 1.846916 -1.001599 0
M  V30 48 H -7.208437 1.451942 -3.061726 0
M  V30 49 H -6.025606 1.241370 -5.201508 0
M  V30 50 H -3.563296 1.446111 -5.205758 0
M  V30 51 H -2.406350 1.842057 -3.135437 0
M  V30 52 H -0.737121 -0.459014 1.625192 0
M  V30 53 H 0.985509 -4.109882 2.718336 0
M  V30 54 H 0.697109 -6.052796 1.178618 0
M  V30 55 H 0.796705 -1.536812 -0.683221 0
M  V30 56 H -0.911355 -5.067143 -3.197463 0
M  V30 57 H 0.864100 -5.280846 -3.617650 0
M  V30 END ATOM
M  V30 BEGIN BOND
M  V30 1 1 1 2
M  V30 2 2 2 3
M  V30 3 1 3 4
M  V30 4 1 4 5
M  V30 5 1 5 6
M  V30 6 1 6 7
M  V30 7 2 7 8
M  V30 8 1 8 9
M  V30 9 1 9 10
M  V30 10 1 10 11
M  V30 11 1 11 12
M  V30 12 1 12 13
M  V30 13 2 13 14
M  V30 14 1 13 15
M  V30 15 1 15 16
M  V30 16 2 16 17
M  V30 17 1 17 18
M  V30 18 2 18 19
M  V30 19 1 19 20
M  V30 20 2 20 21
M  V30 21 1 8 22
M  V30 22 1 22 23
M  V30 23 1 23 24
M  V30 24 2 24 25
M  V30 25 1 25 26
M  V30 26 2 26 27
M  V30 27 1 27 28
M  V30 28 2 28 29
M  V30 29 1 28 30
M  V30 30 1 30 31
M  V30 31 1 31 32
M  V30 32 2 5 33
M  V30 33 1 33 2
M  V30 34 2 23 6
M  V30 35 1 29 24
M  V30 36 1 21 16
M  V30 37 1 32 27
M  V30 38 1 1 34
M  V30 39 1 1 35
M  V30 40 1 1 36
M  V30 41 1 3 37
M  V30 42 1 9 38
M  V30 43 1 9 39
M  V30 44 1 10 40
M  V30 45 1 10 41
M  V30 46 1 11 42
M  V30 47 1 11 43
M  V30 48 1 12 44
M  V30 49 1 12 45
M  V30 50 1 15 46
M  V30 51 1 17 47
M  V30 52 1 18 48
M  V30 53 1 19 49
M  V30 54 1 20 50
M  V30 55 1 21 51
M  V30 56 1 22 52
M  V30 57 1 25 53
M  V30 58 1 26 54
M  V30 59 1 29 55
M  V30 60 1 31 56
M  V30 61 1 31 57
M  V30 END BOND
M  V30 END CTAB
M  END
>  <Dataset>  (78) 
ChEMBL_Kinases

>  <Ligand_Instance>  (78) 
nan

>  <PDB_ID>  (78) 
nan

>  <Standardized_SMILES>  (78) 
Cc1csc(-c2nc(CCCCC(=O)Nc3ccccc3)[nH]c2-c2ccc3c(c2)OCO3)n1

>  <Name>  (78) 
nan

>  <Pocket>  (78) 
nan

>  <ATP_Site>  (78) 
nan

>  <Peripheral>  (78) 
nan

>  <Num_H_Atoms_ProtBoundConf>  (78) 
nan

>  <Num_Resolved_Atoms>  (78) 
nan

>  <Num_Not_Resolved_Atoms>  (78) 
nan

$$$$
CHEMBL195595
     RDKit          3D

  0  0  0  0  0  0  0  0  0  0999 V3000
M  V30 BEGIN CTAB
M  V30 COUNTS 39 42 0 0 0
M  V30 BEGIN ATOM
M  V30 1 F 3.026387 -2.617233 4.098736 0
M  V30 2 C 3.562347 -3.073004 2.896885 0
M  V30 3 F 3.265333 -4.408110 2.780643 0
M  V30 4 F 4.940621 -2.893142 2.887794 0
M  V30 5 C 2.948007 -2.324349 1.779317 0
M  V30 6 C 3.709710 -1.566878 0.915117 0
M  V30 7 N 3.155655 -0.891518 -0.093249 0
M  V30 8 C 1.828432 -0.930200 -0.297606 0
M  V30 9 N 1.060468 -0.281101 -1.311512 0
M  V30 10 C 0.521307 1.019938 -1.102869 0
M  V30 11 C -0.222624 1.651390 -2.086941 0
M  V30 12 C -0.777681 2.917400 -1.950876 0
M  V30 13 C -0.551222 3.556535 -0.741067 0
M  V30 14 N -0.901845 4.736191 -0.238866 0
M  V30 15 C -0.430600 4.905185 1.007627 0
M  V30 16 N 0.257211 3.769655 1.313224 0
M  V30 17 C 0.188832 2.930054 0.239692 0
M  V30 18 C 0.733897 1.671401 0.089149 0
M  V30 19 N 1.100541 -1.674428 0.555452 0
M  V30 20 C 1.590326 -2.372075 1.581205 0
M  V30 21 O 0.752300 -3.111314 2.406490 0
M  V30 22 C -0.629482 -3.113971 2.143622 0
M  V30 23 C -1.117933 -4.083582 1.300796 0
M  V30 24 C -2.488913 -4.067164 1.054664 0
M  V30 25 C -3.265603 -3.100999 1.655972 0
M  V30 26 Cl -4.981571 -3.209324 1.248163 0
M  V30 27 C -2.744494 -2.151100 2.489709 0
M  V30 28 C -1.403309 -2.139664 2.751770 0
M  V30 29 H 4.783477 -1.488207 1.017184 0
M  V30 30 H 0.889527 -0.758730 -2.214665 0
M  V30 31 H -0.414019 1.176871 -3.037588 0
M  V30 32 H -1.352409 3.382174 -2.736407 0
M  V30 33 H -1.474186 5.459785 -0.735524 0
M  V30 34 H -0.542050 5.748956 1.680744 0
M  V30 35 H 1.306605 1.166636 0.826224 0
M  V30 36 H -0.455945 -4.814598 0.859875 0
M  V30 37 H -2.851305 -4.835007 0.391886 0
M  V30 38 H -3.443204 -1.437548 2.910179 0
M  V30 39 H -0.985625 -1.389731 3.411162 0
M  V30 END ATOM
M  V30 BEGIN BOND
M  V30 1 1 1 2
M  V30 2 1 2 3
M  V30 3 1 2 4
M  V30 4 1 2 5
M  V30 5 2 5 6
M  V30 6 1 6 7
M  V30 7 2 7 8
M  V30 8 1 8 9
M  V30 9 1 9 10
M  V30 10 2 10 11
M  V30 11 1 11 12
M  V30 12 2 12 13
M  V30 13 1 13 14
M  V30 14 1 14 15
M  V30 15 2 15 16
M  V30 16 1 16 17
M  V30 17 2 17 18
M  V30 18 1 8 19
M  V30 19 2 19 20
M  V30 20 1 20 21
M  V30 21 1 21 22
M  V30 22 2 22 23
M  V30 23 1 23 24
M  V30 24 2 24 25
M  V30 25 1 25 26
M  V30 26 1 25 27
M  V30 27 2 27 28
M  V30 28 1 20 5
M  V30 29 1 28 22
M  V30 30 1 18 10
M  V30 31 1 17 13
M  V30 32 1 6 29
M  V30 33 1 9 30
M  V30 34 1 11 31
M  V30 35 1 12 32
M  V30 36 1 14 33
M  V30 37 1 15 34
M  V30 38 1 18 35
M  V30 39 1 23 36
M  V30 40 1 24 37
M  V30 41 1 27 38
M  V30 42 1 28 39
M  V30 END BOND
M  V30 END CTAB
M  END
>  <Dataset>  (79) 
ChEMBL_Kinases

>  <Ligand_Instance>  (79) 
nan

>  <PDB_ID>  (79) 
nan

>  <Standardized_SMILES>  (79) 
FC(F)(F)c1cnc(Nc2ccc3[nH]cnc3c2)nc1Oc1ccc(Cl)cc1

>  <Name>  (79) 
nan

>  <Pocket>  (79) 
nan

>  <ATP_Site>  (79) 
nan

>  <Peripheral>  (79) 
nan

>  <Num_H_Atoms_ProtBoundConf>  (79) 
nan

>  <Num_Resolved_Atoms>  (79) 
nan

>  <Num_Not_Resolved_Atoms>  (79) 
nan

$$$$
CHEMBL195598
     RDKit          3D

  0  0  0  0  0  0  0  0  0  0999 V3000
M  V30 BEGIN CTAB
M  V30 COUNTS 43 46 0 0 0
M  V30 BEGIN ATOM
M  V30 1 N 2.490769 -9.230083 2.010846 0
M  V30 2 C 2.432734 -7.942858 2.569213 0
M  V30 3 O 2.815143 -7.742218 3.755197 0
M  V30 4 C 1.912857 -6.918246 1.683891 0
M  V30 5 C 1.483777 -7.088497 0.383227 0
M  V30 6 C 1.008051 -6.026776 -0.357110 0
M  V30 7 C 0.937531 -4.750447 0.161054 0
M  V30 8 N 0.536272 -3.527065 -0.279392 0
M  V30 9 C 0.697993 -2.606806 0.691255 0
M  V30 10 C 0.381423 -1.185911 0.599682 0
M  V30 11 C -0.137500 -0.682090 -0.574985 0
M  V30 12 C -0.427615 0.687279 -0.620891 0
M  V30 13 C -0.190606 1.476174 0.487854 0
M  V30 14 C -0.524171 2.890988 0.345774 0
M  V30 15 O -0.994392 3.298858 -0.746356 0
M  V30 16 N -0.363994 3.880196 1.351997 0
M  V30 17 C -0.747352 5.207202 1.020718 0
M  V30 18 C -1.999469 5.764437 1.197064 0
M  V30 19 C -2.230425 7.061399 0.831764 0
M  V30 20 C -1.250588 7.870488 0.278958 0
M  V30 21 Cl -1.523202 9.533965 -0.196378 0
M  V30 22 C -0.000318 7.281511 0.113718 0
M  V30 23 C 0.268180 5.964298 0.474909 0
M  V30 24 C 0.328530 0.980869 1.667883 0
M  V30 25 C 0.607369 -0.372097 1.691334 0
M  V30 26 N 1.205012 -3.252768 1.752771 0
M  V30 27 C 1.368819 -4.560588 1.478922 0
M  V30 28 C 1.841859 -5.644841 2.199071 0
M  V30 29 H 1.858105 -9.918739 1.539136 0
M  V30 30 H 3.150668 -10.019974 1.830940 0
M  V30 31 H 1.546004 -8.095229 -0.006956 0
M  V30 32 H 0.685419 -6.194185 -1.357160 0
M  V30 33 H 0.166707 -3.401616 -1.246954 0
M  V30 34 H -0.321817 -1.300336 -1.439916 0
M  V30 35 H -0.834056 1.051717 -1.557917 0
M  V30 36 H 0.024413 3.570677 2.269469 0
M  V30 37 H -2.752090 5.123179 1.628265 0
M  V30 38 H -3.215832 7.491629 0.973322 0
M  V30 39 H 0.776480 7.919226 -0.323298 0
M  V30 40 H 1.286996 5.643790 0.287141 0
M  V30 41 H 0.507855 1.606475 2.522923 0
M  V30 42 H 1.014822 -0.801723 2.594539 0
M  V30 43 H 2.154604 -5.420642 3.203265 0
M  V30 END ATOM
M  V30 BEGIN BOND
M  V30 1 1 1 2
M  V30 2 2 2 3
M  V30 3 1 2 4
M  V30 4 2 4 5
M  V30 5 1 5 6
M  V30 6 2 6 7
M  V30 7 1 7 8
M  V30 8 1 8 9
M  V30 9 1 9 10
M  V30 10 2 10 11
M  V30 11 1 11 12
M  V30 12 2 12 13
M  V30 13 1 13 14
M  V30 14 2 14 15
M  V30 15 1 14 16
M  V30 16 1 16 17
M  V30 17 2 17 18
M  V30 18 1 18 19
M  V30 19 2 19 20
M  V30 20 1 20 21
M  V30 21 1 20 22
M  V30 22 2 22 23
M  V30 23 1 13 24
M  V30 24 2 24 25
M  V30 25 2 9 26
M  V30 26 1 26 27
M  V30 27 2 27 28
M  V30 28 1 28 4
M  V30 29 1 27 7
M  V30 30 1 25 10
M  V30 31 1 23 17
M  V30 32 1 1 29
M  V30 33 1 1 30
M  V30 34 1 5 31
M  V30 35 1 6 32
M  V30 36 1 8 33
M  V30 37 1 11 34
M  V30 38 1 12 35
M  V30 39 1 16 36
M  V30 40 1 18 37
M  V30 41 1 19 38
M  V30 42 1 22 39
M  V30 43 1 23 40
M  V30 44 1 24 41
M  V30 45 1 25 42
M  V30 46 1 28 43
M  V30 END BOND
M  V30 END CTAB
M  END
>  <Dataset>  (80) 
ChEMBL_Kinases

>  <Ligand_Instance>  (80) 
nan

>  <PDB_ID>  (80) 
nan

>  <Standardized_SMILES>  (80) 
NC(=O)c1ccc2[nH]c(-c3ccc(C(=O)Nc4ccc(Cl)cc4)cc3)nc2c1

>  <Name>  (80) 
nan

>  <Pocket>  (80) 
nan

>  <ATP_Site>  (80) 
nan

>  <Peripheral>  (80) 
nan

>  <Num_H_Atoms_ProtBoundConf>  (80) 
nan

>  <Num_Resolved_Atoms>  (80) 
nan

>  <Num_Not_Resolved_Atoms>  (80) 
nan

$$$$
CHEMBL1957945
     RDKit          3D

  0  0  0  0  0  0  0  0  0  0999 V3000
M  V30 BEGIN CTAB
M  V30 COUNTS 51 54 0 0 0
M  V30 BEGIN ATOM
M  V30 1 C 0.093331 0.173112 7.417776 0
M  V30 2 S 0.989146 -1.226223 6.847159 0
M  V30 3 O 0.376980 -2.467004 7.388023 0
M  V30 4 O 2.402863 -1.166826 7.363714 0
M  V30 5 N 1.006449 -1.369498 5.118401 0
M  V30 6 C 1.503740 -0.540261 4.082773 0
M  V30 7 C 2.302134 -1.075731 3.063238 0
M  V30 8 C 2.801323 -0.283871 2.058814 0
M  V30 9 C 2.548425 1.072253 1.993429 0
M  V30 10 C 3.092301 1.859346 0.889442 0
M  V30 11 C 2.204639 2.045818 -0.291596 0
M  V30 12 N 1.857345 0.757448 -0.842790 0
M  V30 13 C 1.004672 0.645773 -2.004192 0
M  V30 14 O 0.598769 1.729656 -2.495576 0
M  V30 15 C 0.682727 -0.709652 -2.510237 0
M  V30 16 C 1.652613 -1.552315 -2.980469 0
M  V30 17 C 1.232361 -2.814376 -3.414204 0
M  V30 18 C -0.124016 -3.117316 -3.336844 0
M  V30 19 O -0.571524 -4.376055 -3.764348 0
M  V30 20 C -1.083120 -2.243951 -2.856254 0
M  V30 21 N -2.415449 -2.288710 -2.680434 0
M  V30 22 C -2.842036 -1.108297 -2.155603 0
M  V30 23 C -4.231996 -0.727456 -1.795821 0
M  V30 24 C -5.021912 -1.701855 -0.997805 0
M  V30 25 C -5.392886 -1.483984 -2.426201 0
M  V30 26 N -1.766562 -0.315279 -2.001288 0
M  V30 27 C -0.674418 -0.978197 -2.419628 0
M  V30 28 C 1.764896 1.643407 2.979784 0
M  V30 29 C 1.284488 0.815092 3.969230 0
M  V30 30 H -0.598104 -0.168045 8.234968 0
M  V30 31 H -0.554199 0.556812 6.618614 0
M  V30 32 H 0.810627 0.925742 7.815703 0
M  V30 33 H 0.576341 -2.213978 4.656365 0
M  V30 34 H 2.479036 -2.153634 3.153416 0
M  V30 35 H 3.404507 -0.860867 1.370194 0
M  V30 36 H 3.522930 2.845248 1.249038 0
M  V30 37 H 4.004457 1.327107 0.506521 0
M  V30 38 H 1.322381 2.686868 -0.094627 0
M  V30 39 H 2.804380 2.627420 -1.050474 0
M  V30 40 H 2.173774 -0.154393 -0.471663 0
M  V30 41 H 2.683348 -1.263749 -3.017970 0
M  V30 42 H 1.935266 -3.544341 -3.802283 0
M  V30 43 H -0.717318 -5.044083 -3.003778 0
M  V30 44 H -3.021937 -3.113525 -2.915166 0
M  V30 45 H -4.391785 0.365772 -1.579595 0
M  V30 46 H -5.750429 -1.300509 -0.246332 0
M  V30 47 H -4.558705 -2.643384 -0.703746 0
M  V30 48 H -6.320566 -0.948665 -2.674770 0
M  V30 49 H -5.061408 -2.244756 -3.193206 0
M  V30 50 H 1.551328 2.694258 2.956857 0
M  V30 51 H 0.678495 1.302946 4.718102 0
M  V30 END ATOM
M  V30 BEGIN BOND
M  V30 1 1 1 2
M  V30 2 2 2 3
M  V30 3 2 2 4
M  V30 4 1 2 5
M  V30 5 1 5 6
M  V30 6 2 6 7
M  V30 7 1 7 8
M  V30 8 2 8 9
M  V30 9 1 9 10
M  V30 10 1 10 11
M  V30 11 1 11 12
M  V30 12 1 12 13
M  V30 13 2 13 14
M  V30 14 1 13 15
M  V30 15 2 15 16
M  V30 16 1 16 17
M  V30 17 2 17 18
M  V30 18 1 18 19
M  V30 19 1 18 20
M  V30 20 1 20 21
M  V30 21 1 21 22
M  V30 22 1 22 23
M  V30 23 1 23 24
M  V30 24 1 24 25
M  V30 25 2 22 26
M  V30 26 1 26 27
M  V30 27 1 9 28
M  V30 28 2 28 29
M  V30 29 1 29 6
M  V30 30 1 27 15
M  V30 31 2 27 20
M  V30 32 1 25 23
M  V30 33 1 1 30
M  V30 34 1 1 31
M  V30 35 1 1 32
M  V30 36 1 5 33
M  V30 37 1 7 34
M  V30 38 1 8 35
M  V30 39 1 10 36
M  V30 40 1 10 37
M  V30 41 1 11 38
M  V30 42 1 11 39
M  V30 43 1 12 40
M  V30 44 1 16 41
M  V30 45 1 17 42
M  V30 46 1 19 43
M  V30 47 1 21 44
M  V30 48 1 23 45
M  V30 49 1 24 46
M  V30 50 1 24 47
M  V30 51 1 25 48
M  V30 52 1 25 49
M  V30 53 1 28 50
M  V30 54 1 29 51
M  V30 END BOND
M  V30 END CTAB
M  END
>  <Dataset>  (81) 
ChEMBL_Kinases

>  <Ligand_Instance>  (81) 
nan

>  <PDB_ID>  (81) 
nan

>  <Standardized_SMILES>  (81) 
CS(=O)(=O)Nc1ccc(CCNC(=O)c2ccc(O)c3[nH]c(C4CC4)nc23)cc1

>  <Name>  (81) 
nan

>  <Pocket>  (81) 
nan

>  <ATP_Site>  (81) 
nan

>  <Peripheral>  (81) 
nan

>  <Num_H_Atoms_ProtBoundConf>  (81) 
nan

>  <Num_Resolved_Atoms>  (81) 
nan

>  <Num_Not_Resolved_Atoms>  (81) 
nan

$$$$
CHEMBL1957943
     RDKit          3D

  0  0  0  0  0  0  0  0  0  0999 V3000
M  V30 BEGIN CTAB
M  V30 COUNTS 57 60 0 0 0
M  V30 BEGIN ATOM
M  V30 1 C 4.391585 -3.305035 2.829315 0
M  V30 2 S 2.705124 -3.047558 3.369409 0
M  V30 3 O 2.418129 -3.705673 4.671913 0
M  V30 4 O 1.789863 -3.599557 2.289668 0
M  V30 5 N 2.413954 -1.350845 3.430084 0
M  V30 6 C 2.462848 -0.421678 2.361208 0
M  V30 7 C 3.075192 0.827832 2.510449 0
M  V30 8 C 3.135121 1.771300 1.510034 0
M  V30 9 C 2.556137 1.458812 0.298816 0
M  V30 10 C 2.554502 2.297842 -0.882979 0
M  V30 11 C 1.525833 3.356286 -0.891162 0
M  V30 12 N 0.198793 2.897225 -0.740923 0
M  V30 13 C -0.529290 2.309410 0.292867 0
M  V30 14 O -0.046640 2.086751 1.428350 0
M  V30 15 C -1.860711 1.812917 0.465263 0
M  V30 16 C -2.796452 2.400934 1.325722 0
M  V30 17 C -4.088662 1.963765 1.538580 0
M  V30 18 C -4.458449 0.845153 0.823905 0
M  V30 19 O -5.770302 0.398041 1.037598 0
M  V30 20 C -3.579367 0.207116 -0.052037 0
M  V30 21 N -3.781069 -0.878805 -0.822651 0
M  V30 22 C -2.627025 -1.090790 -1.491548 0
M  V30 23 C -2.415298 -2.173566 -2.467084 0
M  V30 24 C -1.921549 -3.445470 -1.912335 0
M  V30 25 C -2.842954 -4.379585 -1.490419 0
M  V30 26 C -2.442794 -5.611282 -0.973501 0
M  V30 27 C -1.107579 -5.942316 -0.863370 0
M  V30 28 C -0.158437 -5.025200 -1.277901 0
M  V30 29 C -0.608781 -3.831849 -1.778297 0
M  V30 30 N -1.750858 -0.122781 -1.105343 0
M  V30 31 C -2.306122 0.696094 -0.217096 0
M  V30 32 C 1.949284 0.219163 0.149317 0
M  V30 33 C 1.878437 -0.744620 1.142103 0
M  V30 34 H 5.034174 -2.467918 3.198798 0
M  V30 35 H 4.806367 -4.229004 3.259216 0
M  V30 36 H 4.457800 -3.287555 1.713197 0
M  V30 37 H 2.168517 -0.881158 4.329420 0
M  V30 38 H 3.529420 1.072387 3.470378 0
M  V30 39 H 3.605121 2.737432 1.614124 0
M  V30 40 H 2.506126 1.662507 -1.813056 0
M  V30 41 H 3.597021 2.748811 -0.948038 0
M  V30 42 H 1.612300 3.892416 -1.879022 0
M  V30 43 H 1.804328 4.131381 -0.113116 0
M  V30 44 H -0.493617 2.969515 -1.551002 0
M  V30 45 H -2.405425 3.279043 1.843460 0
M  V30 46 H -4.682483 2.533770 2.238011 0
M  V30 47 H -5.957193 -0.369143 1.696509 0
M  V30 48 H -4.672670 -1.412828 -0.858088 0
M  V30 49 H -3.352628 -2.337557 -3.040238 0
M  V30 50 H -1.653016 -1.839475 -3.208259 0
M  V30 51 H -3.915364 -4.264884 -1.512161 0
M  V30 52 H -3.098414 -6.399265 -0.622370 0
M  V30 53 H -0.712538 -6.873362 -0.475520 0
M  V30 54 H 0.919581 -5.176700 -1.241655 0
M  V30 55 H 0.133550 -3.090167 -2.112708 0
M  V30 56 H 1.477949 -0.082407 -0.784764 0
M  V30 57 H 1.390645 -1.701621 0.980017 0
M  V30 END ATOM
M  V30 BEGIN BOND
M  V30 1 1 1 2
M  V30 2 2 2 3
M  V30 3 2 2 4
M  V30 4 1 2 5
M  V30 5 1 5 6
M  V30 6 2 6 7
M  V30 7 1 7 8
M  V30 8 2 8 9
M  V30 9 1 9 10
M  V30 10 1 10 11
M  V30 11 1 11 12
M  V30 12 1 12 13
M  V30 13 2 13 14
M  V30 14 1 13 15
M  V30 15 2 15 16
M  V30 16 1 16 17
M  V30 17 2 17 18
M  V30 18 1 18 19
M  V30 19 1 18 20
M  V30 20 1 20 21
M  V30 21 1 21 22
M  V30 22 1 22 23
M  V30 23 1 23 24
M  V30 24 2 24 25
M  V30 25 1 25 26
M  V30 26 2 26 27
M  V30 27 1 27 28
M  V30 28 2 28 29
M  V30 29 2 22 30
M  V30 30 1 30 31
M  V30 31 1 9 32
M  V30 32 2 32 33
M  V30 33 1 33 6
M  V30 34 1 31 15
M  V30 35 2 31 20
M  V30 36 1 29 24
M  V30 37 1 1 34
M  V30 38 1 1 35
M  V30 39 1 1 36
M  V30 40 1 5 37
M  V30 41 1 7 38
M  V30 42 1 8 39
M  V30 43 1 10 40
M  V30 44 1 10 41
M  V30 45 1 11 42
M  V30 46 1 11 43
M  V30 47 1 12 44
M  V30 48 1 16 45
M  V30 49 1 17 46
M  V30 50 1 19 47
M  V30 51 1 21 48
M  V30 52 1 23 49
M  V30 53 1 23 50
M  V30 54 1 25 51
M  V30 55 1 26 52
M  V30 56 1 27 53
M  V30 57 1 28 54
M  V30 58 1 29 55
M  V30 59 1 32 56
M  V30 60 1 33 57
M  V30 END BOND
M  V30 END CTAB
M  END
>  <Dataset>  (82) 
ChEMBL_Kinases

>  <Ligand_Instance>  (82) 
nan

>  <PDB_ID>  (82) 
nan

>  <Standardized_SMILES>  (82) 
CS(=O)(=O)Nc1ccc(CCNC(=O)c2ccc(O)c3[nH]c(Cc4ccccc4)nc23)cc1

>  <Name>  (82) 
nan

>  <Pocket>  (82) 
nan

>  <ATP_Site>  (82) 
nan

>  <Peripheral>  (82) 
nan

>  <Num_H_Atoms_ProtBoundConf>  (82) 
nan

>  <Num_Resolved_Atoms>  (82) 
nan

>  <Num_Not_Resolved_Atoms>  (82) 
nan

$$$$
CHEMBL195780
     RDKit          3D

  0  0  0  0  0  0  0  0  0  0999 V3000
M  V30 BEGIN CTAB
M  V30 COUNTS 38 39 0 0 0
M  V30 BEGIN ATOM
M  V30 1 C 0.551738 -5.378989 6.162475 0
M  V30 2 C 0.968803 -4.205641 5.301845 0
M  V30 3 C 0.081531 -3.028397 5.633689 0
M  V30 4 O -1.245348 -3.427267 5.350012 0
M  V30 5 C 0.429186 -1.831747 4.828850 0
M  V30 6 C 0.240649 -1.512456 3.549838 0
M  V30 7 C 0.683727 -0.301212 3.081803 0
M  V30 8 C 0.532573 0.147373 1.715229 0
M  V30 9 C 0.392626 0.506384 0.570300 0
M  V30 10 C 0.213091 0.968844 -0.822839 0
M  V30 11 C -0.512878 1.973136 -1.239100 0
M  V30 12 C -0.591808 2.294470 -2.562659 0
M  V30 13 C -1.342520 3.366509 -3.194853 0
M  V30 14 N -2.131329 4.252980 -2.414134 0
M  V30 15 O -1.329935 3.555219 -4.428808 0
M  V30 16 C 0.145318 1.486303 -3.414750 0
M  V30 17 N 0.448591 1.328831 -4.820142 0
M  V30 18 C 1.304209 0.309455 -5.319478 0
M  V30 19 N 1.495471 0.296740 -6.727766 0
M  V30 20 O 1.849998 -0.521715 -4.547616 0
M  V30 21 S 0.934645 0.271667 -2.222885 0
M  V30 22 C 1.317263 0.540786 3.988414 0
M  V30 23 S 1.278963 -0.447109 5.592842 0
M  V30 24 H -0.401310 -5.139864 6.714272 0
M  V30 25 H 1.348561 -5.648370 6.896897 0
M  V30 26 H 0.310242 -6.268499 5.546084 0
M  V30 27 H 0.812895 -4.494021 4.250137 0
M  V30 28 H 2.032392 -3.985867 5.534409 0
M  V30 29 H 0.078752 -2.801055 6.711982 0
M  V30 30 H -1.264769 -3.629181 4.373977 0
M  V30 31 H -0.263907 -2.244519 2.936600 0
M  V30 32 H -1.087109 2.595582 -0.532403 0
M  V30 33 H -3.160398 4.255994 -2.612199 0
M  V30 34 H -1.558062 4.807663 -1.716990 0
M  V30 35 H 0.005106 2.007158 -5.464945 0
M  V30 36 H 2.445060 -0.000551 -7.094467 0
M  V30 37 H 0.726537 0.571035 -7.380314 0
M  V30 38 H 1.736167 1.509197 3.858874 0
M  V30 END ATOM
M  V30 BEGIN BOND
M  V30 1 1 1 2
M  V30 2 1 2 3
M  V30 3 1 3 4
M  V30 4 1 3 5
M  V30 5 2 5 6
M  V30 6 1 6 7
M  V30 7 1 7 8
M  V30 8 3 8 9
M  V30 9 1 9 10
M  V30 10 2 10 11
M  V30 11 1 11 12
M  V30 12 1 12 13
M  V30 13 1 13 14
M  V30 14 2 13 15
M  V30 15 2 12 16
M  V30 16 1 16 17
M  V30 17 1 17 18
M  V30 18 1 18 19
M  V30 19 2 18 20
M  V30 20 1 16 21
M  V30 21 2 7 22
M  V30 22 1 22 23
M  V30 23 1 23 5
M  V30 24 1 21 10
M  V30 25 1 1 24
M  V30 26 1 1 25
M  V30 27 1 1 26
M  V30 28 1 2 27
M  V30 29 1 2 28
M  V30 30 1 3 29
M  V30 31 1 4 30
M  V30 32 1 6 31
M  V30 33 1 11 32
M  V30 34 1 14 33
M  V30 35 1 14 34
M  V30 36 1 17 35
M  V30 37 1 19 36
M  V30 38 1 19 37
M  V30 39 1 22 38
M  V30 END BOND
M  V30 END CTAB
M  END
>  <Dataset>  (83) 
ChEMBL_Kinases

>  <Ligand_Instance>  (83) 
nan

>  <PDB_ID>  (83) 
nan

>  <Standardized_SMILES>  (83) 
CCC(O)c1cc(C#Cc2cc(C(N)=O)c(NC(N)=O)s2)cs1

>  <Name>  (83) 
nan

>  <Pocket>  (83) 
nan

>  <ATP_Site>  (83) 
nan

>  <Peripheral>  (83) 
nan

>  <Num_H_Atoms_ProtBoundConf>  (83) 
nan

>  <Num_Resolved_Atoms>  (83) 
nan

>  <Num_Not_Resolved_Atoms>  (83) 
nan

$$$$
CHEMBL1957780
     RDKit          3D

  0  0  0  0  0  0  0  0  0  0999 V3000
M  V30 BEGIN CTAB
M  V30 COUNTS 18 19 0 0 0
M  V30 BEGIN ATOM
M  V30 1 O -0.231691 -2.054116 4.569037 0
M  V30 2 C 0.627098 -1.493637 3.839298 0
M  V30 3 N 1.809097 -0.799907 4.228091 0
M  V30 4 C 2.381248 0.024284 3.249638 0
M  V30 5 O 3.445044 0.704206 3.464746 0
M  V30 6 C 1.697491 0.067608 1.961862 0
M  V30 7 C 1.834808 0.948558 1.010395 0
M  V30 8 C 1.058624 0.787657 -0.166407 0
M  V30 9 C 1.197923 0.973889 -1.501853 0
M  V30 10 C 0.203285 0.706066 -2.400085 0
M  V30 11 C -1.034999 0.201330 -1.836881 0
M  V30 12 S -0.718543 0.132098 -0.032785 0
M  V30 13 S 0.625422 -1.392968 2.027790 0
M  V30 14 H 2.169707 -0.944010 5.197137 0
M  V30 15 H 2.509086 1.788481 1.082788 0
M  V30 16 H 2.173520 1.352337 -1.758449 0
M  V30 17 H 0.326287 0.858306 -3.458255 0
M  V30 18 H -1.885429 -0.036788 -2.516612 0
M  V30 END ATOM
M  V30 BEGIN BOND
M  V30 1 2 1 2
M  V30 2 1 2 3
M  V30 3 1 3 4
M  V30 4 2 4 5
M  V30 5 1 4 6
M  V30 6 2 6 7
M  V30 7 1 7 8
M  V30 8 2 8 9
M  V30 9 1 9 10
M  V30 10 2 10 11
M  V30 11 1 11 12
M  V30 12 1 6 13
M  V30 13 1 13 2
M  V30 14 1 12 8
M  V30 15 1 3 14
M  V30 16 1 7 15
M  V30 17 1 9 16
M  V30 18 1 10 17
M  V30 19 1 11 18
M  V30 END BOND
M  V30 END CTAB
M  END
>  <Dataset>  (84) 
ChEMBL_Kinases

>  <Ligand_Instance>  (84) 
nan

>  <PDB_ID>  (84) 
nan

>  <Standardized_SMILES>  (84) 
O=C1NC(=O)/C(=C/c2cccs2)S1

>  <Name>  (84) 
nan

>  <Pocket>  (84) 
nan

>  <ATP_Site>  (84) 
nan

>  <Peripheral>  (84) 
nan

>  <Num_H_Atoms_ProtBoundConf>  (84) 
nan

>  <Num_Resolved_Atoms>  (84) 
nan

>  <Num_Not_Resolved_Atoms>  (84) 
nan

$$$$
CHEMBL1957779
     RDKit          3D

  0  0  0  0  0  0  0  0  0  0999 V3000
M  V30 BEGIN CTAB
M  V30 COUNTS 18 19 0 0 0
M  V30 BEGIN ATOM
M  V30 1 O 0.247462 -1.570412 4.031524 0
M  V30 2 C 1.188943 -0.993949 3.383052 0
M  V30 3 N 2.458151 -0.769641 3.917103 0
M  V30 4 C 3.383746 -0.120263 3.069066 0
M  V30 5 S 4.780058 0.643345 3.517288 0
M  V30 6 S 2.694809 -0.316073 1.407118 0
M  V30 7 C 1.005409 -0.524030 2.025468 0
M  V30 8 C -0.139413 -0.302988 1.398020 0
M  V30 9 C -0.133179 0.157877 0.063866 0
M  V30 10 C 0.720418 1.092794 -0.677827 0
M  V30 11 C 0.454345 1.328429 -1.993183 0
M  V30 12 C -0.707591 0.607018 -2.601066 0
M  V30 13 S -1.334086 -0.396276 -1.126412 0
M  V30 14 H 2.767672 -1.048269 4.895695 0
M  V30 15 H -1.097851 -0.459793 1.869626 0
M  V30 16 H 1.475912 1.471471 -0.016855 0
M  V30 17 H 1.142864 2.029491 -2.435883 0
M  V30 18 H -0.719691 0.994660 -3.767144 0
M  V30 END ATOM
M  V30 BEGIN BOND
M  V30 1 2 1 2
M  V30 2 1 2 3
M  V30 3 1 3 4
M  V30 4 2 4 5
M  V30 5 1 4 6
M  V30 6 1 6 7
M  V30 7 2 7 8
M  V30 8 1 8 9
M  V30 9 2 9 10
M  V30 10 1 10 11
M  V30 11 2 11 12
M  V30 12 1 12 13
M  V30 13 1 7 2
M  V30 14 1 13 9
M  V30 15 1 3 14
M  V30 16 1 8 15
M  V30 17 1 10 16
M  V30 18 1 11 17
M  V30 19 1 12 18
M  V30 END BOND
M  V30 END CTAB
M  END
>  <Dataset>  (85) 
ChEMBL_Kinases

>  <Ligand_Instance>  (85) 
nan

>  <PDB_ID>  (85) 
nan

>  <Standardized_SMILES>  (85) 
O=C1NC(=S)S/C1=C\c1cccs1

>  <Name>  (85) 
nan

>  <Pocket>  (85) 
nan

>  <ATP_Site>  (85) 
nan

>  <Peripheral>  (85) 
nan

>  <Num_H_Atoms_ProtBoundConf>  (85) 
nan

>  <Num_Resolved_Atoms>  (85) 
nan

>  <Num_Not_Resolved_Atoms>  (85) 
nan

$$$$
CHEMBL1957675
     RDKit          3D

  0  0  0  0  0  0  0  0  0  0999 V3000
M  V30 BEGIN CTAB
M  V30 COUNTS 46 49 0 0 0
M  V30 BEGIN ATOM
M  V30 1 C 1.991001 -4.034263 6.290990 0
M  V30 2 C 1.623270 -3.877603 4.837200 0
M  V30 3 C 2.858979 -3.523619 4.037533 0
M  V30 4 C 2.474405 -3.375605 2.619894 0
M  V30 5 O 1.257968 -3.559561 2.359497 0
M  V30 6 N 3.367274 -3.049731 1.574838 0
M  V30 7 C 3.032060 -2.894568 0.172297 0
M  V30 8 C 2.033416 -1.816990 -0.064770 0
M  V30 9 N 2.347351 -0.515020 -0.292322 0
M  V30 10 C 1.259625 0.207843 -0.470128 0
M  V30 11 C 1.135263 1.681262 -0.747502 0
M  V30 12 N 0.207267 2.395237 -0.916573 0
M  V30 13 C 0.285725 3.703428 -1.155932 0
M  V30 14 C -0.996846 4.429782 -1.342084 0
M  V30 15 C 1.696060 4.229212 -1.197522 0
M  V30 16 S 2.671327 2.650242 -0.866252 0
M  V30 17 C 0.188436 -0.613556 -0.362210 0
M  V30 18 C -1.209027 -0.224730 -0.491884 0
M  V30 19 C -2.213217 -0.316422 0.449347 0
M  V30 20 C -3.498552 0.075243 0.234500 0
M  V30 21 C -3.890024 0.613152 -0.998320 0
M  V30 22 N -5.135507 0.995207 -1.213846 0
M  V30 23 C -5.423566 1.482465 -2.376222 0
M  V30 24 S -3.748946 1.409149 -3.314784 0
M  V30 25 C -2.911544 0.713123 -1.945115 0
M  V30 26 C -1.622761 0.313593 -1.710735 0
M  V30 27 N 0.687596 -1.843230 -0.114840 0
M  V30 28 H 3.013610 -4.454045 6.357680 0
M  V30 29 H 1.973134 -3.072834 6.830799 0
M  V30 30 H 1.294601 -4.759979 6.776517 0
M  V30 31 H 0.897853 -3.065340 4.723854 0
M  V30 32 H 1.268225 -4.864523 4.464631 0
M  V30 33 H 3.173910 -2.509751 4.417997 0
M  V30 34 H 3.686817 -4.209603 4.226091 0
M  V30 35 H 4.359398 -2.923097 1.936029 0
M  V30 36 H 3.970718 -2.599266 -0.352062 0
M  V30 37 H 2.660558 -3.846284 -0.268330 0
M  V30 38 H -1.594307 3.975211 -2.184646 0
M  V30 39 H -1.631981 4.328362 -0.436889 0
M  V30 40 H -0.855693 5.480897 -1.592663 0
M  V30 41 H 1.614217 5.455801 -1.428010 0
M  V30 42 H -1.856794 -0.742871 1.395280 0
M  V30 43 H -4.135779 -0.082361 1.109001 0
M  V30 44 H -6.551694 1.812280 -2.526010 0
M  V30 45 H -0.989320 0.468174 -2.574291 0
M  V30 46 H 0.123790 -2.691280 0.017868 0
M  V30 END ATOM
M  V30 BEGIN BOND
M  V30 1 1 1 2
M  V30 2 1 2 3
M  V30 3 1 3 4
M  V30 4 2 4 5
M  V30 5 1 4 6
M  V30 6 1 6 7
M  V30 7 1 7 8
M  V30 8 2 8 9
M  V30 9 1 9 10
M  V30 10 1 10 11
M  V30 11 2 11 12
M  V30 12 1 12 13
M  V30 13 1 13 14
M  V30 14 2 13 15
M  V30 15 1 15 16
M  V30 16 2 10 17
M  V30 17 1 17 18
M  V30 18 2 18 19
M  V30 19 1 19 20
M  V30 20 2 20 21
M  V30 21 1 21 22
M  V30 22 2 22 23
M  V30 23 1 23 24
M  V30 24 1 24 25
M  V30 25 2 25 26
M  V30 26 1 17 27
M  V30 27 1 27 8
M  V30 28 1 16 11
M  V30 29 1 26 18
M  V30 30 1 25 21
M  V30 31 1 1 28
M  V30 32 1 1 29
M  V30 33 1 1 30
M  V30 34 1 2 31
M  V30 35 1 2 32
M  V30 36 1 3 33
M  V30 37 1 3 34
M  V30 38 1 6 35
M  V30 39 1 7 36
M  V30 40 1 7 37
M  V30 41 1 14 38
M  V30 42 1 14 39
M  V30 43 1 14 40
M  V30 44 1 15 41
M  V30 45 1 19 42
M  V30 46 1 20 43
M  V30 47 1 23 44
M  V30 48 1 26 45
M  V30 49 1 27 46
M  V30 END BOND
M  V30 END CTAB
M  END
>  <Dataset>  (86) 
ChEMBL_Kinases

>  <Ligand_Instance>  (86) 
nan

>  <PDB_ID>  (86) 
nan

>  <Standardized_SMILES>  (86) 
CCCC(=O)NCc1nc(-c2nc(C)cs2)c(-c2ccc3ncsc3c2)[nH]1

>  <Name>  (86) 
nan

>  <Pocket>  (86) 
nan

>  <ATP_Site>  (86) 
nan

>  <Peripheral>  (86) 
nan

>  <Num_H_Atoms_ProtBoundConf>  (86) 
nan

>  <Num_Resolved_Atoms>  (86) 
nan

>  <Num_Not_Resolved_Atoms>  (86) 
nan

$$$$
CHEMBL1957674
     RDKit          3D

  0  0  0  0  0  0  0  0  0  0999 V3000
M  V30 BEGIN CTAB
M  V30 COUNTS 44 46 0 0 0
M  V30 BEGIN ATOM
M  V30 1 C 2.017165 -5.889768 3.793872 0
M  V30 2 C 1.908252 -5.043089 2.556081 0
M  V30 3 C 2.975119 -3.962468 2.624829 0
M  V30 4 C 2.859817 -3.139571 1.407823 0
M  V30 5 O 1.975819 -3.419595 0.558707 0
M  V30 6 N 3.714572 -2.036344 1.157349 0
M  V30 7 C 3.711277 -1.147191 0.008794 0
M  V30 8 C 2.390244 -0.467202 -0.070827 0
M  V30 9 N 2.179766 0.685689 0.579834 0
M  V30 10 C 0.927826 1.125132 0.368599 0
M  V30 11 C 0.273346 2.375973 0.911142 0
M  V30 12 N -0.808493 2.885280 0.808627 0
M  V30 13 C -1.182360 4.005146 1.381913 0
M  V30 14 C -2.603260 4.396520 1.065372 0
M  V30 15 C -0.181669 4.637536 2.188423 0
M  V30 16 S 1.245601 3.437382 1.982900 0
M  V30 17 C 0.317051 0.226312 -0.442603 0
M  V30 18 C -1.047273 0.281984 -0.941202 0
M  V30 19 C -1.301488 1.390413 -1.749106 0
M  V30 20 C -2.551037 1.587701 -2.300721 0
M  V30 21 C -3.578977 0.699143 -2.070273 0
M  V30 22 F -4.797501 0.904400 -2.616525 0
M  V30 23 C -3.322057 -0.406688 -1.263229 0
M  V30 24 C -2.076579 -0.607116 -0.710888 0
M  V30 25 N 1.228241 -0.732248 -0.695030 0
M  V30 26 H 1.399180 -5.507754 4.628275 0
M  V30 27 H 1.713542 -6.948006 3.580107 0
M  V30 28 H 3.064519 -5.857833 4.143680 0
M  V30 29 H 2.099113 -5.635182 1.656868 0
M  V30 30 H 0.922964 -4.512075 2.543868 0
M  V30 31 H 2.723256 -3.370047 3.554631 0
M  V30 32 H 3.979584 -4.379931 2.806024 0
M  V30 33 H 4.434440 -1.864564 1.920651 0
M  V30 34 H 3.854035 -1.743072 -0.918487 0
M  V30 35 H 4.524471 -0.424889 0.076029 0
M  V30 36 H -2.710613 4.680855 -0.004546 0
M  V30 37 H -3.319017 3.638080 1.380904 0
M  V30 38 H -2.811595 5.318242 1.635935 0
M  V30 39 H -0.628106 5.694070 2.691678 0
M  V30 40 H -0.557344 2.141444 -1.986001 0
M  V30 41 H -2.755483 2.453804 -2.933753 0
M  V30 42 H -4.113533 -1.115956 -1.069426 0
M  V30 43 H -1.815818 -1.439095 -0.080626 0
M  V30 44 H 1.120886 -1.586243 -1.282083 0
M  V30 END ATOM
M  V30 BEGIN BOND
M  V30 1 1 1 2
M  V30 2 1 2 3
M  V30 3 1 3 4
M  V30 4 2 4 5
M  V30 5 1 4 6
M  V30 6 1 6 7
M  V30 7 1 7 8
M  V30 8 2 8 9
M  V30 9 1 9 10
M  V30 10 1 10 11
M  V30 11 2 11 12
M  V30 12 1 12 13
M  V30 13 1 13 14
M  V30 14 2 13 15
M  V30 15 1 15 16
M  V30 16 2 10 17
M  V30 17 1 17 18
M  V30 18 2 18 19
M  V30 19 1 19 20
M  V30 20 2 20 21
M  V30 21 1 21 22
M  V30 22 1 21 23
M  V30 23 2 23 24
M  V30 24 1 17 25
M  V30 25 1 25 8
M  V30 26 1 16 11
M  V30 27 1 24 18
M  V30 28 1 1 26
M  V30 29 1 1 27
M  V30 30 1 1 28
M  V30 31 1 2 29
M  V30 32 1 2 30
M  V30 33 1 3 31
M  V30 34 1 3 32
M  V30 35 1 6 33
M  V30 36 1 7 34
M  V30 37 1 7 35
M  V30 38 1 14 36
M  V30 39 1 14 37
M  V30 40 1 14 38
M  V30 41 1 15 39
M  V30 42 1 19 40
M  V30 43 1 20 41
M  V30 44 1 23 42
M  V30 45 1 24 43
M  V30 46 1 25 44
M  V30 END BOND
M  V30 END CTAB
M  END
>  <Dataset>  (87) 
ChEMBL_Kinases

>  <Ligand_Instance>  (87) 
nan

>  <PDB_ID>  (87) 
nan

>  <Standardized_SMILES>  (87) 
CCCC(=O)NCc1nc(-c2nc(C)cs2)c(-c2ccc(F)cc2)[nH]1

>  <Name>  (87) 
nan

>  <Pocket>  (87) 
nan

>  <ATP_Site>  (87) 
nan

>  <Peripheral>  (87) 
nan

>  <Num_H_Atoms_ProtBoundConf>  (87) 
nan

>  <Num_Resolved_Atoms>  (87) 
nan

>  <Num_Not_Resolved_Atoms>  (87) 
nan

$$$$
CHEMBL1957673
     RDKit          3D

  0  0  0  0  0  0  0  0  0  0999 V3000
M  V30 BEGIN CTAB
M  V30 COUNTS 45 47 0 0 0
M  V30 BEGIN ATOM
M  V30 1 C 3.973503 -5.711138 1.927627 0
M  V30 2 C 3.739514 -4.357640 1.250607 0
M  V30 3 C 2.738851 -4.573228 0.152079 0
M  V30 4 C 2.450128 -3.308329 -0.562544 0
M  V30 5 O 2.959631 -2.177400 -0.305698 0
M  V30 6 N 1.526682 -3.294059 -1.644323 0
M  V30 7 C 1.209344 -2.080692 -2.376913 0
M  V30 8 C 0.635181 -1.062679 -1.458037 0
M  V30 9 N 1.290730 -0.134697 -0.760387 0
M  V30 10 C 0.466111 0.614252 -0.036958 0
M  V30 11 C 0.813962 1.760113 0.879536 0
M  V30 12 N 0.190567 2.500899 1.572415 0
M  V30 13 C 0.699059 3.461046 2.314937 0
M  V30 14 C -0.292049 4.271249 3.110046 0
M  V30 15 C 2.103871 3.604291 2.268691 0
M  V30 16 S 2.549893 2.222307 1.060764 0
M  V30 17 C -0.794651 0.170913 -0.257938 0
M  V30 18 C -2.020548 0.698857 0.328369 0
M  V30 19 C -3.063347 1.244869 -0.401316 0
M  V30 20 C -4.177594 1.714753 0.261374 0
M  V30 21 C -4.296672 1.662540 1.633398 0
M  V30 22 O -5.443798 2.149719 2.272638 0
M  V30 23 C -3.260482 1.119744 2.361317 0
M  V30 24 C -2.120127 0.636481 1.713428 0
M  V30 25 N -0.656343 -0.863522 -1.138557 0
M  V30 26 H 2.999565 -6.129891 2.229260 0
M  V30 27 H 4.510203 -6.374519 1.197985 0
M  V30 28 H 4.650643 -5.574785 2.795769 0
M  V30 29 H 3.303685 -3.664817 1.980258 0
M  V30 30 H 4.684093 -3.960641 0.830767 0
M  V30 31 H 2.996815 -5.406440 -0.531820 0
M  V30 32 H 1.775915 -4.888320 0.635215 0
M  V30 33 H 1.078518 -4.227104 -1.888545 0
M  V30 34 H 2.155568 -1.731117 -2.841189 0
M  V30 35 H 0.479973 -2.357274 -3.171964 0
M  V30 36 H 0.215102 5.065617 3.679120 0
M  V30 37 H -0.751114 3.605632 3.872235 0
M  V30 38 H -1.060560 4.723932 2.450690 0
M  V30 39 H 2.525459 4.511288 2.977037 0
M  V30 40 H -2.922992 1.264018 -1.479488 0
M  V30 41 H -4.979750 2.137759 -0.338545 0
M  V30 42 H -5.905414 1.485612 2.890657 0
M  V30 43 H -3.348437 1.074897 3.453337 0
M  V30 44 H -1.328090 0.217967 2.316220 0
M  V30 45 H -1.471764 -1.413468 -1.501406 0
M  V30 END ATOM
M  V30 BEGIN BOND
M  V30 1 1 1 2
M  V30 2 1 2 3
M  V30 3 1 3 4
M  V30 4 2 4 5
M  V30 5 1 4 6
M  V30 6 1 6 7
M  V30 7 1 7 8
M  V30 8 2 8 9
M  V30 9 1 9 10
M  V30 10 1 10 11
M  V30 11 2 11 12
M  V30 12 1 12 13
M  V30 13 1 13 14
M  V30 14 2 13 15
M  V30 15 1 15 16
M  V30 16 2 10 17
M  V30 17 1 17 18
M  V30 18 2 18 19
M  V30 19 1 19 20
M  V30 20 2 20 21
M  V30 21 1 21 22
M  V30 22 1 21 23
M  V30 23 2 23 24
M  V30 24 1 17 25
M  V30 25 1 25 8
M  V30 26 1 16 11
M  V30 27 1 24 18
M  V30 28 1 1 26
M  V30 29 1 1 27
M  V30 30 1 1 28
M  V30 31 1 2 29
M  V30 32 1 2 30
M  V30 33 1 3 31
M  V30 34 1 3 32
M  V30 35 1 6 33
M  V30 36 1 7 34
M  V30 37 1 7 35
M  V30 38 1 14 36
M  V30 39 1 14 37
M  V30 40 1 14 38
M  V30 41 1 15 39
M  V30 42 1 19 40
M  V30 43 1 20 41
M  V30 44 1 22 42
M  V30 45 1 23 43
M  V30 46 1 24 44
M  V30 47 1 25 45
M  V30 END BOND
M  V30 END CTAB
M  END
>  <Dataset>  (88) 
ChEMBL_Kinases

>  <Ligand_Instance>  (88) 
nan

>  <PDB_ID>  (88) 
nan

>  <Standardized_SMILES>  (88) 
CCCC(=O)NCc1nc(-c2nc(C)cs2)c(-c2ccc(O)cc2)[nH]1

>  <Name>  (88) 
nan

>  <Pocket>  (88) 
nan

>  <ATP_Site>  (88) 
nan

>  <Peripheral>  (88) 
nan

>  <Num_H_Atoms_ProtBoundConf>  (88) 
nan

>  <Num_Resolved_Atoms>  (88) 
nan

>  <Num_Not_Resolved_Atoms>  (88) 
nan

$$$$
CHEMBL1957672
     RDKit          3D

  0  0  0  0  0  0  0  0  0  0999 V3000
M  V30 BEGIN CTAB
M  V30 COUNTS 44 47 0 0 0
M  V30 BEGIN ATOM
M  V30 1 C 2.713966 -2.390785 6.070976 0
M  V30 2 C 3.630295 -3.174775 5.197143 0
M  V30 3 C 4.239796 -2.336535 4.082584 0
M  V30 4 C 3.178901 -1.769154 3.206481 0
M  V30 5 O 2.003565 -2.110642 3.576156 0
M  V30 6 N 3.564465 -0.950926 2.109812 0
M  V30 7 C 2.447739 -0.476152 1.358619 0
M  V30 8 N 1.793490 0.665987 1.605162 0
M  V30 9 C 0.791374 0.833168 0.726801 0
M  V30 10 C -0.200221 1.956569 0.620818 0
M  V30 11 N -1.110929 2.317720 -0.009372 0
M  V30 12 C -1.834737 3.398575 0.123153 0
M  V30 13 C -2.971854 3.632086 -0.840441 0
M  V30 14 C -1.424352 4.219832 1.192388 0
M  V30 15 S -0.028595 3.318855 1.880972 0
M  V30 16 C 0.794172 -0.226638 -0.112103 0
M  V30 17 C -0.130772 -0.445323 -1.219820 0
M  V30 18 C -0.248444 0.363557 -2.319823 0
M  V30 19 C -1.179202 0.014044 -3.284199 0
M  V30 20 C -1.971566 -1.100673 -3.168224 0
M  V30 21 C -1.839774 -1.905312 -2.052409 0
M  V30 22 C -0.911204 -1.586012 -1.056600 0
M  V30 23 O -2.765689 -2.939261 -2.224858 0
M  V30 24 C -3.054113 -3.011196 -3.629571 0
M  V30 25 O -2.967276 -1.650912 -3.997207 0
M  V30 26 N 1.814832 -1.026567 0.282774 0
M  V30 27 H 2.787601 -1.295128 5.923943 0
M  V30 28 H 2.830765 -2.606545 7.157924 0
M  V30 29 H 1.668702 -2.676918 5.836997 0
M  V30 30 H 3.087008 -4.003097 4.703055 0
M  V30 31 H 4.449238 -3.583487 5.811155 0
M  V30 32 H 4.944082 -2.977867 3.540855 0
M  V30 33 H 4.801864 -1.513296 4.568803 0
M  V30 34 H 4.554883 -0.731203 1.892028 0
M  V30 35 H -3.704591 4.360548 -0.382245 0
M  V30 36 H -2.641131 4.109782 -1.776579 0
M  V30 37 H -3.551613 2.718246 -1.044953 0
M  V30 38 H -2.129651 5.261182 1.311943 0
M  V30 39 H 0.402092 1.223558 -2.351676 0
M  V30 40 H -1.262028 0.658746 -4.144660 0
M  V30 41 H -0.880948 -2.274145 -0.223974 0
M  V30 42 H -2.295790 -3.637166 -4.104558 0
M  V30 43 H -4.101403 -3.381548 -3.808275 0
M  V30 44 H 2.104938 -1.942011 -0.151408 0
M  V30 END ATOM
M  V30 BEGIN BOND
M  V30 1 1 1 2
M  V30 2 1 2 3
M  V30 3 1 3 4
M  V30 4 2 4 5
M  V30 5 1 4 6
M  V30 6 1 6 7
M  V30 7 2 7 8
M  V30 8 1 8 9
M  V30 9 1 9 10
M  V30 10 2 10 11
M  V30 11 1 11 12
M  V30 12 1 12 13
M  V30 13 2 12 14
M  V30 14 1 14 15
M  V30 15 2 9 16
M  V30 16 1 16 17
M  V30 17 2 17 18
M  V30 18 1 18 19
M  V30 19 2 19 20
M  V30 20 1 20 21
M  V30 21 2 21 22
M  V30 22 1 21 23
M  V30 23 1 23 24
M  V30 24 1 24 25
M  V30 25 1 16 26
M  V30 26 1 26 7
M  V30 27 1 15 10
M  V30 28 1 22 17
M  V30 29 1 25 20
M  V30 30 1 1 27
M  V30 31 1 1 28
M  V30 32 1 1 29
M  V30 33 1 2 30
M  V30 34 1 2 31
M  V30 35 1 3 32
M  V30 36 1 3 33
M  V30 37 1 6 34
M  V30 38 1 13 35
M  V30 39 1 13 36
M  V30 40 1 13 37
M  V30 41 1 14 38
M  V30 42 1 18 39
M  V30 43 1 19 40
M  V30 44 1 22 41
M  V30 45 1 24 42
M  V30 46 1 24 43
M  V30 47 1 26 44
M  V30 END BOND
M  V30 END CTAB
M  END
>  <Dataset>  (89) 
ChEMBL_Kinases

>  <Ligand_Instance>  (89) 
nan

>  <PDB_ID>  (89) 
nan

>  <Standardized_SMILES>  (89) 
CCCC(=O)Nc1nc(-c2nc(C)cs2)c(-c2ccc3c(c2)OCO3)[nH]1

>  <Name>  (89) 
nan

>  <Pocket>  (89) 
nan

>  <ATP_Site>  (89) 
nan

>  <Peripheral>  (89) 
nan

>  <Num_H_Atoms_ProtBoundConf>  (89) 
nan

>  <Num_Resolved_Atoms>  (89) 
nan

>  <Num_Not_Resolved_Atoms>  (89) 
nan

$$$$
CHEMBL1957670
     RDKit          3D

  0  0  0  0  0  0  0  0  0  0999 V3000
M  V30 BEGIN CTAB
M  V30 COUNTS 33 36 0 0 0
M  V30 BEGIN ATOM
M  V30 1 C -1.337572 -1.753776 3.675589 0
M  V30 2 C 0.085105 -2.028399 3.257610 0
M  V30 3 C 1.119839 -2.857276 3.946379 0
M  V30 4 S 2.536844 -2.617519 2.718933 0
M  V30 5 C 1.547349 -1.553378 1.631758 0
M  V30 6 C 2.189685 -1.039315 0.437031 0
M  V30 7 N 3.431955 -1.203789 -0.047718 0
M  V30 8 C 3.582295 -0.521944 -1.209062 0
M  V30 9 N 4.797990 -0.495130 -1.979025 0
M  V30 10 N 2.412797 0.099903 -1.486139 0
M  V30 11 C 1.561067 -0.218461 -0.476528 0
M  V30 12 C 0.170978 0.250828 -0.384212 0
M  V30 13 C -0.221072 1.569769 -0.272258 0
M  V30 14 C -1.562732 1.896129 -0.192963 0
M  V30 15 C -2.540859 0.919189 -0.223176 0
M  V30 16 C -2.153183 -0.408313 -0.335408 0
M  V30 17 C -0.812807 -0.717453 -0.413485 0
M  V30 18 O -3.295109 -1.210347 -0.346145 0
M  V30 19 C -4.423416 -0.376755 -0.615993 0
M  V30 20 O -3.926590 0.877149 -0.168894 0
M  V30 21 N 0.360451 -1.407078 2.112033 0
M  V30 22 H -1.501602 -0.667271 3.824086 0
M  V30 23 H -2.053460 -2.105808 2.902078 0
M  V30 24 H -1.579702 -2.271677 4.614378 0
M  V30 25 H 0.639696 -3.306206 4.943099 0
M  V30 26 H 4.913473 0.366852 -2.576977 0
M  V30 27 H 5.468104 -1.294115 -1.906674 0
M  V30 28 H 2.256023 0.698575 -2.332311 0
M  V30 29 H 0.571758 2.313939 -0.251425 0
M  V30 30 H -1.866956 2.931000 -0.105487 0
M  V30 31 H -0.558108 -1.761041 -0.500399 0
M  V30 32 H -4.551261 -0.386836 -1.723882 0
M  V30 33 H -5.320001 -0.703517 -0.079706 0
M  V30 END ATOM
M  V30 BEGIN BOND
M  V30 1 1 1 2
M  V30 2 2 2 3
M  V30 3 1 3 4
M  V30 4 1 4 5
M  V30 5 1 5 6
M  V30 6 1 6 7
M  V30 7 2 7 8
M  V30 8 1 8 9
M  V30 9 1 8 10
M  V30 10 1 10 11
M  V30 11 1 11 12
M  V30 12 2 12 13
M  V30 13 1 13 14
M  V30 14 2 14 15
M  V30 15 1 15 16
M  V30 16 2 16 17
M  V30 17 1 16 18
M  V30 18 1 18 19
M  V30 19 1 19 20
M  V30 20 2 5 21
M  V30 21 1 21 2
M  V30 22 2 11 6
M  V30 23 1 17 12
M  V30 24 1 20 15
M  V30 25 1 1 22
M  V30 26 1 1 23
M  V30 27 1 1 24
M  V30 28 1 3 25
M  V30 29 1 9 26
M  V30 30 1 9 27
M  V30 31 1 10 28
M  V30 32 1 13 29
M  V30 33 1 14 30
M  V30 34 1 17 31
M  V30 35 1 19 32
M  V30 36 1 19 33
M  V30 END BOND
M  V30 END CTAB
M  END
>  <Dataset>  (90) 
ChEMBL_Kinases

>  <Ligand_Instance>  (90) 
nan

>  <PDB_ID>  (90) 
nan

>  <Standardized_SMILES>  (90) 
Cc1csc(-c2nc(N)[nH]c2-c2ccc3c(c2)OCO3)n1

>  <Name>  (90) 
nan

>  <Pocket>  (90) 
nan

>  <ATP_Site>  (90) 
nan

>  <Peripheral>  (90) 
nan

>  <Num_H_Atoms_ProtBoundConf>  (90) 
nan

>  <Num_Resolved_Atoms>  (90) 
nan

>  <Num_Not_Resolved_Atoms>  (90) 
nan

$$$$
CHEMBL1957669
     RDKit          3D

  0  0  0  0  0  0  0  0  0  0999 V3000
M  V30 BEGIN CTAB
M  V30 COUNTS 38 41 0 0 0
M  V30 BEGIN ATOM
M  V30 1 C 3.557995 -4.223532 4.552401 0
M  V30 2 C 2.931001 -3.385132 3.503782 0
M  V30 3 O 2.436759 -4.017518 2.532324 0
M  V30 4 N 2.827959 -1.965621 3.473822 0
M  V30 5 C 2.190588 -1.281902 2.402814 0
M  V30 6 N 2.468141 -0.733305 1.179926 0
M  V30 7 C 1.323623 -0.204792 0.647840 0
M  V30 8 C 1.799395 0.334944 -0.635997 0
M  V30 9 N 2.144127 0.726106 -1.566401 0
M  V30 10 C 2.209393 1.237091 -2.683818 0
M  V30 11 C 3.174084 1.611074 -3.728714 0
M  V30 12 C 0.861149 1.498127 -2.903104 0
M  V30 13 S 0.064409 0.858701 -1.322699 0
M  V30 14 C 0.352446 -0.437672 1.558579 0
M  V30 15 C -0.979345 0.039124 1.232511 0
M  V30 16 C -1.445756 1.360634 1.123126 0
M  V30 17 C -2.757559 1.650145 0.813997 0
M  V30 18 C -3.666747 0.607168 0.599234 0
M  V30 19 C -3.291926 -0.737836 0.686624 0
M  V30 20 C -1.972504 -0.881132 0.997150 0
M  V30 21 O -4.448742 -1.440398 0.413439 0
M  V30 22 C -5.543906 -0.585625 0.293546 0
M  V30 23 O -5.006090 0.711575 0.283514 0
M  V30 24 N 0.880896 -1.088563 2.617575 0
M  V30 25 H 3.504903 -3.674343 5.530477 0
M  V30 26 H 2.951630 -5.160972 4.708725 0
M  V30 27 H 4.619509 -4.431737 4.358032 0
M  V30 28 H 3.288251 -1.590641 4.351048 0
M  V30 29 H 3.225828 0.874575 -4.566359 0
M  V30 30 H 4.189302 1.806600 -3.318434 0
M  V30 31 H 2.883801 2.576448 -4.209125 0
M  V30 32 H 0.192852 1.985259 -3.788604 0
M  V30 33 H -0.642752 2.087658 1.315286 0
M  V30 34 H -3.024282 2.695153 0.752786 0
M  V30 35 H -1.688543 -1.948430 1.058125 0
M  V30 36 H -6.232952 -0.682845 1.148584 0
M  V30 37 H -6.078496 -0.714093 -0.691522 0
M  V30 38 H 0.176281 -1.295425 3.361690 0
M  V30 END ATOM
M  V30 BEGIN BOND
M  V30 1 1 1 2
M  V30 2 2 2 3
M  V30 3 1 2 4
M  V30 4 1 4 5
M  V30 5 2 5 6
M  V30 6 1 6 7
M  V30 7 1 7 8
M  V30 8 2 8 9
M  V30 9 1 9 10
M  V30 10 1 10 11
M  V30 11 2 10 12
M  V30 12 1 12 13
M  V30 13 2 7 14
M  V30 14 1 14 15
M  V30 15 2 15 16
M  V30 16 1 16 17
M  V30 17 2 17 18
M  V30 18 1 18 19
M  V30 19 2 19 20
M  V30 20 1 19 21
M  V30 21 1 21 22
M  V30 22 1 22 23
M  V30 23 1 14 24
M  V30 24 1 24 5
M  V30 25 1 13 8
M  V30 26 1 20 15
M  V30 27 1 23 18
M  V30 28 1 1 25
M  V30 29 1 1 26
M  V30 30 1 1 27
M  V30 31 1 4 28
M  V30 32 1 11 29
M  V30 33 1 11 30
M  V30 34 1 11 31
M  V30 35 1 12 32
M  V30 36 1 16 33
M  V30 37 1 17 34
M  V30 38 1 20 35
M  V30 39 1 22 36
M  V30 40 1 22 37
M  V30 41 1 24 38
M  V30 END BOND
M  V30 END CTAB
M  END
>  <Dataset>  (91) 
ChEMBL_Kinases

>  <Ligand_Instance>  (91) 
nan

>  <PDB_ID>  (91) 
nan

>  <Standardized_SMILES>  (91) 
CC(=O)Nc1nc(-c2nc(C)cs2)c(-c2ccc3c(c2)OCO3)[nH]1

>  <Name>  (91) 
nan

>  <Pocket>  (91) 
nan

>  <ATP_Site>  (91) 
nan

>  <Peripheral>  (91) 
nan

>  <Num_H_Atoms_ProtBoundConf>  (91) 
nan

>  <Num_Resolved_Atoms>  (91) 
nan

>  <Num_Not_Resolved_Atoms>  (91) 
nan

$$$$
CHEMBL1957668
     RDKit          3D

  0  0  0  0  0  0  0  0  0  0999 V3000
M  V30 BEGIN CTAB
M  V30 COUNTS 47 50 0 0 0
M  V30 BEGIN ATOM
M  V30 1 C -0.962407 -5.142414 3.029033 0
M  V30 2 C 0.223316 -4.343749 2.560877 0
M  V30 3 C 1.663179 -4.567219 2.892513 0
M  V30 4 S 2.412806 -3.161138 1.919566 0
M  V30 5 C 0.818944 -2.591251 1.309781 0
M  V30 6 C 0.777948 -1.419542 0.423520 0
M  V30 7 N 1.784088 -0.658434 -0.036056 0
M  V30 8 C 1.296794 0.328075 -0.834056 0
M  V30 9 C 2.159057 1.331025 -1.491069 0
M  V30 10 C 2.374401 2.561131 -0.646638 0
M  V30 11 C 3.019863 2.296815 0.670520 0
M  V30 12 C 3.227581 3.558467 1.508708 0
M  V30 13 C 4.085843 4.529318 0.814071 0
M  V30 14 N 4.213289 5.662922 1.678177 0
M  V30 15 O 4.697513 4.619309 -0.269430 0
M  V30 16 N -0.043041 0.155151 -0.855124 0
M  V30 17 C -0.394403 -0.912449 -0.090695 0
M  V30 18 C -1.754403 -1.393950 0.120328 0
M  V30 19 C -2.587453 -0.447912 0.721504 0
M  V30 20 C -3.914893 -0.735325 0.997637 0
M  V30 21 C -4.461189 -1.967362 0.688296 0
M  V30 22 C -3.603529 -2.872044 0.095742 0
M  V30 23 C -2.291779 -2.622498 -0.190289 0
M  V30 24 O -4.366920 -4.028401 -0.121811 0
M  V30 25 C -5.494414 -3.963568 0.739343 0
M  V30 26 O -5.725017 -2.563729 0.828671 0
M  V30 27 N -0.107495 -3.346908 1.773196 0
M  V30 28 H -0.677713 -5.853410 3.814275 0
M  V30 29 H -1.739976 -4.491939 3.488170 0
M  V30 30 H -1.414150 -5.613396 2.144072 0
M  V30 31 H 1.765705 -5.517249 3.618963 0
M  V30 32 H 3.124415 0.912714 -1.839816 0
M  V30 33 H 1.648148 1.683295 -2.420097 0
M  V30 34 H 1.437227 3.125051 -0.476386 0
M  V30 35 H 3.036987 3.254126 -1.206043 0
M  V30 36 H 4.024248 1.828229 0.574126 0
M  V30 37 H 2.438155 1.620196 1.313503 0
M  V30 38 H 2.261771 3.990324 1.828303 0
M  V30 39 H 3.762049 3.237939 2.427101 0
M  V30 40 H 5.102494 5.947661 2.122790 0
M  V30 41 H 3.493939 6.331508 1.976774 0
M  V30 42 H -0.687695 0.774346 -1.393879 0
M  V30 43 H -2.255183 0.553571 1.005759 0
M  V30 44 H -4.549178 0.020958 1.469188 0
M  V30 45 H -1.596565 -3.300920 -0.649792 0
M  V30 46 H -6.382232 -4.467404 0.313844 0
M  V30 47 H -5.250037 -4.284190 1.774427 0
M  V30 END ATOM
M  V30 BEGIN BOND
M  V30 1 1 1 2
M  V30 2 2 2 3
M  V30 3 1 3 4
M  V30 4 1 4 5
M  V30 5 1 5 6
M  V30 6 1 6 7
M  V30 7 2 7 8
M  V30 8 1 8 9
M  V30 9 1 9 10
M  V30 10 1 10 11
M  V30 11 1 11 12
M  V30 12 1 12 13
M  V30 13 1 13 14
M  V30 14 2 13 15
M  V30 15 1 8 16
M  V30 16 1 16 17
M  V30 17 1 17 18
M  V30 18 2 18 19
M  V30 19 1 19 20
M  V30 20 2 20 21
M  V30 21 1 21 22
M  V30 22 2 22 23
M  V30 23 1 22 24
M  V30 24 1 24 25
M  V30 25 1 25 26
M  V30 26 2 5 27
M  V30 27 1 27 2
M  V30 28 2 17 6
M  V30 29 1 23 18
M  V30 30 1 26 21
M  V30 31 1 1 28
M  V30 32 1 1 29
M  V30 33 1 1 30
M  V30 34 1 3 31
M  V30 35 1 9 32
M  V30 36 1 9 33
M  V30 37 1 10 34
M  V30 38 1 10 35
M  V30 39 1 11 36
M  V30 40 1 11 37
M  V30 41 1 12 38
M  V30 42 1 12 39
M  V30 43 1 14 40
M  V30 44 1 14 41
M  V30 45 1 16 42
M  V30 46 1 19 43
M  V30 47 1 20 44
M  V30 48 1 23 45
M  V30 49 1 25 46
M  V30 50 1 25 47
M  V30 END BOND
M  V30 END CTAB
M  END
>  <Dataset>  (92) 
ChEMBL_Kinases

>  <Ligand_Instance>  (92) 
nan

>  <PDB_ID>  (92) 
nan

>  <Standardized_SMILES>  (92) 
Cc1csc(-c2nc(CCCCC(N)=O)[nH]c2-c2ccc3c(c2)OCO3)n1

>  <Name>  (92) 
nan

>  <Pocket>  (92) 
nan

>  <ATP_Site>  (92) 
nan

>  <Peripheral>  (92) 
nan

>  <Num_H_Atoms_ProtBoundConf>  (92) 
nan

>  <Num_Resolved_Atoms>  (92) 
nan

>  <Num_Not_Resolved_Atoms>  (92) 
nan

$$$$
CHEMBL1957667
     RDKit          3D

  0  0  0  0  0  0  0  0  0  0999 V3000
M  V30 BEGIN CTAB
M  V30 COUNTS 56 59 0 0 0
M  V30 BEGIN ATOM
M  V30 1 C 6.668214 -0.527823 4.868023 0
M  V30 2 C 7.224241 -1.384079 3.759883 0
M  V30 3 C 6.117381 -1.787630 2.786103 0
M  V30 4 N 5.497305 -0.650048 2.180271 0
M  V30 5 C 4.421895 -0.830240 1.230527 0
M  V30 6 O 4.263599 -2.099095 1.149758 0
M  V30 7 C 3.905009 0.458865 0.708719 0
M  V30 8 C 2.768993 0.284313 -0.280130 0
M  V30 9 C 2.277679 1.612564 -0.785461 0
M  V30 10 C 1.144286 1.430537 -1.752109 0
M  V30 11 C -0.010395 0.749382 -1.102737 0
M  V30 12 N -0.336755 0.238232 0.076459 0
M  V30 13 C -1.591868 -0.221891 0.028451 0
M  V30 14 C -2.249287 -0.858512 1.126216 0
M  V30 15 N -2.911172 -1.394377 1.952114 0
M  V30 16 C -4.116872 -1.807014 2.031946 0
M  V30 17 C -5.521650 -2.277794 2.100098 0
M  V30 18 C -3.357698 -2.063984 3.290867 0
M  V30 19 S -1.727089 -1.364874 2.827325 0
M  V30 20 C -2.102129 -0.006484 -1.216833 0
M  V30 21 C -3.448436 -0.370443 -1.644008 0
M  V30 22 C -4.522497 0.274100 -1.064065 0
M  V30 23 C -5.834804 -0.025602 -1.428386 0
M  V30 24 C -6.066927 -1.001046 -2.403783 0
M  V30 25 C -4.953064 -1.615386 -2.951268 0
M  V30 26 C -3.637288 -1.348430 -2.618925 0
M  V30 27 O -5.393671 -2.554476 -3.899820 0
M  V30 28 C -6.761998 -2.862020 -3.597706 0
M  V30 29 O -7.159689 -1.596100 -3.049228 0
M  V30 30 N -1.107930 0.591815 -1.893273 0
M  V30 31 H 6.612114 -1.129851 5.819303 0
M  V30 32 H 5.599863 -0.303605 4.627009 0
M  V30 33 H 7.252910 0.391044 5.066314 0
M  V30 34 H 7.755133 -2.272091 4.148288 0
M  V30 35 H 7.969820 -0.752798 3.215636 0
M  V30 36 H 5.399804 -2.387763 3.385795 0
M  V30 37 H 6.531926 -2.432512 1.995356 0
M  V30 38 H 5.870508 0.305742 2.466944 0
M  V30 39 H 3.458571 1.020659 1.581288 0
M  V30 40 H 4.741942 1.023273 0.297451 0
M  V30 41 H 1.953178 -0.312951 0.162496 0
M  V30 42 H 3.153824 -0.327908 -1.146740 0
M  V30 43 H 1.901285 2.201810 0.089220 0
M  V30 44 H 3.104109 2.140643 -1.310233 0
M  V30 45 H 1.529782 0.741273 -2.560186 0
M  V30 46 H 0.862179 2.358924 -2.269200 0
M  V30 47 H -5.513925 -3.393914 2.030897 0
M  V30 48 H -6.111026 -1.845132 1.265894 0
M  V30 49 H -5.970567 -1.900222 3.047302 0
M  V30 50 H -3.620625 -2.573316 4.366770 0
M  V30 51 H -4.446183 1.036276 -0.306503 0
M  V30 52 H -6.726914 0.429308 -1.027362 0
M  V30 53 H -2.814009 -1.862468 -3.082924 0
M  V30 54 H -7.335501 -3.156579 -4.475835 0
M  V30 55 H -6.706205 -3.643413 -2.789268 0
M  V30 56 H -1.305871 0.847249 -2.903897 0
M  V30 END ATOM
M  V30 BEGIN BOND
M  V30 1 1 1 2
M  V30 2 1 2 3
M  V30 3 1 3 4
M  V30 4 1 4 5
M  V30 5 2 5 6
M  V30 6 1 5 7
M  V30 7 1 7 8
M  V30 8 1 8 9
M  V30 9 1 9 10
M  V30 10 1 10 11
M  V30 11 2 11 12
M  V30 12 1 12 13
M  V30 13 1 13 14
M  V30 14 2 14 15
M  V30 15 1 15 16
M  V30 16 1 16 17
M  V30 17 2 16 18
M  V30 18 1 18 19
M  V30 19 2 13 20
M  V30 20 1 20 21
M  V30 21 2 21 22
M  V30 22 1 22 23
M  V30 23 2 23 24
M  V30 24 1 24 25
M  V30 25 2 25 26
M  V30 26 1 25 27
M  V30 27 1 27 28
M  V30 28 1 28 29
M  V30 29 1 20 30
M  V30 30 1 30 11
M  V30 31 1 19 14
M  V30 32 1 26 21
M  V30 33 1 29 24
M  V30 34 1 1 31
M  V30 35 1 1 32
M  V30 36 1 1 33
M  V30 37 1 2 34
M  V30 38 1 2 35
M  V30 39 1 3 36
M  V30 40 1 3 37
M  V30 41 1 4 38
M  V30 42 1 7 39
M  V30 43 1 7 40
M  V30 44 1 8 41
M  V30 45 1 8 42
M  V30 46 1 9 43
M  V30 47 1 9 44
M  V30 48 1 10 45
M  V30 49 1 10 46
M  V30 50 1 17 47
M  V30 51 1 17 48
M  V30 52 1 17 49
M  V30 53 1 18 50
M  V30 54 1 22 51
M  V30 55 1 23 52
M  V30 56 1 26 53
M  V30 57 1 28 54
M  V30 58 1 28 55
M  V30 59 1 30 56
M  V30 END BOND
M  V30 END CTAB
M  END
>  <Dataset>  (93) 
ChEMBL_Kinases

>  <Ligand_Instance>  (93) 
nan

>  <PDB_ID>  (93) 
nan

>  <Standardized_SMILES>  (93) 
CCCNC(=O)CCCCc1nc(-c2nc(C)cs2)c(-c2ccc3c(c2)OCO3)[nH]1

>  <Name>  (93) 
nan

>  <Pocket>  (93) 
nan

>  <ATP_Site>  (93) 
nan

>  <Peripheral>  (93) 
nan

>  <Num_H_Atoms_ProtBoundConf>  (93) 
nan

>  <Num_Resolved_Atoms>  (93) 
nan

>  <Num_Not_Resolved_Atoms>  (93) 
nan

$$$$
CHEMBL1957666
     RDKit          3D

  0  0  0  0  0  0  0  0  0  0999 V3000
M  V30 BEGIN CTAB
M  V30 COUNTS 53 56 0 0 0
M  V30 BEGIN ATOM
M  V30 1 C 3.911259 -0.907959 6.825750 0
M  V30 2 C 4.077764 -2.110318 5.965426 0
M  V30 3 C 2.798437 -2.547453 5.296101 0
M  V30 4 N 2.222806 -1.543410 4.434745 0
M  V30 5 C 3.004974 -1.069811 3.321810 0
M  V30 6 O 4.163596 -1.484176 3.059484 0
M  V30 7 C 2.332065 -0.038045 2.491427 0
M  V30 8 C 3.193183 0.419666 1.339946 0
M  V30 9 C 2.527826 1.467515 0.482752 0
M  V30 10 C 1.268076 1.023156 -0.131946 0
M  V30 11 N 0.102120 1.222968 0.551777 0
M  V30 12 C -0.879090 0.731192 -0.225405 0
M  V30 13 C -2.316263 0.671783 -0.008609 0
M  V30 14 N -3.366296 0.206338 -0.717181 0
M  V30 15 C -4.533135 0.379120 -0.085479 0
M  V30 16 C -5.649503 -0.164486 -0.940126 0
M  V30 17 C -4.738907 0.990954 1.221552 0
M  V30 18 S -2.977946 1.375711 1.595751 0
M  V30 19 C -0.370451 0.225201 -1.382083 0
M  V30 20 C -1.023192 -0.403822 -2.516861 0
M  V30 21 C -1.006220 0.070345 -3.810854 0
M  V30 22 C -1.677537 -0.644916 -4.780094 0
M  V30 23 C -2.375460 -1.813148 -4.560126 0
M  V30 24 C -2.381828 -2.275146 -3.253309 0
M  V30 25 C -1.717555 -1.578150 -2.263297 0
M  V30 26 O -3.138649 -3.453745 -3.269428 0
M  V30 27 C -3.747722 -3.620393 -4.540669 0
M  V30 28 O -3.107302 -2.678618 -5.368863 0
M  V30 29 N 0.980045 0.415481 -1.309723 0
M  V30 30 H 4.470857 -0.019721 6.472697 0
M  V30 31 H 2.856733 -0.584188 6.941638 0
M  V30 32 H 4.302181 -1.122643 7.835254 0
M  V30 33 H 4.399927 -2.964835 6.591799 0
M  V30 34 H 4.881541 -1.934342 5.238248 0
M  V30 35 H 2.069750 -2.893932 6.036739 0
M  V30 36 H 3.045515 -3.410549 4.633259 0
M  V30 37 H 1.261599 -1.185180 4.634203 0
M  V30 38 H 1.313889 -0.289956 2.197502 0
M  V30 39 H 2.237132 0.867796 3.158512 0
M  V30 40 H 4.152186 0.854712 1.683697 0
M  V30 41 H 3.439326 -0.467567 0.725089 0
M  V30 42 H 2.424693 2.432895 1.018164 0
M  V30 43 H 3.270235 1.681580 -0.337448 0
M  V30 44 H -5.741071 0.525817 -1.798967 0
M  V30 45 H -5.509579 -1.199623 -1.238547 0
M  V30 46 H -6.596051 -0.071173 -0.351733 0
M  V30 47 H -5.622131 1.081493 1.616679 0
M  V30 48 H -0.467753 0.978846 -4.001220 0
M  V30 49 H -1.675632 -0.285103 -5.811531 0
M  V30 50 H -1.793570 -2.039285 -1.276135 0
M  V30 51 H -4.823868 -3.350909 -4.413516 0
M  V30 52 H -3.611457 -4.648945 -4.910435 0
M  V30 53 H 1.726518 0.164999 -1.998812 0
M  V30 END ATOM
M  V30 BEGIN BOND
M  V30 1 1 1 2
M  V30 2 1 2 3
M  V30 3 1 3 4
M  V30 4 1 4 5
M  V30 5 2 5 6
M  V30 6 1 5 7
M  V30 7 1 7 8
M  V30 8 1 8 9
M  V30 9 1 9 10
M  V30 10 2 10 11
M  V30 11 1 11 12
M  V30 12 1 12 13
M  V30 13 2 13 14
M  V30 14 1 14 15
M  V30 15 1 15 16
M  V30 16 2 15 17
M  V30 17 1 17 18
M  V30 18 2 12 19
M  V30 19 1 19 20
M  V30 20 2 20 21
M  V30 21 1 21 22
M  V30 22 2 22 23
M  V30 23 1 23 24
M  V30 24 2 24 25
M  V30 25 1 24 26
M  V30 26 1 26 27
M  V30 27 1 27 28
M  V30 28 1 19 29
M  V30 29 1 29 10
M  V30 30 1 18 13
M  V30 31 1 25 20
M  V30 32 1 28 23
M  V30 33 1 1 30
M  V30 34 1 1 31
M  V30 35 1 1 32
M  V30 36 1 2 33
M  V30 37 1 2 34
M  V30 38 1 3 35
M  V30 39 1 3 36
M  V30 40 1 4 37
M  V30 41 1 7 38
M  V30 42 1 7 39
M  V30 43 1 8 40
M  V30 44 1 8 41
M  V30 45 1 9 42
M  V30 46 1 9 43
M  V30 47 1 16 44
M  V30 48 1 16 45
M  V30 49 1 16 46
M  V30 50 1 17 47
M  V30 51 1 21 48
M  V30 52 1 22 49
M  V30 53 1 25 50
M  V30 54 1 27 51
M  V30 55 1 27 52
M  V30 56 1 29 53
M  V30 END BOND
M  V30 END CTAB
M  END
>  <Dataset>  (94) 
ChEMBL_Kinases

>  <Ligand_Instance>  (94) 
nan

>  <PDB_ID>  (94) 
nan

>  <Standardized_SMILES>  (94) 
CCCNC(=O)CCCc1nc(-c2nc(C)cs2)c(-c2ccc3c(c2)OCO3)[nH]1

>  <Name>  (94) 
nan

>  <Pocket>  (94) 
nan

>  <ATP_Site>  (94) 
nan

>  <Peripheral>  (94) 
nan

>  <Num_H_Atoms_ProtBoundConf>  (94) 
nan

>  <Num_Resolved_Atoms>  (94) 
nan

>  <Num_Not_Resolved_Atoms>  (94) 
nan

$$$$
CHEMBL1957665
     RDKit          3D

  0  0  0  0  0  0  0  0  0  0999 V3000
M  V30 BEGIN CTAB
M  V30 COUNTS 50 53 0 0 0
M  V30 BEGIN ATOM
M  V30 1 C 2.253133 -1.834348 4.083689 0
M  V30 2 C 3.227329 -0.697933 3.951321 0
M  V30 3 C 4.554707 -1.118359 3.399010 0
M  V30 4 N 4.535504 -1.705158 2.099436 0
M  V30 5 C 4.038268 -0.972402 0.984566 0
M  V30 6 O 3.649625 0.168111 1.273238 0
M  V30 7 C 4.054667 -1.652360 -0.318411 0
M  V30 8 C 3.511748 -0.812877 -1.437000 0
M  V30 9 C 2.104457 -0.461521 -1.124621 0
M  V30 10 N 1.656122 0.611816 -0.452652 0
M  V30 11 C 0.332927 0.597562 -0.364454 0
M  V30 12 C -0.625011 1.569579 0.284895 0
M  V30 13 N -1.743014 1.719571 0.455486 0
M  V30 14 C -2.322428 2.719735 1.094472 0
M  V30 15 C -3.825638 2.726762 1.206088 0
M  V30 16 C -1.458906 3.709996 1.622774 0
M  V30 17 S 0.208615 3.057447 1.112336 0
M  V30 18 C -0.138923 -0.508942 -0.988950 0
M  V30 19 C -1.500273 -0.935009 -1.143228 0
M  V30 20 C -2.380269 -0.168929 -1.840877 0
M  V30 21 C -3.670837 -0.610211 -1.965067 0
M  V30 22 C -4.121339 -1.776712 -1.426829 0
M  V30 23 C -3.222519 -2.570061 -0.708071 0
M  V30 24 C -1.902776 -2.145268 -0.565835 0
M  V30 25 O -3.864685 -3.709397 -0.241544 0
M  V30 26 C -5.188997 -3.681660 -0.702975 0
M  V30 27 O -5.316429 -2.465180 -1.381054 0
M  V30 28 N 0.987163 -1.126897 -1.439249 0
M  V30 29 H 2.091577 -2.126288 5.162642 0
M  V30 30 H 2.627825 -2.745113 3.596946 0
M  V30 31 H 1.227015 -1.549801 3.731911 0
M  V30 32 H 2.744257 0.145958 3.429409 0
M  V30 33 H 3.430069 -0.319775 4.978960 0
M  V30 34 H 5.212230 -0.206612 3.456574 0
M  V30 35 H 5.006526 -1.814744 4.138027 0
M  V30 36 H 4.896790 -2.698202 1.969018 0
M  V30 37 H 5.117170 -1.919727 -0.540842 0
M  V30 38 H 3.483346 -2.604192 -0.321225 0
M  V30 39 H 4.069264 0.169233 -1.441760 0
M  V30 40 H 3.595644 -1.320650 -2.399003 0
M  V30 41 H -4.188072 1.821995 1.731835 0
M  V30 42 H -4.169369 3.586507 1.783997 0
M  V30 43 H -4.307796 2.729352 0.193886 0
M  V30 44 H -1.917687 4.579847 2.174803 0
M  V30 45 H -2.031072 0.753441 -2.268532 0
M  V30 46 H -4.365630 0.021455 -2.531555 0
M  V30 47 H -1.154353 -2.727357 -0.012281 0
M  V30 48 H -5.402140 -4.558443 -1.336869 0
M  V30 49 H -5.871155 -3.749394 0.186639 0
M  V30 50 H 0.974857 -2.036279 -1.979808 0
M  V30 END ATOM
M  V30 BEGIN BOND
M  V30 1 1 1 2
M  V30 2 1 2 3
M  V30 3 1 3 4
M  V30 4 1 4 5
M  V30 5 2 5 6
M  V30 6 1 5 7
M  V30 7 1 7 8
M  V30 8 1 8 9
M  V30 9 2 9 10
M  V30 10 1 10 11
M  V30 11 1 11 12
M  V30 12 2 12 13
M  V30 13 1 13 14
M  V30 14 1 14 15
M  V30 15 2 14 16
M  V30 16 1 16 17
M  V30 17 2 11 18
M  V30 18 1 18 19
M  V30 19 2 19 20
M  V30 20 1 20 21
M  V30 21 2 21 22
M  V30 22 1 22 23
M  V30 23 2 23 24
M  V30 24 1 23 25
M  V30 25 1 25 26
M  V30 26 1 26 27
M  V30 27 1 18 28
M  V30 28 1 28 9
M  V30 29 1 17 12
M  V30 30 1 24 19
M  V30 31 1 27 22
M  V30 32 1 1 29
M  V30 33 1 1 30
M  V30 34 1 1 31
M  V30 35 1 2 32
M  V30 36 1 2 33
M  V30 37 1 3 34
M  V30 38 1 3 35
M  V30 39 1 4 36
M  V30 40 1 7 37
M  V30 41 1 7 38
M  V30 42 1 8 39
M  V30 43 1 8 40
M  V30 44 1 15 41
M  V30 45 1 15 42
M  V30 46 1 15 43
M  V30 47 1 16 44
M  V30 48 1 20 45
M  V30 49 1 21 46
M  V30 50 1 24 47
M  V30 51 1 26 48
M  V30 52 1 26 49
M  V30 53 1 28 50
M  V30 END BOND
M  V30 END CTAB
M  END
>  <Dataset>  (95) 
ChEMBL_Kinases

>  <Ligand_Instance>  (95) 
nan

>  <PDB_ID>  (95) 
nan

>  <Standardized_SMILES>  (95) 
CCCNC(=O)CCc1nc(-c2nc(C)cs2)c(-c2ccc3c(c2)OCO3)[nH]1

>  <Name>  (95) 
nan

>  <Pocket>  (95) 
nan

>  <ATP_Site>  (95) 
nan

>  <Peripheral>  (95) 
nan

>  <Num_H_Atoms_ProtBoundConf>  (95) 
nan

>  <Num_Resolved_Atoms>  (95) 
nan

>  <Num_Not_Resolved_Atoms>  (95) 
nan

$$$$
CHEMBL1957623
     RDKit          3D

  0  0  0  0  0  0  0  0  0  0999 V3000
M  V30 BEGIN CTAB
M  V30 COUNTS 42 46 0 0 0
M  V30 BEGIN ATOM
M  V30 1 N 4.726466 -6.323511 3.770341 0
M  V30 2 C 4.866237 -4.930639 4.020216 0
M  V30 3 O 5.727012 -4.458480 4.808553 0
M  V30 4 C 4.002732 -3.955789 3.363539 0
M  V30 5 C 4.177532 -2.614215 3.638721 0
M  V30 6 C 3.372883 -1.643666 3.032517 0
M  V30 7 C 2.385114 -2.027649 2.142652 0
M  V30 8 C 1.527087 -1.039060 1.491423 0
M  V30 9 N 1.607577 0.277760 1.680770 0
M  V30 10 C 0.688026 0.924139 0.945296 0
M  V30 11 C 0.353642 2.368116 0.787478 0
M  V30 12 N -0.333964 3.087874 0.261264 0
M  V30 13 C -0.410965 4.397274 0.310640 0
M  V30 14 Br -1.740398 5.307789 -0.749725 0
M  V30 15 C 0.544897 4.988253 1.182606 0
M  V30 16 S 1.453789 3.506045 1.831400 0
M  V30 17 C -0.019947 -0.027440 0.247030 0
M  V30 18 C -1.125596 0.199427 -0.688454 0
M  V30 19 C -0.743992 0.939840 -1.793954 0
M  V30 20 C -1.693892 1.237270 -2.775329 0
M  V30 21 C -3.001462 0.789224 -2.630995 0
M  V30 22 C -3.364556 0.048475 -1.516034 0
M  V30 23 C -2.421206 -0.251918 -0.532464 0
M  V30 24 O -4.705882 -0.270426 -1.613435 0
M  V30 25 C -5.251635 0.760037 -2.452915 0
M  V30 26 O -4.180303 0.890000 -3.380933 0
M  V30 27 N 0.522281 -1.215198 0.607386 0
M  V30 28 C 2.185467 -3.376185 1.845385 0
M  V30 29 C 3.005660 -4.305882 2.468789 0
M  V30 30 H 3.825468 -6.834632 3.645416 0
M  V30 31 H 3.838534 -6.844082 3.644274 0
M  V30 32 H 4.920308 -2.220150 4.317869 0
M  V30 33 H 3.485154 -0.573465 3.228408 0
M  V30 34 H 0.478899 6.217583 1.234770 0
M  V30 35 H 0.239738 1.317892 -1.973862 0
M  V30 36 H -1.470818 1.815383 -3.675186 0
M  V30 37 H -2.632939 -0.821323 0.357736 0
M  V30 38 H -6.193310 0.470675 -2.910600 0
M  V30 39 H -5.300159 1.664471 -1.811389 0
M  V30 40 H 0.208193 -2.143010 0.251272 0
M  V30 41 H 1.426448 -3.746604 1.154495 0
M  V30 42 H 2.886771 -5.376745 2.266742 0
M  V30 END ATOM
M  V30 BEGIN BOND
M  V30 1 1 1 2
M  V30 2 2 2 3
M  V30 3 1 2 4
M  V30 4 2 4 5
M  V30 5 1 5 6
M  V30 6 2 6 7
M  V30 7 1 7 8
M  V30 8 2 8 9
M  V30 9 1 9 10
M  V30 10 1 10 11
M  V30 11 2 11 12
M  V30 12 1 12 13
M  V30 13 1 13 14
M  V30 14 2 13 15
M  V30 15 1 15 16
M  V30 16 2 10 17
M  V30 17 1 17 18
M  V30 18 2 18 19
M  V30 19 1 19 20
M  V30 20 2 20 21
M  V30 21 1 21 22
M  V30 22 2 22 23
M  V30 23 1 22 24
M  V30 24 1 24 25
M  V30 25 1 25 26
M  V30 26 1 17 27
M  V30 27 1 7 28
M  V30 28 2 28 29
M  V30 29 1 29 4
M  V30 30 1 27 8
M  V30 31 1 16 11
M  V30 32 1 23 18
M  V30 33 1 26 21
M  V30 34 1 1 30
M  V30 35 1 1 31
M  V30 36 1 5 32
M  V30 37 1 6 33
M  V30 38 1 15 34
M  V30 39 1 19 35
M  V30 40 1 20 36
M  V30 41 1 23 37
M  V30 42 1 25 38
M  V30 43 1 25 39
M  V30 44 1 27 40
M  V30 45 1 28 41
M  V30 46 1 29 42
M  V30 END BOND
M  V30 END CTAB
M  END
>  <Dataset>  (96) 
ChEMBL_Kinases

>  <Ligand_Instance>  (96) 
nan

>  <PDB_ID>  (96) 
nan

>  <Standardized_SMILES>  (96) 
NC(=O)c1ccc(-c2nc(-c3nc(Br)cs3)c(-c3ccc4c(c3)OCO4)[nH]2)cc1

>  <Name>  (96) 
nan

>  <Pocket>  (96) 
nan

>  <ATP_Site>  (96) 
nan

>  <Peripheral>  (96) 
nan

>  <Num_H_Atoms_ProtBoundConf>  (96) 
nan

>  <Num_Resolved_Atoms>  (96) 
nan

>  <Num_Not_Resolved_Atoms>  (96) 
nan

$$$$
CHEMBL1957648
     RDKit          3D

  0  0  0  0  0  0  0  0  0  0999 V3000
M  V30 BEGIN CTAB
M  V30 COUNTS 42 46 0 0 0
M  V30 BEGIN ATOM
M  V30 1 N 0.454947 -8.149283 2.466224 0
M  V30 2 C 1.529509 -7.359055 1.934102 0
M  V30 3 O 2.635946 -7.965889 1.746046 0
M  V30 4 C 1.335568 -5.935883 1.633318 0
M  V30 5 C 0.120835 -5.274006 1.841400 0
M  V30 6 C 0.050098 -3.931355 1.523197 0
M  V30 7 C 1.134761 -3.247394 1.014460 0
M  V30 8 C 1.031651 -1.828931 0.687486 0
M  V30 9 N 2.008954 -1.053828 0.194574 0
M  V30 10 C 1.583215 0.206867 0.007493 0
M  V30 11 C 2.175746 1.429318 -0.479779 0
M  V30 12 N 1.896876 2.566253 -0.683684 0
M  V30 13 C 2.742587 3.466255 -1.161468 0
M  V30 14 C 4.105121 3.069422 -1.465645 0
M  V30 15 S 3.989423 1.242996 -0.970937 0
M  V30 16 C 0.255553 0.214164 0.410588 0
M  V30 17 C -0.700626 1.326805 0.423641 0
M  V30 18 C -1.866974 1.332254 -0.313389 0
M  V30 19 C -2.736430 2.427622 -0.253112 0
M  V30 20 C -2.353354 3.465615 0.569870 0
M  V30 21 C -1.183190 3.494249 1.328268 0
M  V30 22 C -0.354181 2.395493 1.240430 0
M  V30 23 O -1.173373 4.709439 2.013376 0
M  V30 24 C -2.177733 5.541006 1.419194 0
M  V30 25 O -3.066789 4.654660 0.781643 0
M  V30 26 N -0.041527 -1.033714 0.814789 0
M  V30 27 C 2.330463 -3.908063 0.811856 0
M  V30 28 C 2.423339 -5.252651 1.123747 0
M  V30 29 H 0.008233 -7.748349 3.319531 0
M  V30 30 H 0.234800 -9.042661 1.940797 0
M  V30 31 H -0.692057 -5.842582 2.236803 0
M  V30 32 H -0.896468 -3.470421 1.699179 0
M  V30 33 H 2.261866 4.454959 -1.268528 0
M  V30 34 H 4.698312 4.009437 -1.878513 0
M  V30 35 H -2.088283 0.461004 -0.941159 0
M  V30 36 H -3.636499 2.430311 -0.822689 0
M  V30 37 H 0.561136 2.387963 1.817091 0
M  V30 38 H -1.631712 6.104238 0.611054 0
M  V30 39 H -2.670712 6.188954 2.145305 0
M  V30 40 H -0.981083 -1.344705 1.179285 0
M  V30 41 H 3.159799 -3.310442 0.403989 0
M  V30 42 H 3.387148 -5.672618 0.931885 0
M  V30 END ATOM
M  V30 BEGIN BOND
M  V30 1 1 1 2
M  V30 2 2 2 3
M  V30 3 1 2 4
M  V30 4 2 4 5
M  V30 5 1 5 6
M  V30 6 2 6 7
M  V30 7 1 7 8
M  V30 8 2 8 9
M  V30 9 1 9 10
M  V30 10 1 10 11
M  V30 11 2 11 12
M  V30 12 1 12 13
M  V30 13 2 13 14
M  V30 14 1 14 15
M  V30 15 2 10 16
M  V30 16 1 16 17
M  V30 17 2 17 18
M  V30 18 1 18 19
M  V30 19 2 19 20
M  V30 20 1 20 21
M  V30 21 2 21 22
M  V30 22 1 21 23
M  V30 23 1 23 24
M  V30 24 1 24 25
M  V30 25 1 16 26
M  V30 26 1 7 27
M  V30 27 2 27 28
M  V30 28 1 28 4
M  V30 29 1 26 8
M  V30 30 1 15 11
M  V30 31 1 22 17
M  V30 32 1 25 20
M  V30 33 1 1 29
M  V30 34 1 1 30
M  V30 35 1 5 31
M  V30 36 1 6 32
M  V30 37 1 13 33
M  V30 38 1 14 34
M  V30 39 1 18 35
M  V30 40 1 19 36
M  V30 41 1 22 37
M  V30 42 1 24 38
M  V30 43 1 24 39
M  V30 44 1 26 40
M  V30 45 1 27 41
M  V30 46 1 28 42
M  V30 END BOND
M  V30 END CTAB
M  END
>  <Dataset>  (97) 
ChEMBL_Kinases

>  <Ligand_Instance>  (97) 
nan

>  <PDB_ID>  (97) 
nan

>  <Standardized_SMILES>  (97) 
NC(=O)c1ccc(-c2nc(-c3nccs3)c(-c3ccc4c(c3)OCO4)[nH]2)cc1

>  <Name>  (97) 
nan

>  <Pocket>  (97) 
nan

>  <ATP_Site>  (97) 
nan

>  <Peripheral>  (97) 
nan

>  <Num_H_Atoms_ProtBoundConf>  (97) 
nan

>  <Num_Resolved_Atoms>  (97) 
nan

>  <Num_Not_Resolved_Atoms>  (97) 
nan

$$$$
CHEMBL1957649
     RDKit          3D

  0  0  0  0  0  0  0  0  0  0999 V3000
M  V30 BEGIN CTAB
M  V30 COUNTS 45 49 0 0 0
M  V30 BEGIN ATOM
M  V30 1 C -4.092306 -0.365305 -2.699866 0
M  V30 2 C -2.636457 -0.651316 -2.619506 0
M  V30 3 C -2.070004 -1.150503 -3.768202 0
M  V30 4 S -0.314678 -1.313144 -3.119648 0
M  V30 5 C -0.782987 -0.663420 -1.438777 0
M  V30 6 C 0.102198 -0.539464 -0.258088 0
M  V30 7 N -0.536537 0.281791 0.638350 0
M  V30 8 C 0.105785 0.472067 1.722513 0
M  V30 9 C -0.219610 1.203521 2.907176 0
M  V30 10 C 0.602955 1.259705 4.001177 0
M  V30 11 C 0.181442 1.853431 5.104481 0
M  V30 12 C -1.072459 2.473103 5.332866 0
M  V30 13 C -1.759981 3.124711 6.341783 0
M  V30 14 N -0.779322 3.123855 7.411284 0
M  V30 15 O -2.290415 3.671059 7.239199 0
M  V30 16 C -1.807148 2.339224 4.112559 0
M  V30 17 C -1.510351 1.770121 2.929368 0
M  V30 18 N 1.185863 -0.217093 1.568424 0
M  V30 19 C 1.299514 -0.861211 0.438864 0
M  V30 20 C 2.160487 -1.777949 -0.334792 0
M  V30 21 C 2.391537 -2.783527 0.643585 0
M  V30 22 C 3.186348 -3.866941 0.081120 0
M  V30 23 C 3.579578 -3.766317 -1.252902 0
M  V30 24 C 3.308723 -2.743742 -2.129370 0
M  V30 25 C 2.565624 -1.715614 -1.617931 0
M  V30 26 O 3.881794 -3.036586 -3.361304 0
M  V30 27 C 3.927690 -4.502924 -3.357287 0
M  V30 28 O 4.330880 -4.698722 -1.982364 0
M  V30 29 N -1.316041 -0.876575 -2.443911 0
M  V30 30 H -4.695781 -1.223686 -3.087317 0
M  V30 31 H -4.545366 -0.020068 -1.756077 0
M  V30 32 H -4.279206 0.485278 -3.422779 0
M  V30 33 H -2.435729 -1.434150 -4.925300 0
M  V30 34 H 1.611648 0.815685 4.008325 0
M  V30 35 H 0.781641 1.941036 5.984461 0
M  V30 36 H 0.226823 3.073866 7.722071 0
M  V30 37 H -0.024097 3.118936 8.178989 0
M  V30 38 H -2.827939 2.796452 4.120356 0
M  V30 39 H -2.215808 1.760050 2.113177 0
M  V30 40 H 2.074431 -0.454349 2.086913 0
M  V30 41 H 2.210982 -3.036758 1.649582 0
M  V30 42 H 3.512443 -4.771441 0.640002 0
M  V30 43 H 2.287424 -0.840573 -2.136547 0
M  V30 44 H 2.869622 -4.780096 -3.475742 0
M  V30 45 H 4.655623 -4.845420 -4.068768 0
M  V30 END ATOM
M  V30 BEGIN BOND
M  V30 1 1 1 2
M  V30 2 2 2 3
M  V30 3 1 3 4
M  V30 4 1 4 5
M  V30 5 1 5 6
M  V30 6 1 6 7
M  V30 7 2 7 8
M  V30 8 1 8 9
M  V30 9 2 9 10
M  V30 10 1 10 11
M  V30 11 2 11 12
M  V30 12 1 12 13
M  V30 13 1 13 14
M  V30 14 2 13 15
M  V30 15 1 12 16
M  V30 16 2 16 17
M  V30 17 1 8 18
M  V30 18 1 18 19
M  V30 19 1 19 20
M  V30 20 2 20 21
M  V30 21 1 21 22
M  V30 22 2 22 23
M  V30 23 1 23 24
M  V30 24 2 24 25
M  V30 25 1 24 26
M  V30 26 1 26 27
M  V30 27 1 27 28
M  V30 28 2 5 29
M  V30 29 1 29 2
M  V30 30 2 19 6
M  V30 31 1 25 20
M  V30 32 1 17 9
M  V30 33 1 28 23
M  V30 34 1 1 30
M  V30 35 1 1 31
M  V30 36 1 1 32
M  V30 37 1 3 33
M  V30 38 1 10 34
M  V30 39 1 11 35
M  V30 40 1 14 36
M  V30 41 1 14 37
M  V30 42 1 16 38
M  V30 43 1 17 39
M  V30 44 1 18 40
M  V30 45 1 21 41
M  V30 46 1 22 42
M  V30 47 1 25 43
M  V30 48 1 27 44
M  V30 49 1 27 45
M  V30 END BOND
M  V30 END CTAB
M  END
>  <Dataset>  (98) 
ChEMBL_Kinases

>  <Ligand_Instance>  (98) 
nan

>  <PDB_ID>  (98) 
nan

>  <Standardized_SMILES>  (98) 
Cc1csc(-c2nc(-c3ccc(C(N)=O)cc3)[nH]c2-c2ccc3c(c2)OCO3)n1

>  <Name>  (98) 
nan

>  <Pocket>  (98) 
nan

>  <ATP_Site>  (98) 
nan

>  <Peripheral>  (98) 
nan

>  <Num_H_Atoms_ProtBoundConf>  (98) 
nan

>  <Num_Resolved_Atoms>  (98) 
nan

>  <Num_Not_Resolved_Atoms>  (98) 
nan

$$$$
CHEMBL1957650
     RDKit          3D

  0  0  0  0  0  0  0  0  0  0999 V3000
M  V30 BEGIN CTAB
M  V30 COUNTS 48 52 0 0 0
M  V30 BEGIN ATOM
M  V30 1 C -4.124293 -2.658785 3.229192 0
M  V30 2 C -3.173784 -3.380838 4.146655 0
M  V30 3 C -1.744307 -3.050246 3.814369 0
M  V30 4 C -0.730398 -3.660399 4.598850 0
M  V30 5 S 0.794495 -2.903567 3.749905 0
M  V30 6 C -0.207380 -1.996168 2.605167 0
M  V30 7 C 0.457654 -1.112169 1.551755 0
M  V30 8 N 1.755902 -0.921585 1.376455 0
M  V30 9 C 1.993876 -0.087407 0.349802 0
M  V30 10 C 3.287619 0.368682 -0.150150 0
M  V30 11 C 3.298037 1.241659 -1.217270 0
M  V30 12 C 4.519914 1.673534 -1.683410 0
M  V30 13 C 5.740365 1.299341 -1.163887 0
M  V30 14 C 7.030881 1.760370 -1.653867 0
M  V30 15 N 7.042152 2.699062 -2.744345 0
M  V30 16 O 8.117362 1.365410 -1.155370 0
M  V30 17 C 5.650995 0.410842 -0.082344 0
M  V30 18 C 4.458705 -0.062817 0.436166 0
M  V30 19 N 0.777127 0.243161 -0.118550 0
M  V30 20 C -0.189895 -0.382299 0.613213 0
M  V30 21 C -1.626609 -0.249596 0.403283 0
M  V30 22 C -2.302244 0.497860 1.361767 0
M  V30 23 C -3.678662 0.692370 1.263785 0
M  V30 24 C -4.313526 0.112963 0.186014 0
M  V30 25 C -3.642817 -0.639686 -0.781327 0
M  V30 26 C -2.281152 -0.818184 -0.663307 0
M  V30 27 O -4.642224 -1.038230 -1.682878 0
M  V30 28 C -5.884826 -0.998041 -0.953987 0
M  V30 29 O -5.683199 0.155638 -0.145218 0
M  V30 30 N -1.377064 -2.237963 2.846811 0
M  V30 31 H -3.716656 -1.644177 2.968615 0
M  V30 32 H -4.254402 -3.184960 2.257848 0
M  V30 33 H -5.130501 -2.537794 3.677796 0
M  V30 34 H -3.294337 -4.474183 3.994901 0
M  V30 35 H -3.428030 -3.133659 5.177990 0
M  V30 36 H -0.876123 -4.366286 5.446838 0
M  V30 37 H 2.364881 1.584149 -1.682224 0
M  V30 38 H 4.520145 2.371315 -2.536213 0
M  V30 39 H 7.229935 2.007020 -3.488416 0
M  V30 40 H 6.859735 3.646760 -2.296716 0
M  V30 41 H 6.541929 0.060643 0.389970 0
M  V30 42 H 4.421380 -0.743233 1.266814 0
M  V30 43 H 0.571797 0.878270 -0.919542 0
M  V30 44 H -1.791769 0.948940 2.205337 0
M  V30 45 H -4.165538 1.278947 2.025290 0
M  V30 46 H -1.750877 -1.396233 -1.401382 0
M  V30 47 H -5.942433 -1.882888 -0.286309 0
M  V30 48 H -6.737815 -0.902756 -1.643153 0
M  V30 END ATOM
M  V30 BEGIN BOND
M  V30 1 1 1 2
M  V30 2 1 2 3
M  V30 3 2 3 4
M  V30 4 1 4 5
M  V30 5 1 5 6
M  V30 6 1 6 7
M  V30 7 1 7 8
M  V30 8 2 8 9
M  V30 9 1 9 10
M  V30 10 2 10 11
M  V30 11 1 11 12
M  V30 12 2 12 13
M  V30 13 1 13 14
M  V30 14 1 14 15
M  V30 15 2 14 16
M  V30 16 1 13 17
M  V30 17 2 17 18
M  V30 18 1 9 19
M  V30 19 1 19 20
M  V30 20 1 20 21
M  V30 21 2 21 22
M  V30 22 1 22 23
M  V30 23 2 23 24
M  V30 24 1 24 25
M  V30 25 2 25 26
M  V30 26 1 25 27
M  V30 27 1 27 28
M  V30 28 1 28 29
M  V30 29 2 6 30
M  V30 30 1 30 3
M  V30 31 2 20 7
M  V30 32 1 26 21
M  V30 33 1 18 10
M  V30 34 1 29 24
M  V30 35 1 1 31
M  V30 36 1 1 32
M  V30 37 1 1 33
M  V30 38 1 2 34
M  V30 39 1 2 35
M  V30 40 1 4 36
M  V30 41 1 11 37
M  V30 42 1 12 38
M  V30 43 1 15 39
M  V30 44 1 15 40
M  V30 45 1 17 41
M  V30 46 1 18 42
M  V30 47 1 19 43
M  V30 48 1 22 44
M  V30 49 1 23 45
M  V30 50 1 26 46
M  V30 51 1 28 47
M  V30 52 1 28 48
M  V30 END BOND
M  V30 END CTAB
M  END
>  <Dataset>  (99) 
ChEMBL_Kinases

>  <Ligand_Instance>  (99) 
nan

>  <PDB_ID>  (99) 
nan

>  <Standardized_SMILES>  (99) 
CCc1csc(-c2nc(-c3ccc(C(N)=O)cc3)[nH]c2-c2ccc3c(c2)OCO3)n1

>  <Name>  (99) 
nan

>  <Pocket>  (99) 
nan

>  <ATP_Site>  (99) 
nan

>  <Peripheral>  (99) 
nan

>  <Num_H_Atoms_ProtBoundConf>  (99) 
nan

>  <Num_Resolved_Atoms>  (99) 
nan

>  <Num_Not_Resolved_Atoms>  (99) 
nan

$$$$
CHEMBL1957651
     RDKit          3D

  0  0  0  0  0  0  0  0  0  0999 V3000
M  V30 BEGIN CTAB
M  V30 COUNTS 45 49 0 0 0
M  V30 BEGIN ATOM
M  V30 1 C -3.298954 -3.474306 4.544547 0
M  V30 2 C -2.029370 -3.381036 3.724289 0
M  V30 3 N -1.499249 -2.524336 3.216728 0
M  V30 4 C -0.388167 -2.499884 2.510209 0
M  V30 5 C 0.195414 -1.299252 1.899216 0
M  V30 6 N 0.691023 -0.137210 2.378056 0
M  V30 7 C 1.104041 0.627896 1.351463 0
M  V30 8 C 1.698334 1.956699 1.471630 0
M  V30 9 C 2.066081 2.599545 0.283870 0
M  V30 10 C 2.637145 3.863897 0.313748 0
M  V30 11 C 2.812599 4.428166 1.560985 0
M  V30 12 C 3.409156 5.756346 1.643704 0
M  V30 13 N 3.821365 6.506785 0.513035 0
M  V30 14 O 3.668507 6.472841 2.667149 0
M  V30 15 C 2.460728 3.820299 2.748239 0
M  V30 16 C 1.888024 2.548146 2.689310 0
M  V30 17 N 0.883699 -0.023096 0.195808 0
M  V30 18 C 0.323016 -1.214673 0.516442 0
M  V30 19 C -0.057086 -2.197921 -0.495775 0
M  V30 20 C 0.824438 -2.800570 -1.374589 0
M  V30 21 C 0.347918 -3.721862 -2.294953 0
M  V30 22 C -1.022707 -3.982886 -2.269135 0
M  V30 23 C -1.916116 -3.395407 -1.404530 0
M  V30 24 C -1.416008 -2.471655 -0.486922 0
M  V30 25 O -3.173160 -3.925930 -1.706685 0
M  V30 26 C -3.133890 -4.467303 -3.027706 0
M  V30 27 O -1.773126 -4.858414 -3.074909 0
M  V30 28 C 0.247731 -3.718768 2.354472 0
M  V30 29 S -0.897551 -4.838989 3.303655 0
M  V30 30 H -3.237310 -2.883782 5.471405 0
M  V30 31 H -4.049692 -2.971902 3.899844 0
M  V30 32 H -3.551421 -4.547580 4.713846 0
M  V30 33 H 1.940631 2.180865 -0.714971 0
M  V30 34 H 2.926165 4.371821 -0.601169 0
M  V30 35 H 3.539739 6.857237 -0.425293 0
M  V30 36 H 4.714505 7.002463 0.303801 0
M  V30 37 H 2.630631 4.328711 3.686465 0
M  V30 38 H 1.595528 2.031931 3.602082 0
M  V30 39 H 1.098957 0.314200 -0.771490 0
M  V30 40 H 1.868212 -2.524584 -1.308017 0
M  V30 41 H 1.017221 -4.196240 -2.980922 0
M  V30 42 H -2.137326 -2.032495 0.171862 0
M  V30 43 H -3.299153 -3.670281 -3.782176 0
M  V30 44 H -3.834625 -5.314791 -3.141750 0
M  V30 45 H 1.132939 -3.965698 1.845276 0
M  V30 END ATOM
M  V30 BEGIN BOND
M  V30 1 1 1 2
M  V30 2 2 2 3
M  V30 3 1 3 4
M  V30 4 1 4 5
M  V30 5 1 5 6
M  V30 6 2 6 7
M  V30 7 1 7 8
M  V30 8 2 8 9
M  V30 9 1 9 10
M  V30 10 2 10 11
M  V30 11 1 11 12
M  V30 12 1 12 13
M  V30 13 2 12 14
M  V30 14 1 11 15
M  V30 15 2 15 16
M  V30 16 1 7 17
M  V30 17 1 17 18
M  V30 18 1 18 19
M  V30 19 2 19 20
M  V30 20 1 20 21
M  V30 21 2 21 22
M  V30 22 1 22 23
M  V30 23 2 23 24
M  V30 24 1 23 25
M  V30 25 1 25 26
M  V30 26 1 26 27
M  V30 27 2 4 28
M  V30 28 1 28 29
M  V30 29 1 29 2
M  V30 30 2 18 5
M  V30 31 1 24 19
M  V30 32 1 16 8
M  V30 33 1 27 22
M  V30 34 1 1 30
M  V30 35 1 1 31
M  V30 36 1 1 32
M  V30 37 1 9 33
M  V30 38 1 10 34
M  V30 39 1 13 35
M  V30 40 1 13 36
M  V30 41 1 15 37
M  V30 42 1 16 38
M  V30 43 1 17 39
M  V30 44 1 20 40
M  V30 45 1 21 41
M  V30 46 1 24 42
M  V30 47 1 26 43
M  V30 48 1 26 44
M  V30 49 1 28 45
M  V30 END BOND
M  V30 END CTAB
M  END
>  <Dataset>  (100) 
ChEMBL_Kinases

>  <Ligand_Instance>  (100) 
nan

>  <PDB_ID>  (100) 
nan

>  <Standardized_SMILES>  (100) 
Cc1nc(-c2nc(-c3ccc(C(N)=O)cc3)[nH]c2-c2ccc3c(c2)OCO3)cs1

>  <Name>  (100) 
nan

>  <Pocket>  (100) 
nan

>  <ATP_Site>  (100) 
nan

>  <Peripheral>  (100) 
nan

>  <Num_H_Atoms_ProtBoundConf>  (100) 
nan

>  <Num_Resolved_Atoms>  (100) 
nan

>  <Num_Not_Resolved_Atoms>  (100) 
nan

$$$$
CHEMBL1957652
     RDKit          3D

  0  0  0  0  0  0  0  0  0  0999 V3000
M  V30 BEGIN CTAB
M  V30 COUNTS 36 39 0 0 0
M  V30 BEGIN ATOM
M  V30 1 C -2.209790 -2.610105 3.602565 0
M  V30 2 C -0.746756 -2.555607 3.367414 0
M  V30 3 C 0.220031 -3.360086 4.124726 0
M  V30 4 S 1.838352 -2.797045 3.320553 0
M  V30 5 C 0.910099 -1.647640 2.184723 0
M  V30 6 C 1.856291 -0.940380 1.313212 0
M  V30 7 N 3.182025 -0.920477 1.118577 0
M  V30 8 C 3.491888 -0.035708 0.152049 0
M  V30 9 C 4.912393 0.154961 -0.235807 0
M  V30 10 N 5.264186 -0.752873 -1.307010 0
M  V30 11 N 2.328212 0.513946 -0.270715 0
M  V30 12 C 1.308231 -0.043936 0.446324 0
M  V30 13 C 0.004571 0.473395 0.060093 0
M  V30 14 C -0.503254 1.737378 0.308558 0
M  V30 15 C -1.755223 2.111697 -0.136630 0
M  V30 16 C -2.483797 1.176244 -0.840553 0
M  V30 17 C -2.018995 -0.114079 -1.119273 0
M  V30 18 C -0.753646 -0.444953 -0.650679 0
M  V30 19 O -3.033509 -0.764015 -1.847947 0
M  V30 20 C -3.850247 0.263714 -2.425155 0
M  V30 21 O -3.770185 1.262181 -1.413042 0
M  V30 22 N -0.237319 -1.759674 2.442602 0
M  V30 23 H -2.745063 -2.630050 2.636766 0
M  V30 24 H -2.563365 -1.759719 4.228010 0
M  V30 25 H -2.481787 -3.535207 4.144688 0
M  V30 26 H -0.222541 -4.088482 4.968986 0
M  V30 27 H 4.992026 1.203667 -0.651711 0
M  V30 28 H 5.588867 0.074076 0.630639 0
M  V30 29 H 4.958806 -0.400974 -2.234083 0
M  V30 30 H 4.930812 -1.721823 -1.182132 0
M  V30 31 H 2.448761 1.221798 -1.028552 0
M  V30 32 H 0.162536 2.395423 0.874764 0
M  V30 33 H -2.122062 3.107432 0.073609 0
M  V30 34 H -0.447875 -1.459164 -0.899037 0
M  V30 35 H -3.348213 0.583831 -3.366809 0
M  V30 36 H -4.890798 -0.064620 -2.594741 0
M  V30 END ATOM
M  V30 BEGIN BOND
M  V30 1 1 1 2
M  V30 2 2 2 3
M  V30 3 1 3 4
M  V30 4 1 4 5
M  V30 5 1 5 6
M  V30 6 1 6 7
M  V30 7 2 7 8
M  V30 8 1 8 9
M  V30 9 1 9 10
M  V30 10 1 8 11
M  V30 11 1 11 12
M  V30 12 1 12 13
M  V30 13 2 13 14
M  V30 14 1 14 15
M  V30 15 2 15 16
M  V30 16 1 16 17
M  V30 17 2 17 18
M  V30 18 1 17 19
M  V30 19 1 19 20
M  V30 20 1 20 21
M  V30 21 2 5 22
M  V30 22 1 22 2
M  V30 23 2 12 6
M  V30 24 1 18 13
M  V30 25 1 21 16
M  V30 26 1 1 23
M  V30 27 1 1 24
M  V30 28 1 1 25
M  V30 29 1 3 26
M  V30 30 1 9 27
M  V30 31 1 9 28
M  V30 32 1 10 29
M  V30 33 1 10 30
M  V30 34 1 11 31
M  V30 35 1 14 32
M  V30 36 1 15 33
M  V30 37 1 18 34
M  V30 38 1 20 35
M  V30 39 1 20 36
M  V30 END BOND
M  V30 END CTAB
M  END
>  <Dataset>  (101) 
ChEMBL_Kinases

>  <Ligand_Instance>  (101) 
nan

>  <PDB_ID>  (101) 
nan

>  <Standardized_SMILES>  (101) 
Cc1csc(-c2nc(CN)[nH]c2-c2ccc3c(c2)OCO3)n1

>  <Name>  (101) 
nan

>  <Pocket>  (101) 
nan

>  <ATP_Site>  (101) 
nan

>  <Peripheral>  (101) 
nan

>  <Num_H_Atoms_ProtBoundConf>  (101) 
nan

>  <Num_Resolved_Atoms>  (101) 
nan

>  <Num_Not_Resolved_Atoms>  (101) 
nan

$$$$
CHEMBL1957653
     RDKit          3D

  0  0  0  0  0  0  0  0  0  0999 V3000
M  V30 BEGIN CTAB
M  V30 COUNTS 39 42 0 0 0
M  V30 BEGIN ATOM
M  V30 1 C 0.604486 -4.100588 3.328734 0
M  V30 2 C 0.969051 -3.778879 1.903780 0
M  V30 3 C 1.563158 -4.679205 0.944726 0
M  V30 4 S 1.693102 -3.583452 -0.501679 0
M  V30 5 C 0.947780 -2.135235 0.396534 0
M  V30 6 C 0.800240 -0.885430 -0.347571 0
M  V30 7 N 1.121872 -0.585370 -1.617951 0
M  V30 8 C 0.776245 0.719091 -1.807438 0
M  V30 9 C 0.967577 1.453766 -3.092807 0
M  V30 10 C 1.590058 0.491706 -4.073978 0
M  V30 11 N 1.835889 1.057112 -5.364684 0
M  V30 12 N 0.249728 1.189492 -0.646781 0
M  V30 13 C 0.251582 0.210798 0.282697 0
M  V30 14 C -0.239572 0.347188 1.653506 0
M  V30 15 C 0.455153 1.305497 2.394470 0
M  V30 16 C 0.114111 1.564091 3.728220 0
M  V30 17 C -0.928209 0.825014 4.243477 0
M  V30 18 C -1.630176 -0.125410 3.536397 0
M  V30 19 C -1.276459 -0.363598 2.222970 0
M  V30 20 O -2.609574 -0.677044 4.352927 0
M  V30 21 C -2.817002 0.242085 5.436661 0
M  V30 22 O -1.519870 0.824688 5.511940 0
M  V30 23 N 0.715177 -2.547477 1.503660 0
M  V30 24 H 1.293118 -3.525381 3.981680 0
M  V30 25 H -0.433384 -3.834922 3.574949 0
M  V30 26 H 0.715295 -5.188247 3.519062 0
M  V30 27 H 1.766446 -5.714231 1.312176 0
M  V30 28 H -0.050268 1.727328 -3.453136 0
M  V30 29 H 1.559628 2.364912 -2.946256 0
M  V30 30 H 2.498603 0.086006 -3.600129 0
M  V30 31 H 0.849778 -0.332995 -4.224356 0
M  V30 32 H 0.972328 1.116911 -5.924330 0
M  V30 33 H 2.424435 1.897031 -5.361892 0
M  V30 34 H -0.099415 2.177603 -0.523320 0
M  V30 35 H 1.278802 1.907773 2.029370 0
M  V30 36 H 0.603525 2.283358 4.353193 0
M  V30 37 H -1.760986 -1.076773 1.601539 0
M  V30 38 H -3.100401 -0.273088 6.361370 0
M  V30 39 H -3.564885 0.975070 5.058379 0
M  V30 END ATOM
M  V30 BEGIN BOND
M  V30 1 1 1 2
M  V30 2 2 2 3
M  V30 3 1 3 4
M  V30 4 1 4 5
M  V30 5 1 5 6
M  V30 6 1 6 7
M  V30 7 2 7 8
M  V30 8 1 8 9
M  V30 9 1 9 10
M  V30 10 1 10 11
M  V30 11 1 8 12
M  V30 12 1 12 13
M  V30 13 1 13 14
M  V30 14 2 14 15
M  V30 15 1 15 16
M  V30 16 2 16 17
M  V30 17 1 17 18
M  V30 18 2 18 19
M  V30 19 1 18 20
M  V30 20 1 20 21
M  V30 21 1 21 22
M  V30 22 2 5 23
M  V30 23 1 23 2
M  V30 24 2 13 6
M  V30 25 1 19 14
M  V30 26 1 22 17
M  V30 27 1 1 24
M  V30 28 1 1 25
M  V30 29 1 1 26
M  V30 30 1 3 27
M  V30 31 1 9 28
M  V30 32 1 9 29
M  V30 33 1 10 30
M  V30 34 1 10 31
M  V30 35 1 11 32
M  V30 36 1 11 33
M  V30 37 1 12 34
M  V30 38 1 15 35
M  V30 39 1 16 36
M  V30 40 1 19 37
M  V30 41 1 21 38
M  V30 42 1 21 39
M  V30 END BOND
M  V30 END CTAB
M  END
>  <Dataset>  (102) 
ChEMBL_Kinases

>  <Ligand_Instance>  (102) 
nan

>  <PDB_ID>  (102) 
nan

>  <Standardized_SMILES>  (102) 
Cc1csc(-c2nc(CCN)[nH]c2-c2ccc3c(c2)OCO3)n1

>  <Name>  (102) 
nan

>  <Pocket>  (102) 
nan

>  <ATP_Site>  (102) 
nan

>  <Peripheral>  (102) 
nan

>  <Num_H_Atoms_ProtBoundConf>  (102) 
nan

>  <Num_Resolved_Atoms>  (102) 
nan

>  <Num_Not_Resolved_Atoms>  (102) 
nan

$$$$
CHEMBL1957654
     RDKit          3D

  0  0  0  0  0  0  0  0  0  0999 V3000
M  V30 BEGIN CTAB
M  V30 COUNTS 42 45 0 0 0
M  V30 BEGIN ATOM
M  V30 1 C 1.002328 -3.681355 4.438473 0
M  V30 2 C 1.751218 -3.464682 3.147716 0
M  V30 3 C 2.932431 -4.160474 2.762874 0
M  V30 4 S 3.241446 -3.358372 1.100947 0
M  V30 5 C 1.784508 -2.307003 1.269171 0
M  V30 6 C 1.451880 -1.340744 0.154966 0
M  V30 7 N 2.091584 -1.131921 -0.982502 0
M  V30 8 C 1.449819 -0.165128 -1.707521 0
M  V30 9 C 2.138683 0.069657 -2.987633 0
M  V30 10 C 1.536861 1.133210 -3.824532 0
M  V30 11 C 1.615465 2.474447 -3.150426 0
M  V30 12 N 3.004894 2.851734 -2.891410 0
M  V30 13 N 0.409187 0.172548 -0.933761 0
M  V30 14 C 0.365088 -0.515844 0.215037 0
M  V30 15 C -0.632555 -0.384962 1.264603 0
M  V30 16 C -0.040075 0.047101 2.456951 0
M  V30 17 C -0.811357 0.242702 3.602770 0
M  V30 18 C -2.164836 0.007948 3.556484 0
M  V30 19 C -2.708862 -0.415090 2.367957 0
M  V30 20 C -1.990262 -0.620115 1.219203 0
M  V30 21 O -4.080696 -0.584291 2.565665 0
M  V30 22 C -4.275221 -0.741675 3.962716 0
M  V30 23 O -3.224259 0.089944 4.466839 0
M  V30 24 N 1.273072 -2.560637 2.316085 0
M  V30 25 H 1.198286 -2.835927 5.136282 0
M  V30 26 H -0.068621 -3.807097 4.283219 0
M  V30 27 H 1.349393 -4.639853 4.920207 0
M  V30 28 H 3.350812 -4.937140 3.467868 0
M  V30 29 H 2.224478 -0.893274 -3.589008 0
M  V30 30 H 3.217342 0.348013 -2.837372 0
M  V30 31 H 0.480469 0.904349 -4.136058 0
M  V30 32 H 2.079400 1.169949 -4.815850 0
M  V30 33 H 1.259739 3.258547 -3.884205 0
M  V30 34 H 1.061160 2.524258 -2.225559 0
M  V30 35 H 3.207451 2.617705 -1.885737 0
M  V30 36 H 3.668785 2.245368 -3.452371 0
M  V30 37 H -0.230063 0.892784 -1.300410 0
M  V30 38 H 1.013813 0.265024 2.617796 0
M  V30 39 H -0.393063 0.575561 4.543972 0
M  V30 40 H -2.330489 -0.943149 0.267420 0
M  V30 41 H -5.260144 -0.387225 4.305390 0
M  V30 42 H -4.084198 -1.807437 4.225459 0
M  V30 END ATOM
M  V30 BEGIN BOND
M  V30 1 1 1 2
M  V30 2 2 2 3
M  V30 3 1 3 4
M  V30 4 1 4 5
M  V30 5 1 5 6
M  V30 6 1 6 7
M  V30 7 2 7 8
M  V30 8 1 8 9
M  V30 9 1 9 10
M  V30 10 1 10 11
M  V30 11 1 11 12
M  V30 12 1 8 13
M  V30 13 1 13 14
M  V30 14 1 14 15
M  V30 15 2 15 16
M  V30 16 1 16 17
M  V30 17 2 17 18
M  V30 18 1 18 19
M  V30 19 2 19 20
M  V30 20 1 19 21
M  V30 21 1 21 22
M  V30 22 1 22 23
M  V30 23 2 5 24
M  V30 24 1 24 2
M  V30 25 2 14 6
M  V30 26 1 20 15
M  V30 27 1 23 18
M  V30 28 1 1 25
M  V30 29 1 1 26
M  V30 30 1 1 27
M  V30 31 1 3 28
M  V30 32 1 9 29
M  V30 33 1 9 30
M  V30 34 1 10 31
M  V30 35 1 10 32
M  V30 36 1 11 33
M  V30 37 1 11 34
M  V30 38 1 12 35
M  V30 39 1 12 36
M  V30 40 1 13 37
M  V30 41 1 16 38
M  V30 42 1 17 39
M  V30 43 1 20 40
M  V30 44 1 22 41
M  V30 45 1 22 42
M  V30 END BOND
M  V30 END CTAB
M  END
>  <Dataset>  (103) 
ChEMBL_Kinases

>  <Ligand_Instance>  (103) 
nan

>  <PDB_ID>  (103) 
nan

>  <Standardized_SMILES>  (103) 
Cc1csc(-c2nc(CCCN)[nH]c2-c2ccc3c(c2)OCO3)n1

>  <Name>  (103) 
nan

>  <Pocket>  (103) 
nan

>  <ATP_Site>  (103) 
nan

>  <Peripheral>  (103) 
nan

>  <Num_H_Atoms_ProtBoundConf>  (103) 
nan

>  <Num_Resolved_Atoms>  (103) 
nan

>  <Num_Not_Resolved_Atoms>  (103) 
nan

$$$$
CHEMBL1957664
     RDKit          3D

  0  0  0  0  0  0  0  0  0  0999 V3000
M  V30 BEGIN CTAB
M  V30 COUNTS 44 47 0 0 0
M  V30 BEGIN ATOM
M  V30 1 C 6.588786 -3.350447 3.989939 0
M  V30 2 C 5.295220 -2.628390 3.867644 0
M  V30 3 C 4.795514 -2.435937 2.451801 0
M  V30 4 N 3.513666 -1.717707 2.538549 0
M  V30 5 C 3.057422 -1.559504 1.211877 0
M  V30 6 O 3.762554 -2.014226 0.282358 0
M  V30 7 C 1.796797 -0.895983 0.788295 0
M  V30 8 N 1.062593 -0.363647 1.687179 0
M  V30 9 C -0.050971 0.233202 1.553720 0
M  V30 10 C -1.350310 0.929575 1.397694 0
M  V30 11 N -1.702488 1.309875 2.462906 0
M  V30 12 C -2.763220 1.963219 2.838681 0
M  V30 13 C -3.385865 2.530459 4.093249 0
M  V30 14 C -3.615277 2.248325 1.759566 0
M  V30 15 S -2.696759 1.495154 0.356361 0
M  V30 16 C 0.073353 -0.033762 0.137213 0
M  V30 17 C -0.661615 0.178749 -1.202445 0
M  V30 18 C -0.322274 1.130628 -2.166530 0
M  V30 19 C -1.116745 1.156281 -3.289693 0
M  V30 20 C -2.175230 0.290571 -3.437814 0
M  V30 21 C -2.528821 -0.656845 -2.501464 0
M  V30 22 C -1.743842 -0.687551 -1.383184 0
M  V30 23 O -3.633920 -1.331919 -2.998465 0
M  V30 24 C -3.923542 -0.934832 -4.324744 0
M  V30 25 O -3.069622 0.179285 -4.492973 0
M  V30 26 N 1.170888 -0.709304 -0.354798 0
M  V30 27 H 6.640152 -4.183824 3.257287 0
M  V30 28 H 7.482276 -2.730082 3.994072 0
M  V30 29 H 6.581353 -3.880031 4.989999 0
M  V30 30 H 5.280775 -1.697078 4.448741 0
M  V30 31 H 4.506658 -3.273118 4.363635 0
M  V30 32 H 5.496459 -1.894069 1.815824 0
M  V30 33 H 4.604100 -3.429541 1.991543 0
M  V30 34 H 2.886986 -1.316205 3.280367 0
M  V30 35 H -4.398743 2.153121 4.243825 0
M  V30 36 H -3.428888 3.632568 3.996946 0
M  V30 37 H -2.782980 2.230628 4.979514 0
M  V30 38 H -4.645353 2.757036 1.405486 0
M  V30 39 H 0.531622 1.716799 -1.881086 0
M  V30 40 H -0.808076 1.913985 -4.004371 0
M  V30 41 H -1.996742 -1.424247 -0.624033 0
M  V30 42 H -4.993318 -0.684017 -4.472817 0
M  V30 43 H -3.642520 -1.771768 -5.028905 0
M  V30 44 H 1.707831 -1.116244 -1.143364 0
M  V30 END ATOM
M  V30 BEGIN BOND
M  V30 1 1 1 2
M  V30 2 1 2 3
M  V30 3 1 3 4
M  V30 4 1 4 5
M  V30 5 2 5 6
M  V30 6 1 5 7
M  V30 7 2 7 8
M  V30 8 1 8 9
M  V30 9 1 9 10
M  V30 10 2 10 11
M  V30 11 1 11 12
M  V30 12 1 12 13
M  V30 13 2 12 14
M  V30 14 1 14 15
M  V30 15 2 9 16
M  V30 16 1 16 17
M  V30 17 2 17 18
M  V30 18 1 18 19
M  V30 19 2 19 20
M  V30 20 1 20 21
M  V30 21 2 21 22
M  V30 22 1 21 23
M  V30 23 1 23 24
M  V30 24 1 24 25
M  V30 25 1 16 26
M  V30 26 1 26 7
M  V30 27 1 15 10
M  V30 28 1 22 17
M  V30 29 1 25 20
M  V30 30 1 1 27
M  V30 31 1 1 28
M  V30 32 1 1 29
M  V30 33 1 2 30
M  V30 34 1 2 31
M  V30 35 1 3 32
M  V30 36 1 3 33
M  V30 37 1 4 34
M  V30 38 1 13 35
M  V30 39 1 13 36
M  V30 40 1 13 37
M  V30 41 1 14 38
M  V30 42 1 18 39
M  V30 43 1 19 40
M  V30 44 1 22 41
M  V30 45 1 24 42
M  V30 46 1 24 43
M  V30 47 1 26 44
M  V30 END BOND
M  V30 END CTAB
M  END
>  <Dataset>  (104) 
ChEMBL_Kinases

>  <Ligand_Instance>  (104) 
nan

>  <PDB_ID>  (104) 
nan

>  <Standardized_SMILES>  (104) 
CCCNC(=O)c1nc(-c2nc(C)cs2)c(-c2ccc3c(c2)OCO3)[nH]1

>  <Name>  (104) 
nan

>  <Pocket>  (104) 
nan

>  <ATP_Site>  (104) 
nan

>  <Peripheral>  (104) 
nan

>  <Num_H_Atoms_ProtBoundConf>  (104) 
nan

>  <Num_Resolved_Atoms>  (104) 
nan

>  <Num_Not_Resolved_Atoms>  (104) 
nan

$$$$
CHEMBL1957656
     RDKit          3D

  0  0  0  0  0  0  0  0  0  0999 V3000
M  V30 BEGIN CTAB
M  V30 COUNTS 47 50 0 0 0
M  V30 BEGIN ATOM
M  V30 1 C 2.558009 -5.624470 4.527527 0
M  V30 2 C 2.155655 -4.946048 3.235420 0
M  V30 3 C 3.309019 -4.052627 2.825541 0
M  V30 4 C 2.939823 -3.373253 1.557243 0
M  V30 5 O 1.811968 -3.642377 1.082550 0
M  V30 6 N 3.801892 -2.459797 0.893811 0
M  V30 7 C 3.507188 -1.761900 -0.343800 0
M  V30 8 C 2.304173 -0.889525 -0.246209 0
M  V30 9 N 2.383112 0.416187 0.148557 0
M  V30 10 C 1.147777 0.948091 0.140045 0
M  V30 11 C 0.779127 2.318810 0.494088 0
M  V30 12 N -0.561190 2.848084 0.470813 0
M  V30 13 C -0.490998 4.129074 0.857038 0
M  V30 14 C -1.889460 4.700270 0.838354 0
M  V30 15 C 0.630941 4.922748 1.240340 0
M  V30 16 S 1.925072 3.546891 1.008386 0
M  V30 17 C 0.271843 -0.004058 -0.257166 0
M  V30 18 C -1.174500 0.077218 -0.426591 0
M  V30 19 C -1.866536 -0.789541 0.401229 0
M  V30 20 C -3.258800 -0.875115 0.402359 0
M  V30 21 C -3.928317 -0.036149 -0.480455 0
M  V30 22 C -3.261546 0.837556 -1.316787 0
M  V30 23 C -1.884888 0.886462 -1.282056 0
M  V30 24 O -4.182772 1.527857 -2.065719 0
M  V30 25 C -5.470944 1.321959 -1.479032 0
M  V30 26 O -5.285564 0.128836 -0.728668 0
M  V30 27 N 0.999683 -1.112602 -0.486166 0
M  V30 28 H 3.604593 -5.996624 4.516107 0
M  V30 29 H 2.424497 -4.892798 5.374136 0
M  V30 30 H 1.895418 -6.483386 4.763213 0
M  V30 31 H 1.285057 -4.292936 3.448031 0
M  V30 32 H 1.924129 -5.706682 2.452038 0
M  V30 33 H 3.419438 -3.320386 3.661706 0
M  V30 34 H 4.258235 -4.605324 2.779148 0
M  V30 35 H 4.726000 -2.321637 1.401863 0
M  V30 36 H 4.378759 -1.150235 -0.598191 0
M  V30 37 H 3.319879 -2.484242 -1.165409 0
M  V30 38 H -2.307424 4.684425 -0.177237 0
M  V30 39 H -2.557589 4.168086 1.525320 0
M  V30 40 H -1.873140 5.764494 1.148436 0
M  V30 41 H 0.587691 5.866965 1.512357 0
M  V30 42 H -1.389883 -1.474624 1.117880 0
M  V30 43 H -3.796242 -1.551976 1.049006 0
M  V30 44 H -1.278996 1.532231 -1.893320 0
M  V30 45 H -6.260232 1.173032 -2.235197 0
M  V30 46 H -5.678185 2.141455 -0.761711 0
M  V30 47 H 0.638315 -2.036689 -0.807231 0
M  V30 END ATOM
M  V30 BEGIN BOND
M  V30 1 1 1 2
M  V30 2 1 2 3
M  V30 3 1 3 4
M  V30 4 2 4 5
M  V30 5 1 4 6
M  V30 6 1 6 7
M  V30 7 1 7 8
M  V30 8 2 8 9
M  V30 9 1 9 10
M  V30 10 1 10 11
M  V30 11 2 11 12
M  V30 12 1 12 13
M  V30 13 1 13 14
M  V30 14 2 13 15
M  V30 15 1 15 16
M  V30 16 2 10 17
M  V30 17 1 17 18
M  V30 18 2 18 19
M  V30 19 1 19 20
M  V30 20 2 20 21
M  V30 21 1 21 22
M  V30 22 2 22 23
M  V30 23 1 22 24
M  V30 24 1 24 25
M  V30 25 1 25 26
M  V30 26 1 17 27
M  V30 27 1 27 8
M  V30 28 1 16 11
M  V30 29 1 23 18
M  V30 30 1 26 21
M  V30 31 1 1 28
M  V30 32 1 1 29
M  V30 33 1 1 30
M  V30 34 1 2 31
M  V30 35 1 2 32
M  V30 36 1 3 33
M  V30 37 1 3 34
M  V30 38 1 6 35
M  V30 39 1 7 36
M  V30 40 1 7 37
M  V30 41 1 14 38
M  V30 42 1 14 39
M  V30 43 1 14 40
M  V30 44 1 15 41
M  V30 45 1 19 42
M  V30 46 1 20 43
M  V30 47 1 23 44
M  V30 48 1 25 45
M  V30 49 1 25 46
M  V30 50 1 27 47
M  V30 END BOND
M  V30 END CTAB
M  END
>  <Dataset>  (105) 
ChEMBL_Kinases

>  <Ligand_Instance>  (105) 
nan

>  <PDB_ID>  (105) 
nan

>  <Standardized_SMILES>  (105) 
CCCC(=O)NCc1nc(-c2nc(C)cs2)c(-c2ccc3c(c2)OCO3)[nH]1

>  <Name>  (105) 
nan

>  <Pocket>  (105) 
nan

>  <ATP_Site>  (105) 
nan

>  <Peripheral>  (105) 
nan

>  <Num_H_Atoms_ProtBoundConf>  (105) 
nan

>  <Num_Resolved_Atoms>  (105) 
nan

>  <Num_Not_Resolved_Atoms>  (105) 
nan

$$$$
CHEMBL1957657
     RDKit          3D

  0  0  0  0  0  0  0  0  0  0999 V3000
M  V30 BEGIN CTAB
M  V30 COUNTS 50 53 0 0 0
M  V30 BEGIN ATOM
M  V30 1 C 0.907049 -2.617433 5.630152 0
M  V30 2 C 1.341633 -1.866067 4.413722 0
M  V30 3 C 2.589097 -2.483486 3.817892 0
M  V30 4 C 3.028787 -1.747898 2.611193 0
M  V30 5 O 2.296696 -0.775535 2.323986 0
M  V30 6 N 4.139058 -2.048272 1.819194 0
M  V30 7 C 4.679523 -1.462162 0.639647 0
M  V30 8 C 3.877913 -1.518277 -0.604441 0
M  V30 9 C 2.546474 -0.912617 -0.623396 0
M  V30 10 N 2.292753 0.388517 -0.928176 0
M  V30 11 C 0.990699 0.616647 -0.902173 0
M  V30 12 C 0.193491 1.889975 -1.165597 0
M  V30 13 N -0.885233 2.270122 -1.191264 0
M  V30 14 C -1.294819 3.490224 -1.465716 0
M  V30 15 C -2.760665 3.827268 -1.457581 0
M  V30 16 C -0.306443 4.432780 -1.759801 0
M  V30 17 S 1.252504 3.384804 -1.599990 0
M  V30 18 C 0.322221 -0.533618 -0.576224 0
M  V30 19 C -1.113774 -0.734148 -0.436150 0
M  V30 20 C -1.866828 -0.067077 0.522954 0
M  V30 21 C -3.223054 -0.322405 0.579476 0
M  V30 22 C -3.766611 -1.221817 -0.312044 0
M  V30 23 C -3.045690 -1.900201 -1.275797 0
M  V30 24 C -1.681463 -1.644885 -1.334425 0
M  V30 25 O -3.960157 -2.702991 -1.960922 0
M  V30 26 C -5.209415 -2.700321 -1.320354 0
M  V30 27 O -5.096543 -1.622653 -0.429231 0
M  V30 28 N 1.315685 -1.425956 -0.418947 0
M  V30 29 H 1.768181 -2.943755 6.239145 0
M  V30 30 H 0.326851 -3.533805 5.347333 0
M  V30 31 H 0.190794 -1.979270 6.191309 0
M  V30 32 H 0.513632 -1.804669 3.674617 0
M  V30 33 H 1.621215 -0.847033 4.728822 0
M  V30 34 H 3.366399 -2.486450 4.603524 0
M  V30 35 H 2.355745 -3.555141 3.616259 0
M  V30 36 H 4.644261 -2.895398 2.228203 0
M  V30 37 H 5.000815 -0.379468 0.836067 0
M  V30 38 H 5.685544 -1.934511 0.410710 0
M  V30 39 H 4.475308 -0.996872 -1.418909 0
M  V30 40 H 3.840321 -2.583254 -1.002901 0
M  V30 41 H -2.896325 4.925591 -1.396377 0
M  V30 42 H -3.249972 3.395093 -2.356547 0
M  V30 43 H -3.289058 3.418507 -0.577140 0
M  V30 44 H -0.544719 5.503818 -2.008328 0
M  V30 45 H -1.400137 0.624321 1.195860 0
M  V30 46 H -3.774283 0.205529 1.326932 0
M  V30 47 H -1.102506 -2.162444 -2.077024 0
M  V30 48 H -6.002098 -2.515292 -2.069181 0
M  V30 49 H -5.394787 -3.643080 -0.758873 0
M  V30 50 H 1.203452 -2.446373 -0.160225 0
M  V30 END ATOM
M  V30 BEGIN BOND
M  V30 1 1 1 2
M  V30 2 1 2 3
M  V30 3 1 3 4
M  V30 4 2 4 5
M  V30 5 1 4 6
M  V30 6 1 6 7
M  V30 7 1 7 8
M  V30 8 1 8 9
M  V30 9 2 9 10
M  V30 10 1 10 11
M  V30 11 1 11 12
M  V30 12 2 12 13
M  V30 13 1 13 14
M  V30 14 1 14 15
M  V30 15 2 14 16
M  V30 16 1 16 17
M  V30 17 2 11 18
M  V30 18 1 18 19
M  V30 19 2 19 20
M  V30 20 1 20 21
M  V30 21 2 21 22
M  V30 22 1 22 23
M  V30 23 2 23 24
M  V30 24 1 23 25
M  V30 25 1 25 26
M  V30 26 1 26 27
M  V30 27 1 18 28
M  V30 28 1 28 9
M  V30 29 1 17 12
M  V30 30 1 24 19
M  V30 31 1 27 22
M  V30 32 1 1 29
M  V30 33 1 1 30
M  V30 34 1 1 31
M  V30 35 1 2 32
M  V30 36 1 2 33
M  V30 37 1 3 34
M  V30 38 1 3 35
M  V30 39 1 6 36
M  V30 40 1 7 37
M  V30 41 1 7 38
M  V30 42 1 8 39
M  V30 43 1 8 40
M  V30 44 1 15 41
M  V30 45 1 15 42
M  V30 46 1 15 43
M  V30 47 1 16 44
M  V30 48 1 20 45
M  V30 49 1 21 46
M  V30 50 1 24 47
M  V30 51 1 26 48
M  V30 52 1 26 49
M  V30 53 1 28 50
M  V30 END BOND
M  V30 END CTAB
M  END
>  <Dataset>  (106) 
ChEMBL_Kinases

>  <Ligand_Instance>  (106) 
nan

>  <PDB_ID>  (106) 
nan

>  <Standardized_SMILES>  (106) 
CCCC(=O)NCCc1nc(-c2nc(C)cs2)c(-c2ccc3c(c2)OCO3)[nH]1

>  <Name>  (106) 
nan

>  <Pocket>  (106) 
nan

>  <ATP_Site>  (106) 
nan

>  <Peripheral>  (106) 
nan

>  <Num_H_Atoms_ProtBoundConf>  (106) 
nan

>  <Num_Resolved_Atoms>  (106) 
nan

>  <Num_Not_Resolved_Atoms>  (106) 
nan

$$$$
CHEMBL1957658
     RDKit          3D

  0  0  0  0  0  0  0  0  0  0999 V3000
M  V30 BEGIN CTAB
M  V30 COUNTS 53 56 0 0 0
M  V30 BEGIN ATOM
M  V30 1 C 2.654984 -2.937441 5.356057 0
M  V30 2 C 1.872371 -3.374065 4.156780 0
M  V30 3 C 1.314268 -2.203759 3.407343 0
M  V30 4 C 2.381965 -1.298167 2.926344 0
M  V30 5 O 3.413641 -1.899970 3.367008 0
M  V30 6 N 2.296521 -0.099305 2.185298 0
M  V30 7 C 3.633238 0.385389 1.981730 0
M  V30 8 C 3.755991 1.644288 1.202481 0
M  V30 9 C 3.286962 1.602342 -0.221041 0
M  V30 10 C 1.875304 1.243828 -0.427827 0
M  V30 11 N 0.834207 2.110373 -0.456713 0
M  V30 12 C -0.305793 1.439764 -0.694905 0
M  V30 13 C -1.679567 1.933606 -0.815496 0
M  V30 14 N -2.860100 1.336970 -1.050401 0
M  V30 15 C -3.881239 2.175664 -1.079233 0
M  V30 16 C -5.145503 1.398328 -1.349534 0
M  V30 17 C -3.858415 3.634691 -0.888316 0
M  V30 18 S -1.968611 3.762476 -0.618811 0
M  V30 19 C -0.027792 0.113779 -0.826819 0
M  V30 20 C -0.944307 -0.985826 -1.089095 0
M  V30 21 C -1.595433 -0.899908 -2.313988 0
M  V30 22 C -2.504693 -1.888625 -2.692947 0
M  V30 23 C -2.779425 -2.965808 -1.872530 0
M  V30 24 C -2.117606 -3.027271 -0.658782 0
M  V30 25 C -1.215305 -2.060543 -0.265482 0
M  V30 26 O -2.541413 -4.191156 0.008920 0
M  V30 27 C -3.218474 -5.029498 -0.927818 0
M  V30 28 O -3.597465 -4.091934 -1.928970 0
M  V30 29 N 1.310638 0.023282 -0.659175 0
M  V30 30 H 3.752382 -3.177966 5.289768 0
M  V30 31 H 2.562835 -1.858844 5.550315 0
M  V30 32 H 2.297442 -3.430819 6.299714 0
M  V30 33 H 1.015257 -3.999587 4.527248 0
M  V30 34 H 2.450970 -4.076168 3.503135 0
M  V30 35 H 0.642955 -1.663786 4.109867 0
M  V30 36 H 0.739725 -2.581647 2.552783 0
M  V30 37 H 1.263824 0.030645 2.043160 0
M  V30 38 H 4.086675 0.582657 2.980268 0
M  V30 39 H 4.240918 -0.408661 1.485150 0
M  V30 40 H 3.073827 2.393369 1.722057 0
M  V30 41 H 4.757289 2.119836 1.302329 0
M  V30 42 H 3.417235 2.621691 -0.670755 0
M  V30 43 H 3.932693 0.898239 -0.816624 0
M  V30 44 H -5.130496 0.878339 -2.313261 0
M  V30 45 H -6.007876 2.100306 -1.401389 0
M  V30 46 H -5.371801 0.708655 -0.503340 0
M  V30 47 H -4.675796 4.157152 -0.930410 0
M  V30 48 H -1.453071 -0.101191 -3.028511 0
M  V30 49 H -3.014757 -1.839990 -3.630099 0
M  V30 50 H -0.676323 -2.068883 0.672401 0
M  V30 51 H -2.513632 -5.789168 -1.265390 0
M  V30 52 H -4.107804 -5.528316 -0.477594 0
M  V30 53 H 1.914645 -0.831349 -0.687298 0
M  V30 END ATOM
M  V30 BEGIN BOND
M  V30 1 1 1 2
M  V30 2 1 2 3
M  V30 3 1 3 4
M  V30 4 2 4 5
M  V30 5 1 4 6
M  V30 6 1 6 7
M  V30 7 1 7 8
M  V30 8 1 8 9
M  V30 9 1 9 10
M  V30 10 2 10 11
M  V30 11 1 11 12
M  V30 12 1 12 13
M  V30 13 2 13 14
M  V30 14 1 14 15
M  V30 15 1 15 16
M  V30 16 2 15 17
M  V30 17 1 17 18
M  V30 18 2 12 19
M  V30 19 1 19 20
M  V30 20 2 20 21
M  V30 21 1 21 22
M  V30 22 2 22 23
M  V30 23 1 23 24
M  V30 24 2 24 25
M  V30 25 1 24 26
M  V30 26 1 26 27
M  V30 27 1 27 28
M  V30 28 1 19 29
M  V30 29 1 29 10
M  V30 30 1 18 13
M  V30 31 1 25 20
M  V30 32 1 28 23
M  V30 33 1 1 30
M  V30 34 1 1 31
M  V30 35 1 1 32
M  V30 36 1 2 33
M  V30 37 1 2 34
M  V30 38 1 3 35
M  V30 39 1 3 36
M  V30 40 1 6 37
M  V30 41 1 7 38
M  V30 42 1 7 39
M  V30 43 1 8 40
M  V30 44 1 8 41
M  V30 45 1 9 42
M  V30 46 1 9 43
M  V30 47 1 16 44
M  V30 48 1 16 45
M  V30 49 1 16 46
M  V30 50 1 17 47
M  V30 51 1 21 48
M  V30 52 1 22 49
M  V30 53 1 25 50
M  V30 54 1 27 51
M  V30 55 1 27 52
M  V30 56 1 29 53
M  V30 END BOND
M  V30 END CTAB
M  END
>  <Dataset>  (107) 
ChEMBL_Kinases

>  <Ligand_Instance>  (107) 
nan

>  <PDB_ID>  (107) 
nan

>  <Standardized_SMILES>  (107) 
CCCC(=O)NCCCc1nc(-c2nc(C)cs2)c(-c2ccc3c(c2)OCO3)[nH]1

>  <Name>  (107) 
nan

>  <Pocket>  (107) 
nan

>  <ATP_Site>  (107) 
nan

>  <Peripheral>  (107) 
nan

>  <Num_H_Atoms_ProtBoundConf>  (107) 
nan

>  <Num_Resolved_Atoms>  (107) 
nan

>  <Num_Not_Resolved_Atoms>  (107) 
nan

$$$$
CHEMBL1957659
     RDKit          3D

  0  0  0  0  0  0  0  0  0  0999 V3000
M  V30 BEGIN CTAB
M  V30 COUNTS 34 37 0 0 0
M  V30 BEGIN ATOM
M  V30 1 C -1.379440 -4.134920 1.286299 0
M  V30 2 C -0.171866 -3.827396 0.435468 0
M  V30 3 C 0.606733 -4.828768 -0.220329 0
M  V30 4 S 1.826672 -3.648926 -1.001715 0
M  V30 5 C 1.110352 -2.172397 -0.348709 0
M  V30 6 C 1.668215 -0.844041 -0.636030 0
M  V30 7 N 2.742338 -0.549251 -1.389907 0
M  V30 8 C 2.877892 0.785024 -1.370954 0
M  V30 9 C 3.913033 1.552395 -2.054312 0
M  V30 10 O 3.953483 2.804955 -1.972937 0
M  V30 11 O 4.891307 0.935260 -2.818742 0
M  V30 12 N 1.898330 1.288376 -0.615494 0
M  V30 13 C 1.109855 0.304314 -0.129562 0
M  V30 14 C -0.048303 0.506597 0.729939 0
M  V30 15 C 0.260421 1.123546 1.943356 0
M  V30 16 C -0.730634 1.384844 2.868389 0
M  V30 17 C -2.058776 1.053664 2.643048 0
M  V30 18 C -2.338361 0.444849 1.436440 0
M  V30 19 C -1.366319 0.173356 0.496394 0
M  V30 20 O -3.701926 0.194097 1.397028 0
M  V30 21 C -4.298025 0.962234 2.435008 0
M  V30 22 O -3.247483 1.177735 3.345479 0
M  V30 23 N 0.015509 -2.502948 0.417806 0
M  V30 24 H -1.198723 -3.845497 2.333703 0
M  V30 25 H -1.584307 -5.231516 1.269861 0
M  V30 26 H -2.292720 -3.654961 0.932043 0
M  V30 27 H 0.380446 -5.817022 -0.144455 0
M  V30 28 H 5.865067 1.268429 -2.821743 0
M  V30 29 H 1.783933 2.314156 -0.442340 0
M  V30 30 H 1.280730 1.427737 2.223858 0
M  V30 31 H -0.468203 1.866799 3.808130 0
M  V30 32 H -1.528591 -0.300301 -0.462726 0
M  V30 33 H -5.101475 0.371225 2.924569 0
M  V30 34 H -4.670769 1.874866 1.961379 0
M  V30 END ATOM
M  V30 BEGIN BOND
M  V30 1 1 1 2
M  V30 2 2 2 3
M  V30 3 1 3 4
M  V30 4 1 4 5
M  V30 5 1 5 6
M  V30 6 1 6 7
M  V30 7 2 7 8
M  V30 8 1 8 9
M  V30 9 2 9 10
M  V30 10 1 9 11
M  V30 11 1 8 12
M  V30 12 1 12 13
M  V30 13 1 13 14
M  V30 14 2 14 15
M  V30 15 1 15 16
M  V30 16 2 16 17
M  V30 17 1 17 18
M  V30 18 2 18 19
M  V30 19 1 18 20
M  V30 20 1 20 21
M  V30 21 1 21 22
M  V30 22 2 5 23
M  V30 23 1 23 2
M  V30 24 2 13 6
M  V30 25 1 19 14
M  V30 26 1 22 17
M  V30 27 1 1 24
M  V30 28 1 1 25
M  V30 29 1 1 26
M  V30 30 1 3 27
M  V30 31 1 11 28
M  V30 32 1 12 29
M  V30 33 1 15 30
M  V30 34 1 16 31
M  V30 35 1 19 32
M  V30 36 1 21 33
M  V30 37 1 21 34
M  V30 END BOND
M  V30 END CTAB
M  END
>  <Dataset>  (108) 
ChEMBL_Kinases

>  <Ligand_Instance>  (108) 
nan

>  <PDB_ID>  (108) 
nan

>  <Standardized_SMILES>  (108) 
Cc1csc(-c2nc(C(=O)O)[nH]c2-c2ccc3c(c2)OCO3)n1

>  <Name>  (108) 
nan

>  <Pocket>  (108) 
nan

>  <ATP_Site>  (108) 
nan

>  <Peripheral>  (108) 
nan

>  <Num_H_Atoms_ProtBoundConf>  (108) 
nan

>  <Num_Resolved_Atoms>  (108) 
nan

>  <Num_Not_Resolved_Atoms>  (108) 
nan

$$$$
CHEMBL1957660
     RDKit          3D

  0  0  0  0  0  0  0  0  0  0999 V3000
M  V30 BEGIN CTAB
M  V30 COUNTS 40 43 0 0 0
M  V30 BEGIN ATOM
M  V30 1 C 1.011080 -4.359562 3.565665 0
M  V30 2 C 1.745386 -3.087060 3.341214 0
M  V30 3 C 2.973759 -2.691901 3.983175 0
M  V30 4 S 3.286420 -0.992121 3.204142 0
M  V30 5 C 1.707024 -1.196703 2.199834 0
M  V30 6 C 1.406383 -0.025923 1.297155 0
M  V30 7 N 2.060188 1.115691 1.087182 0
M  V30 8 C 1.415713 1.873136 0.185922 0
M  V30 9 C 1.832455 3.209759 -0.307506 0
M  V30 10 C 2.730648 3.096277 -1.546693 0
M  V30 11 C 3.125449 4.462992 -2.005052 0
M  V30 12 O 3.868089 4.672671 -3.015503 0
M  V30 13 O 2.763219 5.662277 -1.430484 0
M  V30 14 N 0.327676 1.150016 -0.157404 0
M  V30 15 C 0.281605 -0.033168 0.506527 0
M  V30 16 C -0.726911 -1.082281 0.413844 0
M  V30 17 C -0.489927 -2.374584 -0.004789 0
M  V30 18 C -1.579012 -3.229036 -0.027148 0
M  V30 19 C -2.843670 -2.820774 0.347969 0
M  V30 20 C -3.071542 -1.521953 0.766620 0
M  V30 21 C -1.985821 -0.668473 0.789501 0
M  V30 22 O -4.442521 -1.496947 1.053777 0
M  V30 23 C -5.061770 -2.613864 0.462671 0
M  V30 24 O -4.014695 -3.563470 0.374157 0
M  V30 25 N 1.279666 -2.202055 2.487926 0
M  V30 26 H -0.072648 -4.183833 3.814692 0
M  V30 27 H 0.979748 -4.967420 2.618821 0
M  V30 28 H 1.420793 -4.931257 4.395972 0
M  V30 29 H 3.416984 -3.508706 4.780343 0
M  V30 30 H 2.492155 3.649178 0.491734 0
M  V30 31 H 0.978075 3.862154 -0.509355 0
M  V30 32 H 3.630796 2.496907 -1.302506 0
M  V30 33 H 2.189147 2.556618 -2.348094 0
M  V30 34 H 2.283275 6.413174 -1.945502 0
M  V30 35 H -0.389522 1.462997 -0.848535 0
M  V30 36 H 0.522300 -2.634522 -0.286289 0
M  V30 37 H -1.401893 -4.251989 -0.355895 0
M  V30 38 H -2.225590 0.334748 1.125849 0
M  V30 39 H -5.861916 -3.039935 1.076217 0
M  V30 40 H -5.357119 -2.389503 -0.574324 0
M  V30 END ATOM
M  V30 BEGIN BOND
M  V30 1 1 1 2
M  V30 2 2 2 3
M  V30 3 1 3 4
M  V30 4 1 4 5
M  V30 5 1 5 6
M  V30 6 1 6 7
M  V30 7 2 7 8
M  V30 8 1 8 9
M  V30 9 1 9 10
M  V30 10 1 10 11
M  V30 11 2 11 12
M  V30 12 1 11 13
M  V30 13 1 8 14
M  V30 14 1 14 15
M  V30 15 1 15 16
M  V30 16 2 16 17
M  V30 17 1 17 18
M  V30 18 2 18 19
M  V30 19 1 19 20
M  V30 20 2 20 21
M  V30 21 1 20 22
M  V30 22 1 22 23
M  V30 23 1 23 24
M  V30 24 2 5 25
M  V30 25 1 25 2
M  V30 26 2 15 6
M  V30 27 1 21 16
M  V30 28 1 24 19
M  V30 29 1 1 26
M  V30 30 1 1 27
M  V30 31 1 1 28
M  V30 32 1 3 29
M  V30 33 1 9 30
M  V30 34 1 9 31
M  V30 35 1 10 32
M  V30 36 1 10 33
M  V30 37 1 13 34
M  V30 38 1 14 35
M  V30 39 1 17 36
M  V30 40 1 18 37
M  V30 41 1 21 38
M  V30 42 1 23 39
M  V30 43 1 23 40
M  V30 END BOND
M  V30 END CTAB
M  END
>  <Dataset>  (109) 
ChEMBL_Kinases

>  <Ligand_Instance>  (109) 
nan

>  <PDB_ID>  (109) 
nan

>  <Standardized_SMILES>  (109) 
Cc1csc(-c2nc(CCC(=O)O)[nH]c2-c2ccc3c(c2)OCO3)n1

>  <Name>  (109) 
nan

>  <Pocket>  (109) 
nan

>  <ATP_Site>  (109) 
nan

>  <Peripheral>  (109) 
nan

>  <Num_H_Atoms_ProtBoundConf>  (109) 
nan

>  <Num_Resolved_Atoms>  (109) 
nan

>  <Num_Not_Resolved_Atoms>  (109) 
nan

$$$$
CHEMBL1957661
     RDKit          3D

  0  0  0  0  0  0  0  0  0  0999 V3000
M  V30 BEGIN CTAB
M  V30 COUNTS 43 46 0 0 0
M  V30 BEGIN ATOM
M  V30 1 C 1.644435 -4.755664 2.844183 0
M  V30 2 C 2.176232 -3.410489 2.513130 0
M  V30 3 C 3.563600 -3.065460 2.739408 0
M  V30 4 S 3.622607 -1.272368 2.140595 0
M  V30 5 C 1.776721 -1.367496 1.715129 0
M  V30 6 C 1.238858 -0.100536 1.147450 0
M  V30 7 N 1.780231 1.073255 0.880531 0
M  V30 8 C 0.814511 1.874242 0.365577 0
M  V30 9 C 1.062901 3.296725 -0.060255 0
M  V30 10 C 1.464342 3.253421 -1.512636 0
M  V30 11 C 2.705005 2.418324 -1.648346 0
M  V30 12 C 3.829113 2.994826 -0.875497 0
M  V30 13 O 3.938042 4.047351 -0.155315 0
M  V30 14 O 5.065865 3.189456 -0.309826 0
M  V30 15 N -0.328123 1.171541 0.321306 0
M  V30 16 C -0.090663 -0.078701 0.808516 0
M  V30 17 C -1.117284 -1.106938 0.904539 0
M  V30 18 C -1.057205 -2.307742 0.227540 0
M  V30 19 C -2.055995 -3.258865 0.343407 0
M  V30 20 C -3.113860 -2.941415 1.171687 0
M  V30 21 C -3.208014 -1.736658 1.872098 0
M  V30 22 C -2.196887 -0.800434 1.740681 0
M  V30 23 O -4.412298 -1.778306 2.600252 0
M  V30 24 C -5.245124 -2.759912 2.015753 0
M  V30 25 O -4.269333 -3.660735 1.508676 0
M  V30 26 N 1.461310 -2.429799 2.000203 0
M  V30 27 H 2.447369 -5.521329 2.822126 0
M  V30 28 H 1.119421 -4.767018 3.835862 0
M  V30 29 H 0.917564 -5.074083 2.071312 0
M  V30 30 H 4.301518 -3.906183 3.210367 0
M  V30 31 H 0.056547 3.802826 0.009998 0
M  V30 32 H 1.772734 3.804691 0.580432 0
M  V30 33 H 1.700284 4.291515 -1.847101 0
M  V30 34 H 0.671468 2.862654 -2.159015 0
M  V30 35 H 3.044705 2.425211 -2.725436 0
M  V30 36 H 2.520257 1.361170 -1.365935 0
M  V30 37 H 5.784828 2.481955 -0.426076 0
M  V30 38 H -1.236745 1.514074 -0.022422 0
M  V30 39 H -0.182313 -2.463233 -0.400451 0
M  V30 40 H -1.995015 -4.192420 -0.191559 0
M  V30 41 H -2.268503 0.123577 2.277524 0
M  V30 42 H -5.896243 -3.273218 2.751486 0
M  V30 43 H -5.831901 -2.337192 1.168894 0
M  V30 END ATOM
M  V30 BEGIN BOND
M  V30 1 1 1 2
M  V30 2 2 2 3
M  V30 3 1 3 4
M  V30 4 1 4 5
M  V30 5 1 5 6
M  V30 6 1 6 7
M  V30 7 2 7 8
M  V30 8 1 8 9
M  V30 9 1 9 10
M  V30 10 1 10 11
M  V30 11 1 11 12
M  V30 12 2 12 13
M  V30 13 1 12 14
M  V30 14 1 8 15
M  V30 15 1 15 16
M  V30 16 1 16 17
M  V30 17 2 17 18
M  V30 18 1 18 19
M  V30 19 2 19 20
M  V30 20 1 20 21
M  V30 21 2 21 22
M  V30 22 1 21 23
M  V30 23 1 23 24
M  V30 24 1 24 25
M  V30 25 2 5 26
M  V30 26 1 26 2
M  V30 27 2 16 6
M  V30 28 1 22 17
M  V30 29 1 25 20
M  V30 30 1 1 27
M  V30 31 1 1 28
M  V30 32 1 1 29
M  V30 33 1 3 30
M  V30 34 1 9 31
M  V30 35 1 9 32
M  V30 36 1 10 33
M  V30 37 1 10 34
M  V30 38 1 11 35
M  V30 39 1 11 36
M  V30 40 1 14 37
M  V30 41 1 15 38
M  V30 42 1 18 39
M  V30 43 1 19 40
M  V30 44 1 22 41
M  V30 45 1 24 42
M  V30 46 1 24 43
M  V30 END BOND
M  V30 END CTAB
M  END
>  <Dataset>  (110) 
ChEMBL_Kinases

>  <Ligand_Instance>  (110) 
nan

>  <PDB_ID>  (110) 
nan

>  <Standardized_SMILES>  (110) 
Cc1csc(-c2nc(CCCC(=O)O)[nH]c2-c2ccc3c(c2)OCO3)n1

>  <Name>  (110) 
nan

>  <Pocket>  (110) 
nan

>  <ATP_Site>  (110) 
nan

>  <Peripheral>  (110) 
nan

>  <Num_H_Atoms_ProtBoundConf>  (110) 
nan

>  <Num_Resolved_Atoms>  (110) 
nan

>  <Num_Not_Resolved_Atoms>  (110) 
nan

$$$$
CHEMBL1957662
     RDKit          3D

  0  0  0  0  0  0  0  0  0  0999 V3000
M  V30 BEGIN CTAB
M  V30 COUNTS 46 49 0 0 0
M  V30 BEGIN ATOM
M  V30 1 C -0.564339 -5.144116 2.977345 0
M  V30 2 C 0.529175 -4.109871 2.860345 0
M  V30 3 C 1.769922 -4.029168 3.605606 0
M  V30 4 S 2.493306 -2.498922 2.846092 0
M  V30 5 C 1.090242 -2.261860 1.738971 0
M  V30 6 C 1.088640 -1.115629 0.813842 0
M  V30 7 N 2.020769 -0.161169 0.653611 0
M  V30 8 C 1.596630 0.678110 -0.302720 0
M  V30 9 C 2.158376 1.903734 -0.924203 0
M  V30 10 C 3.480684 2.238624 -0.324119 0
M  V30 11 C 3.454520 2.502343 1.157905 0
M  V30 12 C 2.561083 3.652589 1.528904 0
M  V30 13 C 2.995316 4.921814 0.879863 0
M  V30 14 O 3.949420 5.215942 0.093080 0
M  V30 15 O 2.203269 6.044207 1.182787 0
M  V30 16 N 0.386528 0.234331 -0.737321 0
M  V30 17 C 0.045271 -0.884007 -0.057271 0
M  V30 18 C -1.177601 -1.688571 -0.206704 0
M  V30 19 C -1.225411 -3.010436 -0.601155 0
M  V30 20 C -2.469185 -3.641111 -0.696998 0
M  V30 21 C -3.619080 -2.950223 -0.401946 0
M  V30 22 C -3.600777 -1.612028 -0.000345 0
M  V30 23 C -2.353723 -1.003045 0.088684 0
M  V30 24 O -4.917907 -1.209548 0.220372 0
M  V30 25 C -5.694139 -2.401782 0.413767 0
M  V30 26 O -4.957843 -3.311816 -0.409519 0
M  V30 27 N 0.257261 -3.183199 1.936778 0
M  V30 28 H -0.371983 -5.801338 3.848772 0
M  V30 29 H -1.550761 -4.683949 3.166509 0
M  V30 30 H -0.571956 -5.788135 2.087073 0
M  V30 31 H 1.883300 -4.876695 4.361857 0
M  V30 32 H 2.331789 1.730648 -2.009953 0
M  V30 33 H 1.434871 2.762534 -0.855215 0
M  V30 34 H 3.956113 3.046599 -0.895238 0
M  V30 35 H 4.128242 1.331918 -0.469623 0
M  V30 36 H 4.483421 2.794216 1.455729 0
M  V30 37 H 3.147014 1.622040 1.744196 0
M  V30 38 H 1.488034 3.459922 1.331658 0
M  V30 39 H 2.659278 3.804997 2.625224 0
M  V30 40 H 2.149548 6.847246 0.549046 0
M  V30 41 H -0.256540 0.607759 -1.460598 0
M  V30 42 H -0.273660 -3.480640 -0.814569 0
M  V30 43 H -2.478268 -4.686136 -1.010790 0
M  V30 44 H -2.390583 0.032346 0.402771 0
M  V30 45 H -6.711822 -2.228353 0.024961 0
M  V30 46 H -5.668147 -2.716641 1.470440 0
M  V30 END ATOM
M  V30 BEGIN BOND
M  V30 1 1 1 2
M  V30 2 2 2 3
M  V30 3 1 3 4
M  V30 4 1 4 5
M  V30 5 1 5 6
M  V30 6 1 6 7
M  V30 7 2 7 8
M  V30 8 1 8 9
M  V30 9 1 9 10
M  V30 10 1 10 11
M  V30 11 1 11 12
M  V30 12 1 12 13
M  V30 13 2 13 14
M  V30 14 1 13 15
M  V30 15 1 8 16
M  V30 16 1 16 17
M  V30 17 1 17 18
M  V30 18 2 18 19
M  V30 19 1 19 20
M  V30 20 2 20 21
M  V30 21 1 21 22
M  V30 22 2 22 23
M  V30 23 1 22 24
M  V30 24 1 24 25
M  V30 25 1 25 26
M  V30 26 2 5 27
M  V30 27 1 27 2
M  V30 28 2 17 6
M  V30 29 1 23 18
M  V30 30 1 26 21
M  V30 31 1 1 28
M  V30 32 1 1 29
M  V30 33 1 1 30
M  V30 34 1 3 31
M  V30 35 1 9 32
M  V30 36 1 9 33
M  V30 37 1 10 34
M  V30 38 1 10 35
M  V30 39 1 11 36
M  V30 40 1 11 37
M  V30 41 1 12 38
M  V30 42 1 12 39
M  V30 43 1 15 40
M  V30 44 1 16 41
M  V30 45 1 19 42
M  V30 46 1 20 43
M  V30 47 1 23 44
M  V30 48 1 25 45
M  V30 49 1 25 46
M  V30 END BOND
M  V30 END CTAB
M  END
>  <Dataset>  (111) 
ChEMBL_Kinases

>  <Ligand_Instance>  (111) 
nan

>  <PDB_ID>  (111) 
nan

>  <Standardized_SMILES>  (111) 
Cc1csc(-c2nc(CCCCC(=O)O)[nH]c2-c2ccc3c(c2)OCO3)n1

>  <Name>  (111) 
nan

>  <Pocket>  (111) 
nan

>  <ATP_Site>  (111) 
nan

>  <Peripheral>  (111) 
nan

>  <Num_H_Atoms_ProtBoundConf>  (111) 
nan

>  <Num_Resolved_Atoms>  (111) 
nan

>  <Num_Not_Resolved_Atoms>  (111) 
nan

$$$$
CHEMBL1957663
     RDKit          3D

  0  0  0  0  0  0  0  0  0  0999 V3000
M  V30 BEGIN CTAB
M  V30 COUNTS 45 49 0 0 0
M  V30 BEGIN ATOM
M  V30 1 C -2.921764 -3.340610 4.389078 0
M  V30 2 C -2.343982 -1.978807 4.132521 0
M  V30 3 C -2.536839 -0.784534 4.901555 0
M  V30 4 S -1.478682 0.421662 3.889284 0
M  V30 5 C -1.036923 -0.835584 2.738977 0
M  V30 6 C -0.119476 -0.509592 1.566209 0
M  V30 7 N 0.419706 0.664366 1.278380 0
M  V30 8 C 1.179639 0.593472 0.169683 0
M  V30 9 C 1.929503 1.676007 -0.455251 0
M  V30 10 O 2.582617 1.410730 -1.492868 0
M  V30 11 N 1.949905 2.993211 0.053373 0
M  V30 12 C 2.628075 4.129905 -0.446617 0
M  V30 13 C 3.423601 4.203489 -1.543803 0
M  V30 14 C 4.072340 5.333851 -2.005065 0
M  V30 15 C 3.888421 6.509247 -1.268088 0
M  V30 16 C 3.091595 6.475622 -0.152965 0
M  V30 17 C 2.483322 5.315073 0.238523 0
M  V30 18 N 1.090062 -0.685384 -0.224357 0
M  V30 19 C 0.297302 -1.381807 0.618169 0
M  V30 20 C -0.057090 -2.788338 0.548001 0
M  V30 21 C 0.245923 -3.742846 1.499510 0
M  V30 22 C -0.117537 -5.067350 1.375607 0
M  V30 23 C -0.812210 -5.505668 0.276646 0
M  V30 24 C -1.130151 -4.566728 -0.695616 0
M  V30 25 C -0.764798 -3.245209 -0.567221 0
M  V30 26 O -1.832266 -5.249977 -1.707632 0
M  V30 27 C -2.375669 -6.432089 -1.126220 0
M  V30 28 O -1.334812 -6.724666 -0.183796 0
M  V30 29 N -1.572609 -1.869108 3.076602 0
M  V30 30 H -3.748525 -3.559293 3.683470 0
M  V30 31 H -3.267717 -3.401437 5.445523 0
M  V30 32 H -2.173405 -4.149451 4.289479 0
M  V30 33 H -3.270495 -0.963503 5.874114 0
M  V30 34 H 1.366869 3.079082 0.917583 0
M  V30 35 H 3.592093 3.336177 -2.133600 0
M  V30 36 H 4.687999 5.334160 -2.877323 0
M  V30 37 H 4.381595 7.417155 -1.598853 0
M  V30 38 H 2.944810 7.370080 0.417775 0
M  V30 39 H 1.860037 5.358558 1.137853 0
M  V30 40 H 1.558989 -1.076740 -1.050590 0
M  V30 41 H 0.800798 -3.386490 2.374569 0
M  V30 42 H 0.137980 -5.787386 2.143876 0
M  V30 43 H -1.038740 -2.562473 -1.353303 0
M  V30 44 H -3.322418 -6.150425 -0.598699 0
M  V30 45 H -2.528238 -7.249357 -1.834349 0
M  V30 END ATOM
M  V30 BEGIN BOND
M  V30 1 1 1 2
M  V30 2 2 2 3
M  V30 3 1 3 4
M  V30 4 1 4 5
M  V30 5 1 5 6
M  V30 6 1 6 7
M  V30 7 2 7 8
M  V30 8 1 8 9
M  V30 9 2 9 10
M  V30 10 1 9 11
M  V30 11 1 11 12
M  V30 12 2 12 13
M  V30 13 1 13 14
M  V30 14 2 14 15
M  V30 15 1 15 16
M  V30 16 2 16 17
M  V30 17 1 8 18
M  V30 18 1 18 19
M  V30 19 1 19 20
M  V30 20 2 20 21
M  V30 21 1 21 22
M  V30 22 2 22 23
M  V30 23 1 23 24
M  V30 24 2 24 25
M  V30 25 1 24 26
M  V30 26 1 26 27
M  V30 27 1 27 28
M  V30 28 2 5 29
M  V30 29 1 29 2
M  V30 30 2 19 6
M  V30 31 1 25 20
M  V30 32 1 17 12
M  V30 33 1 28 23
M  V30 34 1 1 30
M  V30 35 1 1 31
M  V30 36 1 1 32
M  V30 37 1 3 33
M  V30 38 1 11 34
M  V30 39 1 13 35
M  V30 40 1 14 36
M  V30 41 1 15 37
M  V30 42 1 16 38
M  V30 43 1 17 39
M  V30 44 1 18 40
M  V30 45 1 21 41
M  V30 46 1 22 42
M  V30 47 1 25 43
M  V30 48 1 27 44
M  V30 49 1 27 45
M  V30 END BOND
M  V30 END CTAB
M  END
>  <Dataset>  (112) 
ChEMBL_Kinases

>  <Ligand_Instance>  (112) 
nan

>  <PDB_ID>  (112) 
nan

>  <Standardized_SMILES>  (112) 
Cc1csc(-c2nc(C(=O)Nc3ccccc3)[nH]c2-c2ccc3c(c2)OCO3)n1

>  <Name>  (112) 
nan

>  <Pocket>  (112) 
nan

>  <ATP_Site>  (112) 
nan

>  <Peripheral>  (112) 
nan

>  <Num_H_Atoms_ProtBoundConf>  (112) 
nan

>  <Num_Resolved_Atoms>  (112) 
nan

>  <Num_Not_Resolved_Atoms>  (112) 
nan

$$$$
CHEMBL1957655
     RDKit          3D

  0  0  0  0  0  0  0  0  0  0999 V3000
M  V30 BEGIN CTAB
M  V30 COUNTS 48 52 0 0 0
M  V30 BEGIN ATOM
M  V30 1 C -3.121914 -3.654156 4.050078 0
M  V30 2 C -1.647872 -3.368054 3.893510 0
M  V30 3 C -0.637277 -3.635639 4.882935 0
M  V30 4 S 0.857186 -2.996911 3.899258 0
M  V30 5 C -0.116245 -2.554661 2.509731 0
M  V30 6 C 0.524233 -1.945448 1.294284 0
M  V30 7 N 1.802009 -1.667813 1.088493 0
M  V30 8 C 1.977021 -1.120274 -0.145363 0
M  V30 9 C 3.361373 -0.748324 -0.543964 0
M  V30 10 N 3.704620 0.612041 -0.158896 0
M  V30 11 C 3.005173 1.755559 -0.619028 0
M  V30 12 O 2.025450 1.675521 -1.403477 0
M  V30 13 C 3.368621 3.101683 -0.218511 0
M  V30 14 C 2.657458 4.177134 -0.694783 0
M  V30 15 C 2.933019 5.508683 -0.365244 0
M  V30 16 C 3.970043 5.774769 0.481381 0
M  V30 17 C 4.709839 4.728149 0.982818 0
M  V30 18 C 4.406185 3.431100 0.633786 0
M  V30 19 N 0.749311 -1.075742 -0.684366 0
M  V30 20 C -0.160542 -1.568378 0.160183 0
M  V30 21 C -1.590942 -1.670693 -0.102995 0
M  V30 22 C -2.491205 -0.653312 -0.363695 0
M  V30 23 C -3.822157 -0.980510 -0.587960 0
M  V30 24 C -4.237657 -2.277333 -0.552829 0
M  V30 25 C -3.355189 -3.324879 -0.292848 0
M  V30 26 C -2.027234 -2.997033 -0.069233 0
M  V30 27 O -4.092252 -4.503436 -0.329274 0
M  V30 28 C -5.473094 -4.182594 -0.290899 0
M  V30 29 O -5.495478 -2.837405 -0.742688 0
M  V30 30 N -1.304043 -2.821069 2.720899 0
M  V30 31 H -3.413760 -4.413146 3.294052 0
M  V30 32 H -3.735616 -2.748752 3.844483 0
M  V30 33 H -3.345689 -3.963938 5.088848 0
M  V30 34 H -0.943852 -4.072210 5.807429 0
M  V30 35 H 4.106710 -1.475422 -0.234035 0
M  V30 36 H 3.348828 -0.710733 -1.674792 0
M  V30 37 H 4.506292 0.718270 0.485906 0
M  V30 38 H 1.811680 4.082366 -1.375163 0
M  V30 39 H 2.363106 6.333828 -0.749958 0
M  V30 40 H 4.211311 6.791010 0.757445 0
M  V30 41 H 5.533238 4.946934 1.655652 0
M  V30 42 H 5.000222 2.615656 1.038512 0
M  V30 43 H 0.654421 -0.685037 -1.645232 0
M  V30 44 H -2.041825 0.330635 -0.364828 0
M  V30 45 H -4.478811 -0.143490 -0.786439 0
M  V30 46 H -1.411224 -3.861864 0.123910 0
M  V30 47 H -5.817919 -4.267250 0.762679 0
M  V30 48 H -6.081528 -4.825043 -0.965049 0
M  V30 END ATOM
M  V30 BEGIN BOND
M  V30 1 1 1 2
M  V30 2 2 2 3
M  V30 3 1 3 4
M  V30 4 1 4 5
M  V30 5 1 5 6
M  V30 6 1 6 7
M  V30 7 2 7 8
M  V30 8 1 8 9
M  V30 9 1 9 10
M  V30 10 1 10 11
M  V30 11 2 11 12
M  V30 12 1 11 13
M  V30 13 2 13 14
M  V30 14 1 14 15
M  V30 15 2 15 16
M  V30 16 1 16 17
M  V30 17 2 17 18
M  V30 18 1 8 19
M  V30 19 1 19 20
M  V30 20 1 20 21
M  V30 21 2 21 22
M  V30 22 1 22 23
M  V30 23 2 23 24
M  V30 24 1 24 25
M  V30 25 2 25 26
M  V30 26 1 25 27
M  V30 27 1 27 28
M  V30 28 1 28 29
M  V30 29 2 5 30
M  V30 30 1 30 2
M  V30 31 2 20 6
M  V30 32 1 26 21
M  V30 33 1 18 13
M  V30 34 1 29 24
M  V30 35 1 1 31
M  V30 36 1 1 32
M  V30 37 1 1 33
M  V30 38 1 3 34
M  V30 39 1 9 35
M  V30 40 1 9 36
M  V30 41 1 10 37
M  V30 42 1 14 38
M  V30 43 1 15 39
M  V30 44 1 16 40
M  V30 45 1 17 41
M  V30 46 1 18 42
M  V30 47 1 19 43
M  V30 48 1 22 44
M  V30 49 1 23 45
M  V30 50 1 26 46
M  V30 51 1 28 47
M  V30 52 1 28 48
M  V30 END BOND
M  V30 END CTAB
M  END
>  <Dataset>  (113) 
ChEMBL_Kinases

>  <Ligand_Instance>  (113) 
nan

>  <PDB_ID>  (113) 
nan

>  <Standardized_SMILES>  (113) 
Cc1csc(-c2nc(CNC(=O)c3ccccc3)[nH]c2-c2ccc3c(c2)OCO3)n1

>  <Name>  (113) 
nan

>  <Pocket>  (113) 
nan

>  <ATP_Site>  (113) 
nan

>  <Peripheral>  (113) 
nan

>  <Num_H_Atoms_ProtBoundConf>  (113) 
nan

>  <Num_Resolved_Atoms>  (113) 
nan

>  <Num_Not_Resolved_Atoms>  (113) 
nan

$$$$
CHEMBL1945801
     RDKit          3D

  0  0  0  0  0  0  0  0  0  0999 V3000
M  V30 BEGIN CTAB
M  V30 COUNTS 57 60 0 0 0
M  V30 BEGIN ATOM
M  V30 1 C 5.067809 0.171286 4.175698 0
M  V30 2 N 4.305036 -0.977554 4.630404 0
M  V30 3 C 4.190657 -1.001034 6.074195 0
M  V30 4 C 2.988611 -1.018768 4.017574 0
M  V30 5 C 2.283160 -2.249574 4.563051 0
M  V30 6 C 0.927947 -2.337670 3.967935 0
M  V30 7 C 0.785415 -2.444931 2.529336 0
M  V30 8 C 0.576360 -1.275258 1.778074 0
M  V30 9 C 0.442937 -1.143838 0.417606 0
M  V30 10 N 0.253918 0.136415 -0.180490 0
M  V30 11 C -0.126466 0.123734 -1.551426 0
M  V30 12 N 0.509200 -0.151515 -2.701157 0
M  V30 13 C -0.055745 -0.082967 -3.901153 0
M  V30 14 C -1.396261 0.294396 -4.052194 0
M  V30 15 C -2.042097 0.577799 -2.853771 0
M  V30 16 N -1.437429 0.496756 -1.654940 0
M  V30 17 C -3.445818 1.011788 -2.790736 0
M  V30 18 C -3.657858 1.691887 -1.593758 0
M  V30 19 C -4.930224 2.182865 -1.366229 0
M  V30 20 C -5.993544 2.046173 -2.235030 0
M  V30 21 Cl -7.593022 2.678575 -1.922454 0
M  V30 22 C -5.731373 1.365966 -3.402348 0
M  V30 23 C -4.491084 0.848571 -3.699758 0
M  V30 24 N -4.401029 0.174402 -4.960285 0
M  V30 25 C -3.193650 -0.113483 -5.676539 0
M  V30 26 S -3.517745 -1.087087 -6.974744 0
M  V30 27 C -1.779427 0.285669 -5.472691 0
M  V30 28 C 0.526175 -2.314731 -0.303276 0
M  V30 29 C 0.731534 -3.511537 0.350967 0
M  V30 30 C 0.859144 -3.579757 1.750445 0
M  V30 31 C 1.014992 -4.889390 2.358015 0
M  V30 32 F 1.086263 -5.891894 1.371013 0
M  V30 33 F -0.209295 -5.238489 2.985860 0
M  V30 34 F 1.922299 -5.073772 3.326195 0
M  V30 35 H 4.883656 1.048713 4.861145 0
M  V30 36 H 6.139339 -0.085880 4.305779 0
M  V30 37 H 4.884953 0.427504 3.126969 0
M  V30 38 H 5.043835 -0.483642 6.568636 0
M  V30 39 H 4.072723 -2.053230 6.398324 0
M  V30 40 H 3.254819 -0.465131 6.356920 0
M  V30 41 H 3.052983 -1.051753 2.928646 0
M  V30 42 H 2.372177 -0.147690 4.296300 0
M  V30 43 H 2.099491 -1.969075 5.656511 0
M  V30 44 H 2.913289 -3.113956 4.622435 0
M  V30 45 H 0.443908 -1.355869 4.278212 0
M  V30 46 H 0.266055 -3.057986 4.533572 0
M  V30 47 H 0.509530 -0.329505 2.339808 0
M  V30 48 H 0.402741 0.980541 0.403443 0
M  V30 49 H 0.599503 -0.337663 -4.721494 0
M  V30 50 H -2.844980 1.812617 -0.895883 0
M  V30 51 H -5.100649 2.716048 -0.426416 0
M  V30 52 H -6.525837 1.218440 -4.134476 0
M  V30 53 H -5.325828 -0.110752 -5.341060 0
M  V30 54 H -1.635830 1.288441 -5.897577 0
M  V30 55 H -1.135664 -0.470050 -5.967165 0
M  V30 56 H 0.422224 -2.237679 -1.376051 0
M  V30 57 H 0.800186 -4.439225 -0.228874 0
M  V30 END ATOM
M  V30 BEGIN BOND
M  V30 1 1 1 2
M  V30 2 1 2 3
M  V30 3 1 2 4
M  V30 4 1 4 5
M  V30 5 1 5 6
M  V30 6 1 6 7
M  V30 7 2 7 8
M  V30 8 1 8 9
M  V30 9 1 9 10
M  V30 10 1 10 11
M  V30 11 2 11 12
M  V30 12 1 12 13
M  V30 13 2 13 14
M  V30 14 1 14 15
M  V30 15 2 15 16
M  V30 16 1 15 17
M  V30 17 2 17 18
M  V30 18 1 18 19
M  V30 19 2 19 20
M  V30 20 1 20 21
M  V30 21 1 20 22
M  V30 22 2 22 23
M  V30 23 1 23 24
M  V30 24 1 24 25
M  V30 25 2 25 26
M  V30 26 1 25 27
M  V30 27 2 9 28
M  V30 28 1 28 29
M  V30 29 2 29 30
M  V30 30 1 30 31
M  V30 31 1 31 32
M  V30 32 1 31 33
M  V30 33 1 31 34
M  V30 34 1 30 7
M  V30 35 1 16 11
M  V30 36 1 23 17
M  V30 37 1 27 14
M  V30 38 1 1 35
M  V30 39 1 1 36
M  V30 40 1 1 37
M  V30 41 1 3 38
M  V30 42 1 3 39
M  V30 43 1 3 40
M  V30 44 1 4 41
M  V30 45 1 4 42
M  V30 46 1 5 43
M  V30 47 1 5 44
M  V30 48 1 6 45
M  V30 49 1 6 46
M  V30 50 1 8 47
M  V30 51 1 10 48
M  V30 52 1 13 49
M  V30 53 1 18 50
M  V30 54 1 19 51
M  V30 55 1 22 52
M  V30 56 1 24 53
M  V30 57 1 27 54
M  V30 58 1 27 55
M  V30 59 1 28 56
M  V30 60 1 29 57
M  V30 END BOND
M  V30 END CTAB
M  END
>  <Dataset>  (114) 
ChEMBL_Kinases

>  <Ligand_Instance>  (114) 
nan

>  <PDB_ID>  (114) 
nan

>  <Standardized_SMILES>  (114) 
CN(C)CCCc1cc(Nc2ncc3c(n2)-c2ccc(Cl)cc2NC(=S)C3)ccc1C(F)(F)F

>  <Name>  (114) 
nan

>  <Pocket>  (114) 
nan

>  <ATP_Site>  (114) 
nan

>  <Peripheral>  (114) 
nan

>  <Num_H_Atoms_ProtBoundConf>  (114) 
nan

>  <Num_Resolved_Atoms>  (114) 
nan

>  <Num_Not_Resolved_Atoms>  (114) 
nan

$$$$
CHEMBL1945726
     RDKit          3D

  0  0  0  0  0  0  0  0  0  0999 V3000
M  V30 BEGIN CTAB
M  V30 COUNTS 54 58 0 0 0
M  V30 BEGIN ATOM
M  V30 1 C 0.859673 -3.223174 2.234356 0
M  V30 2 C 0.729033 -3.544565 0.739494 0
M  V30 3 N -0.178305 -2.578271 0.164521 0
M  V30 4 C 0.412088 -1.436244 -0.304743 0
M  V30 5 O 1.674034 -1.273687 -0.229206 0
M  V30 6 C -0.281038 -0.393081 -0.882303 0
M  V30 7 C 0.405861 0.799395 -1.363853 0
M  V30 8 C 0.556938 1.824470 -0.447441 0
M  V30 9 C 1.190518 2.971641 -0.828269 0
M  V30 10 C 1.411663 4.121017 0.042629 0
M  V30 11 O 2.006272 5.160884 -0.364249 0
M  V30 12 N 0.987482 4.161942 1.382062 0
M  V30 13 C 1.188159 5.288794 2.284747 0
M  V30 14 C 0.145794 5.553670 3.337199 0
M  V30 15 C 1.448843 4.903314 3.746262 0
M  V30 16 C 1.653135 3.044178 -2.131722 0
M  V30 17 C 1.502394 2.013773 -3.056294 0
M  V30 18 F 1.978846 2.145062 -4.322894 0
M  V30 19 C 0.859926 0.852387 -2.667607 0
M  V30 20 C 0.660063 -0.285115 -3.586992 0
M  V30 21 C -1.649630 -0.537531 -0.979243 0
M  V30 22 C -2.255574 -1.684932 -0.509456 0
M  V30 23 N -3.521864 -2.160311 -0.435094 0
M  V30 24 N -3.505193 -3.367113 0.138858 0
M  V30 25 C -2.212566 -3.683659 0.442779 0
M  V30 26 C -2.028618 -4.976714 1.078080 0
M  V30 27 C -1.964953 -5.087114 2.450931 0
M  V30 28 F -2.054537 -3.988901 3.271827 0
M  V30 29 C -1.813990 -6.267151 3.148922 0
M  V30 30 C -1.719111 -7.431421 2.415347 0
M  V30 31 C -1.774045 -7.407253 1.037653 0
M  V30 32 C -1.925783 -6.198932 0.395638 0
M  V30 33 Cl -2.007141 -6.063324 -1.367885 0
M  V30 34 N -1.487211 -2.633797 0.032277 0
M  V30 35 H 0.097482 -2.514127 2.581422 0
M  V30 36 H 1.880023 -2.838864 2.457153 0
M  V30 37 H 0.762718 -4.146429 2.839963 0
M  V30 38 H 1.732318 -3.465705 0.257894 0
M  V30 39 H 0.327578 -4.563995 0.679261 0
M  V30 40 H 0.185340 1.741251 0.566108 0
M  V30 41 H 0.485448 3.340181 1.800950 0
M  V30 42 H 1.710227 6.177559 1.895022 0
M  V30 43 H -0.060986 6.586687 3.648661 0
M  V30 44 H -0.732325 4.883355 3.377718 0
M  V30 45 H 2.170848 5.497711 4.320284 0
M  V30 46 H 1.425324 3.806585 3.998773 0
M  V30 47 H 2.163352 3.939421 -2.476693 0
M  V30 48 H 0.157338 0.035747 -4.542355 0
M  V30 49 H 0.005942 -1.025235 -3.102702 0
M  V30 50 H 1.609609 -0.791151 -3.863069 0
M  V30 51 H -2.250680 0.223406 -1.411922 0
M  V30 52 H -1.766163 -6.334401 4.220481 0
M  V30 53 H -1.599225 -8.396880 2.890914 0
M  V30 54 H -1.704374 -8.296806 0.404507 0
M  V30 END ATOM
M  V30 BEGIN BOND
M  V30 1 1 1 2
M  V30 2 1 2 3
M  V30 3 1 3 4
M  V30 4 2 4 5
M  V30 5 1 4 6
M  V30 6 1 6 7
M  V30 7 2 7 8
M  V30 8 1 8 9
M  V30 9 1 9 10
M  V30 10 2 10 11
M  V30 11 1 10 12
M  V30 12 1 12 13
M  V30 13 1 13 14
M  V30 14 1 14 15
M  V30 15 2 9 16
M  V30 16 1 16 17
M  V30 17 1 17 18
M  V30 18 2 17 19
M  V30 19 1 19 20
M  V30 20 2 6 21
M  V30 21 1 21 22
M  V30 22 2 22 23
M  V30 23 1 23 24
M  V30 24 2 24 25
M  V30 25 1 25 26
M  V30 26 2 26 27
M  V30 27 1 27 28
M  V30 28 1 27 29
M  V30 29 2 29 30
M  V30 30 1 30 31
M  V30 31 2 31 32
M  V30 32 1 32 33
M  V30 33 1 25 34
M  V30 34 1 34 3
M  V30 35 1 19 7
M  V30 36 1 34 22
M  V30 37 1 15 13
M  V30 38 1 32 26
M  V30 39 1 1 35
M  V30 40 1 1 36
M  V30 41 1 1 37
M  V30 42 1 2 38
M  V30 43 1 2 39
M  V30 44 1 8 40
M  V30 45 1 12 41
M  V30 46 1 13 42
M  V30 47 1 14 43
M  V30 48 1 14 44
M  V30 49 1 15 45
M  V30 50 1 15 46
M  V30 51 1 16 47
M  V30 52 1 20 48
M  V30 53 1 20 49
M  V30 54 1 20 50
M  V30 55 1 21 51
M  V30 56 1 29 52
M  V30 57 1 30 53
M  V30 58 1 31 54
M  V30 END BOND
M  V30 END CTAB
M  END
>  <Dataset>  (115) 
ChEMBL_Kinases

>  <Ligand_Instance>  (115) 
nan

>  <PDB_ID>  (115) 
nan

>  <Standardized_SMILES>  (115) 
CCn1c(=O)c(-c2cc(C(=O)NC3CC3)cc(F)c2C)cc2nnc(-c3c(F)cccc3Cl)n21

>  <Name>  (115) 
nan

>  <Pocket>  (115) 
nan

>  <ATP_Site>  (115) 
nan

>  <Peripheral>  (115) 
nan

>  <Num_H_Atoms_ProtBoundConf>  (115) 
nan

>  <Num_Resolved_Atoms>  (115) 
nan

>  <Num_Not_Resolved_Atoms>  (115) 
nan

$$$$
CHEMBL1945725
     RDKit          3D

  0  0  0  0  0  0  0  0  0  0999 V3000
M  V30 BEGIN CTAB
M  V30 COUNTS 54 58 0 0 0
M  V30 BEGIN ATOM
M  V30 1 C 0.552680 -3.142264 2.473388 0
M  V30 2 C 0.514384 -3.562108 1.000765 0
M  V30 3 N -0.282536 -2.602540 0.273800 0
M  V30 4 C 0.432241 -1.548522 -0.224651 0
M  V30 5 O 1.688561 -1.443818 -0.057511 0
M  V30 6 C -0.158245 -0.511058 -0.951812 0
M  V30 7 C 0.650256 0.590906 -1.461870 0
M  V30 8 C 0.778083 1.663219 -0.601508 0
M  V30 9 C 1.518139 2.760029 -0.975470 0
M  V30 10 C 1.738618 3.959528 -0.172212 0
M  V30 11 O 2.411264 4.973634 -0.494246 0
M  V30 12 N 1.171552 4.093712 1.136001 0
M  V30 13 C 1.344995 5.245666 1.986315 0
M  V30 14 C 0.280173 5.662511 2.930955 0
M  V30 15 C 1.527023 5.073295 3.476977 0
M  V30 16 C 2.124447 2.751727 -2.231995 0
M  V30 17 C 2.012170 1.683231 -3.120372 0
M  V30 18 F 2.615046 1.709630 -4.333428 0
M  V30 19 C 1.258473 0.603841 -2.700070 0
M  V30 20 C 1.091391 -0.563879 -3.579576 0
M  V30 21 C -1.520629 -0.583784 -1.157358 0
M  V30 22 C -2.235931 -1.649431 -0.652171 0
M  V30 23 N -3.533214 -2.032435 -0.657468 0
M  V30 24 N -3.638460 -3.180132 0.009525 0
M  V30 25 C -2.404173 -3.556504 0.457117 0
M  V30 26 C -2.357780 -4.798928 1.209888 0
M  V30 27 C -2.411373 -4.782523 2.587856 0
M  V30 28 F -2.491072 -3.611358 3.303329 0
M  V30 29 C -2.396236 -5.898679 3.396982 0
M  V30 30 C -2.321921 -7.131260 2.787137 0
M  V30 31 C -2.265352 -7.227521 1.414031 0
M  V30 32 C -2.283244 -6.083606 0.648367 0
M  V30 33 F -2.228438 -6.143841 -0.717740 0
M  V30 34 N -1.575316 -2.593560 0.031798 0
M  V30 35 H 0.324327 -3.997616 3.139248 0
M  V30 36 H 1.584677 -2.780308 2.742129 0
M  V30 37 H -0.185808 -2.346242 2.695090 0
M  V30 38 H 0.037139 -4.550395 0.967707 0
M  V30 39 H 1.552428 -3.615959 0.592391 0
M  V30 40 H 0.319848 1.694331 0.374116 0
M  V30 41 H 0.584294 3.338105 1.553141 0
M  V30 42 H 1.964285 6.037389 1.541768 0
M  V30 43 H -0.670295 5.114738 3.041397 0
M  V30 44 H 0.154511 6.753138 3.091973 0
M  V30 45 H 2.223676 5.713603 4.034749 0
M  V30 46 H 1.549756 4.001678 3.806640 0
M  V30 47 H 2.724562 3.594973 -2.583591 0
M  V30 48 H 0.330425 -0.388129 -4.390706 0
M  V30 49 H 0.738064 -1.458472 -3.033255 0
M  V30 50 H 2.031657 -0.810797 -4.153053 0
M  V30 51 H -2.030997 0.170567 -1.700742 0
M  V30 52 H -2.438238 -5.875485 4.468035 0
M  V30 53 H -2.303964 -8.072197 3.333824 0
M  V30 54 H -2.204964 -8.169551 0.853065 0
M  V30 END ATOM
M  V30 BEGIN BOND
M  V30 1 1 1 2
M  V30 2 1 2 3
M  V30 3 1 3 4
M  V30 4 2 4 5
M  V30 5 1 4 6
M  V30 6 1 6 7
M  V30 7 2 7 8
M  V30 8 1 8 9
M  V30 9 1 9 10
M  V30 10 2 10 11
M  V30 11 1 10 12
M  V30 12 1 12 13
M  V30 13 1 13 14
M  V30 14 1 14 15
M  V30 15 2 9 16
M  V30 16 1 16 17
M  V30 17 1 17 18
M  V30 18 2 17 19
M  V30 19 1 19 20
M  V30 20 2 6 21
M  V30 21 1 21 22
M  V30 22 2 22 23
M  V30 23 1 23 24
M  V30 24 2 24 25
M  V30 25 1 25 26
M  V30 26 2 26 27
M  V30 27 1 27 28
M  V30 28 1 27 29
M  V30 29 2 29 30
M  V30 30 1 30 31
M  V30 31 2 31 32
M  V30 32 1 32 33
M  V30 33 1 25 34
M  V30 34 1 34 3
M  V30 35 1 19 7
M  V30 36 1 34 22
M  V30 37 1 15 13
M  V30 38 1 32 26
M  V30 39 1 1 35
M  V30 40 1 1 36
M  V30 41 1 1 37
M  V30 42 1 2 38
M  V30 43 1 2 39
M  V30 44 1 8 40
M  V30 45 1 12 41
M  V30 46 1 13 42
M  V30 47 1 14 43
M  V30 48 1 14 44
M  V30 49 1 15 45
M  V30 50 1 15 46
M  V30 51 1 16 47
M  V30 52 1 20 48
M  V30 53 1 20 49
M  V30 54 1 20 50
M  V30 55 1 21 51
M  V30 56 1 29 52
M  V30 57 1 30 53
M  V30 58 1 31 54
M  V30 END BOND
M  V30 END CTAB
M  END
>  <Dataset>  (116) 
ChEMBL_Kinases

>  <Ligand_Instance>  (116) 
nan

>  <PDB_ID>  (116) 
nan

>  <Standardized_SMILES>  (116) 
CCn1c(=O)c(-c2cc(C(=O)NC3CC3)cc(F)c2C)cc2nnc(-c3c(F)cccc3F)n21

>  <Name>  (116) 
nan

>  <Pocket>  (116) 
nan

>  <ATP_Site>  (116) 
nan

>  <Peripheral>  (116) 
nan

>  <Num_H_Atoms_ProtBoundConf>  (116) 
nan

>  <Num_Resolved_Atoms>  (116) 
nan

>  <Num_Not_Resolved_Atoms>  (116) 
nan

$$$$
CHEMBL1945724
     RDKit          3D

  0  0  0  0  0  0  0  0  0  0999 V3000
M  V30 BEGIN CTAB
M  V30 COUNTS 57 61 0 0 0
M  V30 BEGIN ATOM
M  V30 1 C 0.156348 -2.855655 2.600960 0
M  V30 2 C 0.123479 -3.347645 1.150526 0
M  V30 3 N -0.430251 -2.326068 0.297881 0
M  V30 4 C 0.482606 -1.452530 -0.220580 0
M  V30 5 O 1.719064 -1.557039 0.037018 0
M  V30 6 C 0.144047 -0.402619 -1.052379 0
M  V30 7 C 1.155809 0.506037 -1.582743 0
M  V30 8 C 1.379419 1.594617 -0.763472 0
M  V30 9 C 2.306509 2.557512 -1.112004 0
M  V30 10 C 2.650633 3.757059 -0.352979 0
M  V30 11 O 3.491417 4.597575 -0.703561 0
M  V30 12 N 2.021922 4.061715 0.893581 0
M  V30 13 C 2.348479 5.248527 1.665031 0
M  V30 14 C 2.239359 5.076740 3.182701 0
M  V30 15 C 1.172767 5.833784 2.485502 0
M  V30 16 C 2.991457 2.382385 -2.304695 0
M  V30 17 C 2.789419 1.305733 -3.143132 0
M  V30 18 C 1.854359 0.360901 -2.763813 0
M  V30 19 C 1.538981 -0.838905 -3.565382 0
M  V30 20 C -1.194660 -0.251075 -1.359808 0
M  V30 21 C -2.122373 -1.130120 -0.839554 0
M  V30 22 N -3.457139 -1.286755 -0.913171 0
M  V30 23 N -3.809236 -2.348435 -0.171730 0
M  V30 24 C -2.694939 -2.880605 0.383799 0
M  V30 25 C -2.925094 -4.045269 1.220934 0
M  V30 26 C -3.039654 -5.360219 0.741061 0
M  V30 27 C -2.900730 -5.520602 -0.740147 0
M  V30 28 C -3.264727 -6.448401 1.556047 0
M  V30 29 C -3.385420 -6.249170 2.913174 0
M  V30 30 C -3.283831 -4.985899 3.452277 0
M  V30 31 C -3.058649 -3.936645 2.590037 0
M  V30 32 F -2.975989 -2.723081 3.213998 0
M  V30 33 N -1.681921 -2.113466 -0.042941 0
M  V30 34 H -0.448418 -1.932527 2.715566 0
M  V30 35 H -0.262584 -3.628741 3.276151 0
M  V30 36 H 1.204108 -2.712933 2.939866 0
M  V30 37 H 1.176768 -3.580473 0.866587 0
M  V30 38 H -0.511603 -4.239972 1.126052 0
M  V30 39 H 0.878609 1.781741 0.170897 0
M  V30 40 H 1.293449 3.429949 1.299090 0
M  V30 41 H 3.111020 5.948072 1.281040 0
M  V30 42 H 1.981197 4.077905 3.592000 0
M  V30 43 H 3.022428 5.592190 3.769281 0
M  V30 44 H 1.181911 6.930866 2.632531 0
M  V30 45 H 0.189747 5.323787 2.387752 0
M  V30 46 H 3.734079 3.105201 -2.635045 0
M  V30 47 H 3.323462 1.167680 -4.074650 0
M  V30 48 H 1.903383 -0.801309 -4.604888 0
M  V30 49 H 1.967712 -1.755618 -3.091400 0
M  V30 50 H 0.432436 -0.977898 -3.641094 0
M  V30 51 H -1.535178 0.551846 -2.007605 0
M  V30 52 H -2.927855 -6.595524 -0.977638 0
M  V30 53 H -3.738166 -4.981607 -1.231641 0
M  V30 54 H -1.962504 -5.037040 -1.100904 0
M  V30 55 H -3.345719 -7.443496 1.139927 0
M  V30 56 H -3.563627 -7.088740 3.584820 0
M  V30 57 H -3.384103 -4.869496 4.521961 0
M  V30 END ATOM
M  V30 BEGIN BOND
M  V30 1 1 1 2
M  V30 2 1 2 3
M  V30 3 1 3 4
M  V30 4 2 4 5
M  V30 5 1 4 6
M  V30 6 1 6 7
M  V30 7 2 7 8
M  V30 8 1 8 9
M  V30 9 1 9 10
M  V30 10 2 10 11
M  V30 11 1 10 12
M  V30 12 1 12 13
M  V30 13 1 13 14
M  V30 14 1 14 15
M  V30 15 2 9 16
M  V30 16 1 16 17
M  V30 17 2 17 18
M  V30 18 1 18 19
M  V30 19 2 6 20
M  V30 20 1 20 21
M  V30 21 2 21 22
M  V30 22 1 22 23
M  V30 23 2 23 24
M  V30 24 1 24 25
M  V30 25 2 25 26
M  V30 26 1 26 27
M  V30 27 1 26 28
M  V30 28 2 28 29
M  V30 29 1 29 30
M  V30 30 2 30 31
M  V30 31 1 31 32
M  V30 32 1 24 33
M  V30 33 1 33 3
M  V30 34 1 18 7
M  V30 35 1 33 21
M  V30 36 1 15 13
M  V30 37 1 31 25
M  V30 38 1 1 34
M  V30 39 1 1 35
M  V30 40 1 1 36
M  V30 41 1 2 37
M  V30 42 1 2 38
M  V30 43 1 8 39
M  V30 44 1 12 40
M  V30 45 1 13 41
M  V30 46 1 14 42
M  V30 47 1 14 43
M  V30 48 1 15 44
M  V30 49 1 15 45
M  V30 50 1 16 46
M  V30 51 1 17 47
M  V30 52 1 19 48
M  V30 53 1 19 49
M  V30 54 1 19 50
M  V30 55 1 20 51
M  V30 56 1 27 52
M  V30 57 1 27 53
M  V30 58 1 27 54
M  V30 59 1 28 55
M  V30 60 1 29 56
M  V30 61 1 30 57
M  V30 END BOND
M  V30 END CTAB
M  END
>  <Dataset>  (117) 
ChEMBL_Kinases

>  <Ligand_Instance>  (117) 
nan

>  <PDB_ID>  (117) 
nan

>  <Standardized_SMILES>  (117) 
CCn1c(=O)c(-c2cc(C(=O)NC3CC3)ccc2C)cc2nnc(-c3c(C)cccc3F)n21

>  <Name>  (117) 
nan

>  <Pocket>  (117) 
nan

>  <ATP_Site>  (117) 
nan

>  <Peripheral>  (117) 
nan

>  <Num_H_Atoms_ProtBoundConf>  (117) 
nan

>  <Num_Resolved_Atoms>  (117) 
nan

>  <Num_Not_Resolved_Atoms>  (117) 
nan

$$$$
CHEMBL1945723
     RDKit          3D

  0  0  0  0  0  0  0  0  0  0999 V3000
M  V30 BEGIN CTAB
M  V30 COUNTS 54 58 0 0 0
M  V30 BEGIN ATOM
M  V30 1 C -0.577415 -2.461820 3.158176 0
M  V30 2 C -0.412555 -3.327267 1.926596 0
M  V30 3 N -0.692634 -2.521507 0.771671 0
M  V30 4 C 0.378380 -1.842935 0.261629 0
M  V30 5 O 1.525436 -1.916908 0.763946 0
M  V30 6 C 0.281305 -1.024134 -0.844928 0
M  V30 7 C 1.432975 -0.303790 -1.380973 0
M  V30 8 C 1.647909 0.941615 -0.874625 0
M  V30 9 C 2.699659 1.734181 -1.290614 0
M  V30 10 C 3.031642 3.079970 -0.823902 0
M  V30 11 O 3.994399 3.777265 -1.220140 0
M  V30 12 N 2.243700 3.729935 0.166674 0
M  V30 13 C 2.574651 5.081853 0.637562 0
M  V30 14 C 2.123563 5.423197 2.061812 0
M  V30 15 C 1.334462 5.945315 0.912654 0
M  V30 16 C 3.556098 1.211775 -2.266755 0
M  V30 17 C 3.345370 -0.065677 -2.793989 0
M  V30 18 C 2.272221 -0.841318 -2.351498 0
M  V30 19 C 1.998175 -2.204173 -2.874260 0
M  V30 20 C -0.954849 -0.898369 -1.446756 0
M  V30 21 C -2.042112 -1.580263 -0.938915 0
M  V30 22 N -3.366050 -1.720188 -1.231797 0
M  V30 23 N -3.923722 -2.555786 -0.340871 0
M  V30 24 C -2.955667 -2.959187 0.533852 0
M  V30 25 C -3.456310 -3.876586 1.541141 0
M  V30 26 C -3.544101 -5.274608 1.468058 0
M  V30 27 F -3.078364 -5.792481 0.298507 0
M  V30 28 C -4.056106 -6.028854 2.494023 0
M  V30 29 C -4.503349 -5.412844 3.640393 0
M  V30 30 C -4.432592 -4.041618 3.746712 0
M  V30 31 C -3.917838 -3.287809 2.713881 0
M  V30 32 Cl -3.943682 -1.561117 3.074254 0
M  V30 33 N -1.831709 -2.346649 0.138894 0
M  V30 34 H -0.970593 -1.482084 2.832246 0
M  V30 35 H -1.310075 -2.873626 3.874990 0
M  V30 36 H 0.379348 -2.363755 3.717965 0
M  V30 37 H 0.661403 -3.673652 1.918545 0
M  V30 38 H -1.064221 -4.181083 2.093204 0
M  V30 39 H 1.013107 1.385643 -0.120089 0
M  V30 40 H 1.408060 3.274978 0.592622 0
M  V30 41 H 3.439055 5.596167 0.220807 0
M  V30 42 H 1.751913 4.549426 2.658356 0
M  V30 43 H 2.780098 6.109131 2.636027 0
M  V30 44 H 0.331599 5.502536 0.750404 0
M  V30 45 H 1.406074 7.042790 0.749433 0
M  V30 46 H 4.417457 1.778070 -2.652637 0
M  V30 47 H 4.008019 -0.479305 -3.554404 0
M  V30 48 H 1.062281 -2.235510 -3.460611 0
M  V30 49 H 1.886227 -2.925473 -2.046418 0
M  V30 50 H 2.848740 -2.502663 -3.533131 0
M  V30 51 H -1.126400 -0.274589 -2.323795 0
M  V30 52 H -4.079007 -7.106104 2.335138 0
M  V30 53 H -4.892021 -6.073151 4.402435 0
M  V30 54 H -4.810993 -3.670419 4.687198 0
M  V30 END ATOM
M  V30 BEGIN BOND
M  V30 1 1 1 2
M  V30 2 1 2 3
M  V30 3 1 3 4
M  V30 4 2 4 5
M  V30 5 1 4 6
M  V30 6 1 6 7
M  V30 7 2 7 8
M  V30 8 1 8 9
M  V30 9 1 9 10
M  V30 10 2 10 11
M  V30 11 1 10 12
M  V30 12 1 12 13
M  V30 13 1 13 14
M  V30 14 1 14 15
M  V30 15 2 9 16
M  V30 16 1 16 17
M  V30 17 2 17 18
M  V30 18 1 18 19
M  V30 19 2 6 20
M  V30 20 1 20 21
M  V30 21 2 21 22
M  V30 22 1 22 23
M  V30 23 2 23 24
M  V30 24 1 24 25
M  V30 25 2 25 26
M  V30 26 1 26 27
M  V30 27 1 26 28
M  V30 28 2 28 29
M  V30 29 1 29 30
M  V30 30 2 30 31
M  V30 31 1 31 32
M  V30 32 1 24 33
M  V30 33 1 33 3
M  V30 34 1 18 7
M  V30 35 1 33 21
M  V30 36 1 15 13
M  V30 37 1 31 25
M  V30 38 1 1 34
M  V30 39 1 1 35
M  V30 40 1 1 36
M  V30 41 1 2 37
M  V30 42 1 2 38
M  V30 43 1 8 39
M  V30 44 1 12 40
M  V30 45 1 13 41
M  V30 46 1 14 42
M  V30 47 1 14 43
M  V30 48 1 15 44
M  V30 49 1 15 45
M  V30 50 1 16 46
M  V30 51 1 17 47
M  V30 52 1 19 48
M  V30 53 1 19 49
M  V30 54 1 19 50
M  V30 55 1 20 51
M  V30 56 1 28 52
M  V30 57 1 29 53
M  V30 58 1 30 54
M  V30 END BOND
M  V30 END CTAB
M  END
>  <Dataset>  (118) 
ChEMBL_Kinases

>  <Ligand_Instance>  (118) 
nan

>  <PDB_ID>  (118) 
nan

>  <Standardized_SMILES>  (118) 
CCn1c(=O)c(-c2cc(C(=O)NC3CC3)ccc2C)cc2nnc(-c3c(F)cccc3Cl)n21

>  <Name>  (118) 
nan

>  <Pocket>  (118) 
nan

>  <ATP_Site>  (118) 
nan

>  <Peripheral>  (118) 
nan

>  <Num_H_Atoms_ProtBoundConf>  (118) 
nan

>  <Num_Resolved_Atoms>  (118) 
nan

>  <Num_Not_Resolved_Atoms>  (118) 
nan

$$$$
CHEMBL1945722
     RDKit          3D

  0  0  0  0  0  0  0  0  0  0999 V3000
M  V30 BEGIN CTAB
M  V30 COUNTS 54 58 0 0 0
M  V30 BEGIN ATOM
M  V30 1 C -3.078413 -0.586800 1.556797 0
M  V30 2 C -2.917029 -1.569319 0.394160 0
M  V30 3 N -1.516956 -1.933165 0.355148 0
M  V30 4 C -0.718889 -1.131855 -0.412671 0
M  V30 5 O -1.207562 -0.145882 -1.041030 0
M  V30 6 C 0.646613 -1.353393 -0.541697 0
M  V30 7 C 1.461434 -0.471929 -1.372710 0
M  V30 8 C 2.001288 0.616908 -0.719618 0
M  V30 9 C 2.787179 1.510279 -1.418870 0
M  V30 10 C 3.444168 2.715035 -0.911124 0
M  V30 11 O 4.154093 3.519079 -1.554008 0
M  V30 12 N 3.287105 3.051777 0.463009 0
M  V30 13 C 3.896960 4.224083 1.063332 0
M  V30 14 C 4.205093 4.280027 2.505546 0
M  V30 15 C 2.976028 5.051136 1.975634 0
M  V30 16 C 3.023119 1.295248 -2.781559 0
M  V30 17 C 2.468153 0.197779 -3.400807 0
M  V30 18 C 1.677680 -0.708825 -2.716550 0
M  V30 19 C 1.058374 -1.913007 -3.358760 0
M  V30 20 C 1.193683 -2.422722 0.136078 0
M  V30 21 C 0.375288 -3.223719 0.907727 0
M  V30 22 N 0.527054 -4.326963 1.696246 0
M  V30 23 N -0.665018 -4.672790 2.209275 0
M  V30 24 C -1.584406 -3.790089 1.749420 0
M  V30 25 C -2.928660 -4.057249 2.233857 0
M  V30 26 C -3.469592 -3.454383 3.348066 0
M  V30 27 F -2.760086 -2.559489 4.041540 0
M  V30 28 C -4.739604 -3.715734 3.830772 0
M  V30 29 C -5.515718 -4.636104 3.158399 0
M  V30 30 C -5.062994 -5.278437 2.050973 0
M  V30 31 C -3.808986 -4.972787 1.634701 0
M  V30 32 F -3.333852 -5.613211 0.515281 0
M  V30 33 N -0.926486 -2.933678 0.971767 0
M  V30 34 H -3.155424 0.465761 1.212112 0
M  V30 35 H -3.969459 -0.852990 2.179419 0
M  V30 36 H -2.200726 -0.649357 2.229815 0
M  V30 37 H -3.604942 -2.386059 0.580446 0
M  V30 38 H -3.200295 -0.972711 -0.508643 0
M  V30 39 H 1.869914 0.849999 0.309577 0
M  V30 40 H 2.730978 2.499969 1.153746 0
M  V30 41 H 4.485531 4.818853 0.359432 0
M  V30 42 H 4.016233 3.461810 3.196900 0
M  V30 43 H 5.071791 4.935228 2.784462 0
M  V30 44 H 1.985019 4.609946 2.216779 0
M  V30 45 H 3.035347 6.143620 1.939374 0
M  V30 46 H 3.624311 1.931664 -3.428655 0
M  V30 47 H 2.610266 -0.031860 -4.460271 0
M  V30 48 H -0.013302 -2.010146 -3.107539 0
M  V30 49 H 1.660031 -2.822437 -3.170797 0
M  V30 50 H 1.076912 -1.769226 -4.468039 0
M  V30 51 H 2.227158 -2.650460 0.083462 0
M  V30 52 H -5.128542 -3.216802 4.714857 0
M  V30 53 H -6.527574 -4.863771 3.518320 0
M  V30 54 H -5.651328 -6.004304 1.505619 0
M  V30 END ATOM
M  V30 BEGIN BOND
M  V30 1 1 1 2
M  V30 2 1 2 3
M  V30 3 1 3 4
M  V30 4 2 4 5
M  V30 5 1 4 6
M  V30 6 1 6 7
M  V30 7 2 7 8
M  V30 8 1 8 9
M  V30 9 1 9 10
M  V30 10 2 10 11
M  V30 11 1 10 12
M  V30 12 1 12 13
M  V30 13 1 13 14
M  V30 14 1 14 15
M  V30 15 2 9 16
M  V30 16 1 16 17
M  V30 17 2 17 18
M  V30 18 1 18 19
M  V30 19 2 6 20
M  V30 20 1 20 21
M  V30 21 2 21 22
M  V30 22 1 22 23
M  V30 23 2 23 24
M  V30 24 1 24 25
M  V30 25 2 25 26
M  V30 26 1 26 27
M  V30 27 1 26 28
M  V30 28 2 28 29
M  V30 29 1 29 30
M  V30 30 2 30 31
M  V30 31 1 31 32
M  V30 32 1 24 33
M  V30 33 1 33 3
M  V30 34 1 18 7
M  V30 35 1 33 21
M  V30 36 1 15 13
M  V30 37 1 31 25
M  V30 38 1 1 34
M  V30 39 1 1 35
M  V30 40 1 1 36
M  V30 41 1 2 37
M  V30 42 1 2 38
M  V30 43 1 8 39
M  V30 44 1 12 40
M  V30 45 1 13 41
M  V30 46 1 14 42
M  V30 47 1 14 43
M  V30 48 1 15 44
M  V30 49 1 15 45
M  V30 50 1 16 46
M  V30 51 1 17 47
M  V30 52 1 19 48
M  V30 53 1 19 49
M  V30 54 1 19 50
M  V30 55 1 20 51
M  V30 56 1 28 52
M  V30 57 1 29 53
M  V30 58 1 30 54
M  V30 END BOND
M  V30 END CTAB
M  END
>  <Dataset>  (119) 
ChEMBL_Kinases

>  <Ligand_Instance>  (119) 
nan

>  <PDB_ID>  (119) 
nan

>  <Standardized_SMILES>  (119) 
CCn1c(=O)c(-c2cc(C(=O)NC3CC3)ccc2C)cc2nnc(-c3c(F)cccc3F)n21

>  <Name>  (119) 
nan

>  <Pocket>  (119) 
nan

>  <ATP_Site>  (119) 
nan

>  <Peripheral>  (119) 
nan

>  <Num_H_Atoms_ProtBoundConf>  (119) 
nan

>  <Num_Resolved_Atoms>  (119) 
nan

>  <Num_Not_Resolved_Atoms>  (119) 
nan

$$$$
CHEMBL1945721
     RDKit          3D

  0  0  0  0  0  0  0  0  0  0999 V3000
M  V30 BEGIN CTAB
M  V30 COUNTS 51 55 0 0 0
M  V30 BEGIN ATOM
M  V30 1 C -0.240242 0.650429 4.274838 0
M  V30 2 C 0.927497 1.087497 3.453267 0
M  V30 3 C 2.017202 1.798567 3.932282 0
M  V30 4 F 1.998919 2.110284 5.253761 0
M  V30 5 C 3.049466 2.160890 3.107457 0
M  V30 6 C 3.017585 1.818077 1.770663 0
M  V30 7 C 4.130453 2.216679 0.916095 0
M  V30 8 O 5.078572 2.857797 1.431967 0
M  V30 9 N 4.196119 1.919939 -0.455170 0
M  V30 10 C 5.310472 2.329917 -1.264719 0
M  V30 11 C 5.165153 2.478873 -2.732153 0
M  V30 12 C 5.802437 1.215028 -2.191298 0
M  V30 13 C 1.938346 1.114664 1.299640 0
M  V30 14 C 0.878898 0.731890 2.101368 0
M  V30 15 C -0.254550 -0.016986 1.563991 0
M  V30 16 C -1.311538 0.714666 1.077660 0
M  V30 17 C -2.383226 0.007352 0.569395 0
M  V30 18 N -3.572318 0.371451 0.017370 0
M  V30 19 N -4.248529 -0.730101 -0.310190 0
M  V30 20 C -3.481814 -1.796046 0.037083 0
M  V30 21 C -4.062039 -3.102524 -0.247476 0
M  V30 22 C -4.860426 -3.766870 0.690152 0
M  V30 23 F -5.063780 -3.129587 1.885273 0
M  V30 24 C -5.432984 -4.993364 0.473235 0
M  V30 25 C -5.232351 -5.636428 -0.722750 0
M  V30 26 C -4.461321 -5.031761 -1.671902 0
M  V30 27 C -3.911388 -3.814687 -1.417320 0
M  V30 28 Cl -2.922334 -3.068342 -2.669547 0
M  V30 29 N -2.340191 -1.336862 0.575472 0
M  V30 30 N -1.352674 -2.087859 1.029158 0
M  V30 31 C -1.380752 -3.534916 1.000344 0
M  V30 32 C -0.284692 -1.403446 1.535432 0
M  V30 33 O 0.694449 -2.007413 1.986751 0
M  V30 34 H 0.034741 0.843691 5.339242 0
M  V30 35 H -1.155432 1.209426 4.089057 0
M  V30 36 H -0.328144 -0.448157 4.138878 0
M  V30 37 H 3.884730 2.722102 3.540689 0
M  V30 38 H 3.441971 1.396890 -0.920163 0
M  V30 39 H 6.140273 2.895631 -0.796592 0
M  V30 40 H 4.186684 2.272472 -3.224204 0
M  V30 41 H 5.801809 3.222006 -3.267348 0
M  V30 42 H 5.265860 0.258286 -2.225301 0
M  V30 43 H 6.895714 1.092802 -2.343020 0
M  V30 44 H 1.876691 0.827408 0.257502 0
M  V30 45 H -1.307170 1.783410 1.090898 0
M  V30 46 H -6.032773 -5.406591 1.279093 0
M  V30 47 H -5.690517 -6.600051 -0.875164 0
M  V30 48 H -4.280112 -5.515440 -2.636809 0
M  V30 49 H -2.141566 -3.994140 1.631751 0
M  V30 50 H -0.386800 -3.891183 1.405484 0
M  V30 51 H -1.366675 -3.922076 -0.059458 0
M  V30 END ATOM
M  V30 BEGIN BOND
M  V30 1 1 1 2
M  V30 2 2 2 3
M  V30 3 1 3 4
M  V30 4 1 3 5
M  V30 5 2 5 6
M  V30 6 1 6 7
M  V30 7 2 7 8
M  V30 8 1 7 9
M  V30 9 1 9 10
M  V30 10 1 10 11
M  V30 11 1 11 12
M  V30 12 1 6 13
M  V30 13 2 13 14
M  V30 14 1 14 15
M  V30 15 2 15 16
M  V30 16 1 16 17
M  V30 17 2 17 18
M  V30 18 1 18 19
M  V30 19 2 19 20
M  V30 20 1 20 21
M  V30 21 2 21 22
M  V30 22 1 22 23
M  V30 23 1 22 24
M  V30 24 2 24 25
M  V30 25 1 25 26
M  V30 26 2 26 27
M  V30 27 1 27 28
M  V30 28 1 20 29
M  V30 29 1 29 30
M  V30 30 1 30 31
M  V30 31 1 30 32
M  V30 32 2 32 33
M  V30 33 1 14 2
M  V30 34 1 32 15
M  V30 35 1 12 10
M  V30 36 1 29 17
M  V30 37 1 27 21
M  V30 38 1 1 34
M  V30 39 1 1 35
M  V30 40 1 1 36
M  V30 41 1 5 37
M  V30 42 1 9 38
M  V30 43 1 10 39
M  V30 44 1 11 40
M  V30 45 1 11 41
M  V30 46 1 12 42
M  V30 47 1 12 43
M  V30 48 1 13 44
M  V30 49 1 16 45
M  V30 50 1 24 46
M  V30 51 1 25 47
M  V30 52 1 26 48
M  V30 53 1 31 49
M  V30 54 1 31 50
M  V30 55 1 31 51
M  V30 END BOND
M  V30 END CTAB
M  END
>  <Dataset>  (120) 
ChEMBL_Kinases

>  <Ligand_Instance>  (120) 
nan

>  <PDB_ID>  (120) 
nan

>  <Standardized_SMILES>  (120) 
Cc1c(F)cc(C(=O)NC2CC2)cc1-c1cc2nnc(-c3c(F)cccc3Cl)n2n(C)c1=O

>  <Name>  (120) 
nan

>  <Pocket>  (120) 
nan

>  <ATP_Site>  (120) 
nan

>  <Peripheral>  (120) 
nan

>  <Num_H_Atoms_ProtBoundConf>  (120) 
nan

>  <Num_Resolved_Atoms>  (120) 
nan

>  <Num_Not_Resolved_Atoms>  (120) 
nan

$$$$
CHEMBL1945720
     RDKit          3D

  0  0  0  0  0  0  0  0  0  0999 V3000
M  V30 BEGIN CTAB
M  V30 COUNTS 51 55 0 0 0
M  V30 BEGIN ATOM
M  V30 1 C 0.855056 -1.577811 4.267356 0
M  V30 2 C 1.879232 -1.128800 3.283860 0
M  V30 3 C 3.215723 -1.241648 3.613881 0
M  V30 4 F 3.557130 -1.759825 4.827826 0
M  V30 5 C 4.190868 -0.823936 2.700377 0
M  V30 6 C 3.859247 -0.298285 1.469681 0
M  V30 7 C 4.950201 0.108137 0.587597 0
M  V30 8 O 6.117364 -0.049453 1.010956 0
M  V30 9 N 4.735164 0.661928 -0.701501 0
M  V30 10 C 5.848889 1.049556 -1.539320 0
M  V30 11 C 5.839189 0.894442 -2.993194 0
M  V30 12 C 5.758413 2.263413 -2.393148 0
M  V30 13 C 2.526094 -0.185940 1.140917 0
M  V30 14 C 1.563256 -0.596959 2.039679 0
M  V30 15 C 0.138898 -0.493003 1.725076 0
M  V30 16 C -0.598407 0.641356 2.037695 0
M  V30 17 C -1.922142 0.650307 1.707095 0
M  V30 18 N -2.870705 1.578743 1.875911 0
M  V30 19 N -4.017455 1.100103 1.375652 0
M  V30 20 C -3.765730 -0.145875 0.891045 0
M  V30 21 C -4.887314 -0.859109 0.294101 0
M  V30 22 C -5.703019 -1.680355 1.081346 0
M  V30 23 F -5.409881 -1.789320 2.413148 0
M  V30 24 C -6.783459 -2.379141 0.570195 0
M  V30 25 C -7.092928 -2.281127 -0.767288 0
M  V30 26 C -6.306986 -1.476802 -1.577985 0
M  V30 27 C -5.236188 -0.792253 -1.039466 0
M  V30 28 F -4.502046 -0.026351 -1.855519 0
M  V30 29 N -2.470424 -0.418369 1.098401 0
M  V30 30 N -1.832878 -1.524274 0.773091 0
M  V30 31 C -2.494547 -2.632439 0.118625 0
M  V30 32 C -0.512746 -1.538088 1.100667 0
M  V30 33 O 0.177380 -2.562622 0.824385 0
M  V30 34 H 1.241726 -1.282206 5.285151 0
M  V30 35 H -0.101850 -1.055768 4.163653 0
M  V30 36 H 0.759014 -2.667594 4.309657 0
M  V30 37 H 5.221730 -0.952167 3.049977 0
M  V30 38 H 3.764597 0.795850 -1.060224 0
M  V30 39 H 6.827494 0.849478 -1.027774 0
M  V30 40 H 6.807349 0.687922 -3.519800 0
M  V30 41 H 4.976733 0.574358 -3.596984 0
M  V30 42 H 4.785995 2.798647 -2.453566 0
M  V30 43 H 6.637492 2.930086 -2.375285 0
M  V30 44 H 2.252813 0.223299 0.181859 0
M  V30 45 H -0.116564 1.470285 2.524141 0
M  V30 46 H -7.342947 -2.978919 1.255803 0
M  V30 47 H -7.936957 -2.829899 -1.154795 0
M  V30 48 H -6.566476 -1.413784 -2.622930 0
M  V30 49 H -2.842120 -2.403121 -0.907830 0
M  V30 50 H -1.689429 -3.410385 -0.040597 0
M  V30 51 H -3.236147 -3.148988 0.753062 0
M  V30 END ATOM
M  V30 BEGIN BOND
M  V30 1 1 1 2
M  V30 2 2 2 3
M  V30 3 1 3 4
M  V30 4 1 3 5
M  V30 5 2 5 6
M  V30 6 1 6 7
M  V30 7 2 7 8
M  V30 8 1 7 9
M  V30 9 1 9 10
M  V30 10 1 10 11
M  V30 11 1 11 12
M  V30 12 1 6 13
M  V30 13 2 13 14
M  V30 14 1 14 15
M  V30 15 2 15 16
M  V30 16 1 16 17
M  V30 17 2 17 18
M  V30 18 1 18 19
M  V30 19 2 19 20
M  V30 20 1 20 21
M  V30 21 2 21 22
M  V30 22 1 22 23
M  V30 23 1 22 24
M  V30 24 2 24 25
M  V30 25 1 25 26
M  V30 26 2 26 27
M  V30 27 1 27 28
M  V30 28 1 20 29
M  V30 29 1 29 30
M  V30 30 1 30 31
M  V30 31 1 30 32
M  V30 32 2 32 33
M  V30 33 1 14 2
M  V30 34 1 32 15
M  V30 35 1 12 10
M  V30 36 1 29 17
M  V30 37 1 27 21
M  V30 38 1 1 34
M  V30 39 1 1 35
M  V30 40 1 1 36
M  V30 41 1 5 37
M  V30 42 1 9 38
M  V30 43 1 10 39
M  V30 44 1 11 40
M  V30 45 1 11 41
M  V30 46 1 12 42
M  V30 47 1 12 43
M  V30 48 1 13 44
M  V30 49 1 16 45
M  V30 50 1 24 46
M  V30 51 1 25 47
M  V30 52 1 26 48
M  V30 53 1 31 49
M  V30 54 1 31 50
M  V30 55 1 31 51
M  V30 END BOND
M  V30 END CTAB
M  END
>  <Dataset>  (121) 
ChEMBL_Kinases

>  <Ligand_Instance>  (121) 
nan

>  <PDB_ID>  (121) 
nan

>  <Standardized_SMILES>  (121) 
Cc1c(F)cc(C(=O)NC2CC2)cc1-c1cc2nnc(-c3c(F)cccc3F)n2n(C)c1=O

>  <Name>  (121) 
nan

>  <Pocket>  (121) 
nan

>  <ATP_Site>  (121) 
nan

>  <Peripheral>  (121) 
nan

>  <Num_H_Atoms_ProtBoundConf>  (121) 
nan

>  <Num_Resolved_Atoms>  (121) 
nan

>  <Num_Not_Resolved_Atoms>  (121) 
nan

$$$$
CHEMBL1945719
     RDKit          3D

  0  0  0  0  0  0  0  0  0  0999 V3000
M  V30 BEGIN CTAB
M  V30 COUNTS 51 55 0 0 0
M  V30 BEGIN ATOM
M  V30 1 C 0.320432 1.419358 -1.904517 0
M  V30 2 C 1.397444 1.113374 -0.939274 0
M  V30 3 C 2.557033 1.860056 -0.997119 0
M  V30 4 C 3.556609 1.567339 -0.092368 0
M  V30 5 C 3.408203 0.562087 0.842459 0
M  V30 6 C 4.407086 0.176419 1.841555 0
M  V30 7 O 4.217367 -0.761734 2.682871 0
M  V30 8 N 5.665930 0.835155 1.933628 0
M  V30 9 C 6.654925 0.473938 2.901801 0
M  V30 10 C 7.741292 1.379465 3.303041 0
M  V30 11 C 8.053610 0.336381 2.292837 0
M  V30 12 C 2.224054 -0.145571 0.845622 0
M  V30 13 C 1.185053 0.096037 -0.030940 0
M  V30 14 C -0.067913 -0.652634 -0.027713 0
M  V30 15 C -0.237241 -1.810379 -0.790630 0
M  V30 16 C -1.454143 -2.431096 -0.708890 0
M  V30 17 N -1.863003 -3.515392 -1.347932 0
M  V30 18 N -3.099916 -3.752488 -0.995747 0
M  V30 19 C -3.546893 -2.814597 -0.097489 0
M  V30 20 C -4.895863 -2.907512 0.386272 0
M  V30 21 C -5.565491 -2.688148 1.553995 0
M  V30 22 C -6.883691 -2.748733 1.829723 0
M  V30 23 C -7.721344 -3.081446 0.805560 0
M  V30 24 F -9.047414 -3.157361 1.018642 0
M  V30 25 C -7.233132 -3.341975 -0.448716 0
M  V30 26 C -5.864781 -3.243176 -0.592104 0
M  V30 27 F -5.444554 -3.518810 -1.878971 0
M  V30 28 N -2.489197 -2.025755 0.036205 0
M  V30 29 N -2.334992 -0.938051 0.751309 0
M  V30 30 C -3.372914 -0.352860 1.537216 0
M  V30 31 C -1.159558 -0.285038 0.711943 0
M  V30 32 O -0.990089 0.759741 1.392464 0
M  V30 33 H -0.520714 1.941131 -1.392308 0
M  V30 34 H -0.048456 0.515648 -2.442886 0
M  V30 35 H 0.663283 2.100696 -2.714592 0
M  V30 36 H 2.722707 2.657587 -1.709705 0
M  V30 37 H 4.486529 2.110419 -0.081959 0
M  V30 38 H 5.915879 1.617562 1.287619 0
M  V30 39 H 6.441267 -0.362039 3.624429 0
M  V30 40 H 7.720188 2.450809 2.987371 0
M  V30 41 H 8.184437 1.271789 4.313880 0
M  V30 42 H 8.678325 -0.526688 2.537968 0
M  V30 43 H 8.237129 0.714204 1.266997 0
M  V30 44 H 2.065695 -0.944868 1.564437 0
M  V30 45 H 0.572996 -2.176645 -1.408444 0
M  V30 46 H -4.911566 -2.470823 2.383010 0
M  V30 47 H -7.235221 -2.539627 2.821434 0
M  V30 48 H -7.890098 -3.605880 -1.260387 0
M  V30 49 H -4.316209 -0.341380 0.917601 0
M  V30 50 H -3.156265 0.757949 1.658114 0
M  V30 51 H -3.479116 -0.703146 2.557348 0
M  V30 END ATOM
M  V30 BEGIN BOND
M  V30 1 1 1 2
M  V30 2 2 2 3
M  V30 3 1 3 4
M  V30 4 2 4 5
M  V30 5 1 5 6
M  V30 6 2 6 7
M  V30 7 1 6 8
M  V30 8 1 8 9
M  V30 9 1 9 10
M  V30 10 1 10 11
M  V30 11 1 5 12
M  V30 12 2 12 13
M  V30 13 1 13 14
M  V30 14 2 14 15
M  V30 15 1 15 16
M  V30 16 2 16 17
M  V30 17 1 17 18
M  V30 18 2 18 19
M  V30 19 1 19 20
M  V30 20 2 20 21
M  V30 21 1 21 22
M  V30 22 2 22 23
M  V30 23 1 23 24
M  V30 24 1 23 25
M  V30 25 2 25 26
M  V30 26 1 26 27
M  V30 27 1 19 28
M  V30 28 1 28 29
M  V30 29 1 29 30
M  V30 30 1 29 31
M  V30 31 2 31 32
M  V30 32 1 13 2
M  V30 33 1 31 14
M  V30 34 1 11 9
M  V30 35 1 28 16
M  V30 36 1 26 20
M  V30 37 1 1 33
M  V30 38 1 1 34
M  V30 39 1 1 35
M  V30 40 1 3 36
M  V30 41 1 4 37
M  V30 42 1 8 38
M  V30 43 1 9 39
M  V30 44 1 10 40
M  V30 45 1 10 41
M  V30 46 1 11 42
M  V30 47 1 11 43
M  V30 48 1 12 44
M  V30 49 1 15 45
M  V30 50 1 21 46
M  V30 51 1 22 47
M  V30 52 1 25 48
M  V30 53 1 30 49
M  V30 54 1 30 50
M  V30 55 1 30 51
M  V30 END BOND
M  V30 END CTAB
M  END
>  <Dataset>  (122) 
ChEMBL_Kinases

>  <Ligand_Instance>  (122) 
nan

>  <PDB_ID>  (122) 
nan

>  <Standardized_SMILES>  (122) 
Cc1ccc(C(=O)NC2CC2)cc1-c1cc2nnc(-c3ccc(F)cc3F)n2n(C)c1=O

>  <Name>  (122) 
nan

>  <Pocket>  (122) 
nan

>  <ATP_Site>  (122) 
nan

>  <Peripheral>  (122) 
nan

>  <Num_H_Atoms_ProtBoundConf>  (122) 
nan

>  <Num_Resolved_Atoms>  (122) 
nan

>  <Num_Not_Resolved_Atoms>  (122) 
nan

$$$$
CHEMBL1945718
     RDKit          3D

  0  0  0  0  0  0  0  0  0  0999 V3000
M  V30 BEGIN CTAB
M  V30 COUNTS 51 55 0 0 0
M  V30 BEGIN ATOM
M  V30 1 C 0.363640 -1.623324 -3.097856 0
M  V30 2 C 1.465763 -0.923279 -2.410558 0
M  V30 3 C 2.551637 -0.451242 -3.134670 0
M  V30 4 C 3.537346 0.191441 -2.413323 0
M  V30 5 C 3.473405 0.369354 -1.046605 0
M  V30 6 C 4.597762 1.069099 -0.438608 0
M  V30 7 O 5.540132 1.468507 -1.133033 0
M  V30 8 N 4.700144 1.341637 0.960680 0
M  V30 9 C 5.816370 2.033581 1.546602 0
M  V30 10 C 6.325564 1.748085 2.888356 0
M  V30 11 C 5.601002 3.075457 2.617397 0
M  V30 12 C 2.403384 -0.095667 -0.332257 0
M  V30 13 C 1.390015 -0.749639 -1.030426 0
M  V30 14 C 0.263522 -1.237709 -0.268899 0
M  V30 15 C 0.211674 -2.498992 0.287657 0
M  V30 16 C -0.926668 -2.813624 0.983668 0
M  V30 17 N -1.233745 -3.970008 1.591405 0
M  V30 18 N -2.434899 -3.855933 2.124040 0
M  V30 19 C -2.946584 -2.603691 1.874176 0
M  V30 20 C -4.262127 -2.321991 2.375922 0
M  V30 21 C -4.900088 -1.251067 2.928357 0
M  V30 22 C -6.206503 -1.105860 3.292556 0
M  V30 23 F -6.634114 0.053143 3.825672 0
M  V30 24 C -7.024514 -2.179439 3.086807 0
M  V30 25 C -6.570271 -3.346437 2.544631 0
M  V30 26 C -5.222972 -3.357375 2.219818 0
M  V30 27 Cl -4.679933 -4.900842 1.517447 0
M  V30 28 N -1.986838 -2.016857 1.174063 0
M  V30 29 N -1.970373 -0.809933 0.654289 0
M  V30 30 C -3.068025 0.120640 0.726039 0
M  V30 31 C -0.852301 -0.458506 -0.046130 0
M  V30 32 O -0.814561 0.695594 -0.551111 0
M  V30 33 H -0.614051 -1.533018 -2.603999 0
M  V30 34 H 0.347369 -1.293007 -4.160146 0
M  V30 35 H 0.584936 -2.726465 -3.147280 0
M  V30 36 H 2.574873 -0.604920 -4.204334 0
M  V30 37 H 4.372854 0.548698 -3.008699 0
M  V30 38 H 3.931367 1.025808 1.591588 0
M  V30 39 H 6.588163 2.333627 0.804110 0
M  V30 40 H 7.418238 1.795902 3.086157 0
M  V30 41 H 5.810721 1.147495 3.641482 0
M  V30 42 H 6.263503 3.959688 2.662051 0
M  V30 43 H 4.587043 3.216144 3.003121 0
M  V30 44 H 2.358230 0.046397 0.738659 0
M  V30 45 H 1.039442 -3.176663 0.163077 0
M  V30 46 H -4.262344 -0.420572 3.136856 0
M  V30 47 H -8.060342 -2.107909 3.358416 0
M  V30 48 H -7.212573 -4.187459 2.384738 0
M  V30 49 H -2.903293 0.834441 -0.145611 0
M  V30 50 H -3.037889 0.773320 1.608923 0
M  V30 51 H -4.045388 -0.353335 0.499442 0
M  V30 END ATOM
M  V30 BEGIN BOND
M  V30 1 1 1 2
M  V30 2 2 2 3
M  V30 3 1 3 4
M  V30 4 2 4 5
M  V30 5 1 5 6
M  V30 6 2 6 7
M  V30 7 1 6 8
M  V30 8 1 8 9
M  V30 9 1 9 10
M  V30 10 1 10 11
M  V30 11 1 5 12
M  V30 12 2 12 13
M  V30 13 1 13 14
M  V30 14 2 14 15
M  V30 15 1 15 16
M  V30 16 2 16 17
M  V30 17 1 17 18
M  V30 18 2 18 19
M  V30 19 1 19 20
M  V30 20 2 20 21
M  V30 21 1 21 22
M  V30 22 1 22 23
M  V30 23 2 22 24
M  V30 24 1 24 25
M  V30 25 2 25 26
M  V30 26 1 26 27
M  V30 27 1 19 28
M  V30 28 1 28 29
M  V30 29 1 29 30
M  V30 30 1 29 31
M  V30 31 2 31 32
M  V30 32 1 13 2
M  V30 33 1 31 14
M  V30 34 1 11 9
M  V30 35 1 28 16
M  V30 36 1 26 20
M  V30 37 1 1 33
M  V30 38 1 1 34
M  V30 39 1 1 35
M  V30 40 1 3 36
M  V30 41 1 4 37
M  V30 42 1 8 38
M  V30 43 1 9 39
M  V30 44 1 10 40
M  V30 45 1 10 41
M  V30 46 1 11 42
M  V30 47 1 11 43
M  V30 48 1 12 44
M  V30 49 1 15 45
M  V30 50 1 21 46
M  V30 51 1 24 47
M  V30 52 1 25 48
M  V30 53 1 30 49
M  V30 54 1 30 50
M  V30 55 1 30 51
M  V30 END BOND
M  V30 END CTAB
M  END
>  <Dataset>  (123) 
ChEMBL_Kinases

>  <Ligand_Instance>  (123) 
nan

>  <PDB_ID>  (123) 
nan

>  <Standardized_SMILES>  (123) 
Cc1ccc(C(=O)NC2CC2)cc1-c1cc2nnc(-c3cc(F)ccc3Cl)n2n(C)c1=O

>  <Name>  (123) 
nan

>  <Pocket>  (123) 
nan

>  <ATP_Site>  (123) 
nan

>  <Peripheral>  (123) 
nan

>  <Num_H_Atoms_ProtBoundConf>  (123) 
nan

>  <Num_Resolved_Atoms>  (123) 
nan

>  <Num_Not_Resolved_Atoms>  (123) 
nan

$$$$
CHEMBL1945717
     RDKit          3D

  0  0  0  0  0  0  0  0  0  0999 V3000
M  V30 BEGIN CTAB
M  V30 COUNTS 54 58 0 0 0
M  V30 BEGIN ATOM
M  V30 1 C 1.448438 0.226402 -2.523121 0
M  V30 2 C 2.062982 0.428305 -1.174715 0
M  V30 3 C 3.200624 1.202722 -1.065738 0
M  V30 4 C 3.805762 1.419756 0.153317 0
M  V30 5 C 3.292322 0.867931 1.309291 0
M  V30 6 C 3.821202 1.009417 2.662255 0
M  V30 7 O 3.328394 0.492732 3.690170 0
M  V30 8 N 4.998576 1.789572 2.908020 0
M  V30 9 C 5.563505 1.961561 4.229544 0
M  V30 10 C 6.058295 3.308003 4.667271 0
M  V30 11 C 7.003035 2.116791 4.442665 0
M  V30 12 C 2.154798 0.093664 1.199620 0
M  V30 13 C 1.542913 -0.130258 -0.006285 0
M  V30 14 C 0.341515 -0.929761 -0.229819 0
M  V30 15 C 0.431864 -2.296978 -0.504131 0
M  V30 16 C -0.720246 -3.029490 -0.711641 0
M  V30 17 N -0.995484 -4.331062 -0.990863 0
M  V30 18 N -2.326651 -4.439489 -1.080007 0
M  V30 19 C -2.911209 -3.240407 -0.864971 0
M  V30 20 C -4.363784 -3.198593 -0.928954 0
M  V30 21 C -5.179539 -3.409364 0.187300 0
M  V30 22 C -4.535667 -3.678877 1.498008 0
M  V30 23 C -6.555577 -3.387412 0.172127 0
M  V30 24 C -7.184006 -3.139739 -1.029642 0
M  V30 25 C -6.465504 -2.924385 -2.162279 0
M  V30 26 C -5.090367 -2.955682 -2.100110 0
M  V30 27 F -4.379432 -2.736277 -3.252067 0
M  V30 28 N -1.898791 -2.387194 -0.640060 0
M  V30 29 N -2.042115 -1.102501 -0.385298 0
M  V30 30 C -3.345315 -0.436072 -0.315800 0
M  V30 31 C -0.908057 -0.390531 -0.182881 0
M  V30 32 O -0.972902 0.830107 0.062784 0
M  V30 33 H 0.419905 -0.154907 -2.450514 0
M  V30 34 H 1.562489 1.153386 -3.117935 0
M  V30 35 H 2.043773 -0.561355 -3.056802 0
M  V30 36 H 3.665037 1.672513 -1.936377 0
M  V30 37 H 4.696303 2.017987 0.286386 0
M  V30 38 H 5.511693 2.276814 2.139399 0
M  V30 39 H 5.002061 1.434734 5.029622 0
M  V30 40 H 6.113852 4.134740 3.946129 0
M  V30 41 H 5.931109 3.638206 5.718528 0
M  V30 42 H 7.480371 1.697451 5.362479 0
M  V30 43 H 7.733809 2.226573 3.627646 0
M  V30 44 H 1.671858 -0.380713 2.021244 0
M  V30 45 H 1.388612 -2.784082 -0.555161 0
M  V30 46 H -4.993208 -4.635904 1.873404 0
M  V30 47 H -4.793269 -2.924408 2.260216 0
M  V30 48 H -3.450830 -3.878843 1.396795 0
M  V30 49 H -7.129112 -3.557701 1.068259 0
M  V30 50 H -8.264201 -3.111442 -1.097204 0
M  V30 51 H -6.943120 -2.729351 -3.109516 0
M  V30 52 H -3.984036 -0.816301 0.486770 0
M  V30 53 H -3.162892 0.674972 -0.194256 0
M  V30 54 H -3.788827 -0.518713 -1.324402 0
M  V30 END ATOM
M  V30 BEGIN BOND
M  V30 1 1 1 2
M  V30 2 2 2 3
M  V30 3 1 3 4
M  V30 4 2 4 5
M  V30 5 1 5 6
M  V30 6 2 6 7
M  V30 7 1 6 8
M  V30 8 1 8 9
M  V30 9 1 9 10
M  V30 10 1 10 11
M  V30 11 1 5 12
M  V30 12 2 12 13
M  V30 13 1 13 14
M  V30 14 2 14 15
M  V30 15 1 15 16
M  V30 16 2 16 17
M  V30 17 1 17 18
M  V30 18 2 18 19
M  V30 19 1 19 20
M  V30 20 2 20 21
M  V30 21 1 21 22
M  V30 22 1 21 23
M  V30 23 2 23 24
M  V30 24 1 24 25
M  V30 25 2 25 26
M  V30 26 1 26 27
M  V30 27 1 19 28
M  V30 28 1 28 29
M  V30 29 1 29 30
M  V30 30 1 29 31
M  V30 31 2 31 32
M  V30 32 1 13 2
M  V30 33 1 31 14
M  V30 34 1 11 9
M  V30 35 1 28 16
M  V30 36 1 26 20
M  V30 37 1 1 33
M  V30 38 1 1 34
M  V30 39 1 1 35
M  V30 40 1 3 36
M  V30 41 1 4 37
M  V30 42 1 8 38
M  V30 43 1 9 39
M  V30 44 1 10 40
M  V30 45 1 10 41
M  V30 46 1 11 42
M  V30 47 1 11 43
M  V30 48 1 12 44
M  V30 49 1 15 45
M  V30 50 1 22 46
M  V30 51 1 22 47
M  V30 52 1 22 48
M  V30 53 1 23 49
M  V30 54 1 24 50
M  V30 55 1 25 51
M  V30 56 1 30 52
M  V30 57 1 30 53
M  V30 58 1 30 54
M  V30 END BOND
M  V30 END CTAB
M  END
>  <Dataset>  (124) 
ChEMBL_Kinases

>  <Ligand_Instance>  (124) 
nan

>  <PDB_ID>  (124) 
nan

>  <Standardized_SMILES>  (124) 
Cc1ccc(C(=O)NC2CC2)cc1-c1cc2nnc(-c3c(C)cccc3F)n2n(C)c1=O

>  <Name>  (124) 
nan

>  <Pocket>  (124) 
nan

>  <ATP_Site>  (124) 
nan

>  <Peripheral>  (124) 
nan

>  <Num_H_Atoms_ProtBoundConf>  (124) 
nan

>  <Num_Resolved_Atoms>  (124) 
nan

>  <Num_Not_Resolved_Atoms>  (124) 
nan

$$$$
CHEMBL1945716
     RDKit          3D

  0  0  0  0  0  0  0  0  0  0999 V3000
M  V30 BEGIN CTAB
M  V30 COUNTS 51 55 0 0 0
M  V30 BEGIN ATOM
M  V30 1 C 1.340911 -3.199646 -0.973765 0
M  V30 2 C 2.056904 -2.002225 -0.486295 0
M  V30 3 C 3.377855 -1.807450 -0.850138 0
M  V30 4 C 4.018751 -0.693151 -0.387104 0
M  V30 5 C 3.415859 0.245850 0.423609 0
M  V30 6 C 4.060829 1.452100 0.942954 0
M  V30 7 O 3.465808 2.269112 1.673390 0
M  V30 8 N 5.403122 1.779301 0.655459 0
M  V30 9 C 6.105340 2.943311 1.127356 0
M  V30 10 C 7.182474 3.587639 0.390472 0
M  V30 11 C 7.513998 2.790362 1.661239 0
M  V30 12 C 2.098350 0.011899 0.761624 0
M  V30 13 C 1.380173 -1.105943 0.324801 0
M  V30 14 C -0.006192 -1.344949 0.684864 0
M  V30 15 C -0.248641 -2.071536 1.833588 0
M  V30 16 C -1.571876 -2.290296 2.162543 0
M  V30 17 N -2.145296 -2.953405 3.206267 0
M  V30 18 N -3.476456 -2.865892 3.049614 0
M  V30 19 C -3.704615 -2.149217 1.910099 0
M  V30 20 C -5.112120 -1.957299 1.586537 0
M  V30 21 C -5.911749 -0.894889 2.003052 0
M  V30 22 F -5.278050 0.034690 2.781335 0
M  V30 23 C -7.227849 -0.776534 1.668595 0
M  V30 24 C -7.847266 -1.716836 0.887996 0
M  V30 25 C -7.133730 -2.791517 0.437053 0
M  V30 26 C -5.805172 -2.879949 0.794134 0
M  V30 27 Cl -4.911674 -4.279422 0.195739 0
M  V30 28 N -2.529895 -1.792620 1.360501 0
M  V30 29 N -2.363028 -1.097847 0.261226 0
M  V30 30 C -3.478146 -0.607305 -0.530900 0
M  V30 31 C -1.061129 -0.877340 -0.070775 0
M  V30 32 O -0.810018 -0.218811 -1.111436 0
M  V30 33 H 0.601672 -3.612661 -0.283645 0
M  V30 34 H 2.048429 -4.023137 -1.231505 0
M  V30 35 H 0.900562 -2.905529 -1.962912 0
M  V30 36 H 3.877289 -2.528247 -1.485933 0
M  V30 37 H 5.052390 -0.521259 -0.659620 0
M  V30 38 H 5.983299 1.152656 0.049800 0
M  V30 39 H 5.489720 3.614842 1.772829 0
M  V30 40 H 7.321921 4.696621 0.466839 0
M  V30 41 H 7.677157 3.171126 -0.498265 0
M  V30 42 H 7.842127 3.375312 2.547316 0
M  V30 43 H 7.915024 1.765492 1.555874 0
M  V30 44 H 1.589914 0.739128 1.404784 0
M  V30 45 H 0.549179 -2.456542 2.454838 0
M  V30 46 H -7.791919 0.072412 2.024749 0
M  V30 47 H -8.880236 -1.583685 0.650620 0
M  V30 48 H -7.583488 -3.551146 -0.177885 0
M  V30 49 H -3.007377 -0.009273 -1.351496 0
M  V30 50 H -4.051248 0.138559 0.058351 0
M  V30 51 H -4.084186 -1.401563 -0.983711 0
M  V30 END ATOM
M  V30 BEGIN BOND
M  V30 1 1 1 2
M  V30 2 2 2 3
M  V30 3 1 3 4
M  V30 4 2 4 5
M  V30 5 1 5 6
M  V30 6 2 6 7
M  V30 7 1 6 8
M  V30 8 1 8 9
M  V30 9 1 9 10
M  V30 10 1 10 11
M  V30 11 1 5 12
M  V30 12 2 12 13
M  V30 13 1 13 14
M  V30 14 2 14 15
M  V30 15 1 15 16
M  V30 16 2 16 17
M  V30 17 1 17 18
M  V30 18 2 18 19
M  V30 19 1 19 20
M  V30 20 2 20 21
M  V30 21 1 21 22
M  V30 22 1 21 23
M  V30 23 2 23 24
M  V30 24 1 24 25
M  V30 25 2 25 26
M  V30 26 1 26 27
M  V30 27 1 19 28
M  V30 28 1 28 29
M  V30 29 1 29 30
M  V30 30 1 29 31
M  V30 31 2 31 32
M  V30 32 1 13 2
M  V30 33 1 31 14
M  V30 34 1 11 9
M  V30 35 1 28 16
M  V30 36 1 26 20
M  V30 37 1 1 33
M  V30 38 1 1 34
M  V30 39 1 1 35
M  V30 40 1 3 36
M  V30 41 1 4 37
M  V30 42 1 8 38
M  V30 43 1 9 39
M  V30 44 1 10 40
M  V30 45 1 10 41
M  V30 46 1 11 42
M  V30 47 1 11 43
M  V30 48 1 12 44
M  V30 49 1 15 45
M  V30 50 1 23 46
M  V30 51 1 24 47
M  V30 52 1 25 48
M  V30 53 1 30 49
M  V30 54 1 30 50
M  V30 55 1 30 51
M  V30 END BOND
M  V30 END CTAB
M  END
>  <Dataset>  (125) 
ChEMBL_Kinases

>  <Ligand_Instance>  (125) 
nan

>  <PDB_ID>  (125) 
nan

>  <Standardized_SMILES>  (125) 
Cc1ccc(C(=O)NC2CC2)cc1-c1cc2nnc(-c3c(F)cccc3Cl)n2n(C)c1=O

>  <Name>  (125) 
nan

>  <Pocket>  (125) 
nan

>  <ATP_Site>  (125) 
nan

>  <Peripheral>  (125) 
nan

>  <Num_H_Atoms_ProtBoundConf>  (125) 
nan

>  <Num_Resolved_Atoms>  (125) 
nan

>  <Num_Not_Resolved_Atoms>  (125) 
nan

$$$$
CHEMBL1945715
     RDKit          3D

  0  0  0  0  0  0  0  0  0  0999 V3000
M  V30 BEGIN CTAB
M  V30 COUNTS 51 55 0 0 0
M  V30 BEGIN ATOM
M  V30 1 C 0.568938 -1.970923 -3.040221 0
M  V30 2 C 1.571058 -1.196658 -2.292793 0
M  V30 3 C 2.701382 -0.756343 -2.965702 0
M  V30 4 C 3.639403 -0.030210 -2.261179 0
M  V30 5 C 3.524766 0.287482 -0.924304 0
M  V30 6 C 4.591863 1.063987 -0.296656 0
M  V30 7 O 5.561606 1.399822 -1.018530 0
M  V30 8 N 4.569622 1.440023 1.060717 0
M  V30 9 C 5.649239 2.207536 1.632380 0
M  V30 10 C 6.100301 2.058608 3.023540 0
M  V30 11 C 5.339830 3.331147 2.596697 0
M  V30 12 C 2.405939 -0.151491 -0.269203 0
M  V30 13 C 1.440292 -0.883618 -0.940600 0
M  V30 14 C 0.263868 -1.334883 -0.216155 0
M  V30 15 C 0.277125 -2.562506 0.414084 0
M  V30 16 C -0.872138 -2.930990 1.084103 0
M  V30 17 N -1.210839 -4.042050 1.800617 0
M  V30 18 N -2.454907 -3.889744 2.240377 0
M  V30 19 C -2.921221 -2.682528 1.809663 0
M  V30 20 C -4.283400 -2.355778 2.207890 0
M  V30 21 C -4.642923 -1.680175 3.379899 0
M  V30 22 F -3.628131 -1.299073 4.194534 0
M  V30 23 C -5.956338 -1.410727 3.699835 0
M  V30 24 C -6.981731 -1.799061 2.870866 0
M  V30 25 C -6.702572 -2.459732 1.715650 0
M  V30 26 C -5.398910 -2.705489 1.437170 0
M  V30 27 F -5.110342 -3.370079 0.276035 0
M  V30 28 N -1.934387 -2.105325 1.099429 0
M  V30 29 N -2.000914 -0.924416 0.515635 0
M  V30 30 C -3.184306 -0.080137 0.572712 0
M  V30 31 C -0.877099 -0.563554 -0.139861 0
M  V30 32 O -0.840935 0.548075 -0.730658 0
M  V30 33 H -0.426066 -2.002380 -2.568053 0
M  V30 34 H 0.904900 -3.043898 -3.121347 0
M  V30 35 H 0.522173 -1.606306 -4.097686 0
M  V30 36 H 2.821977 -0.991721 -4.026094 0
M  V30 37 H 4.503841 0.280650 -2.866281 0
M  V30 38 H 3.769460 1.168700 1.676488 0
M  V30 39 H 6.452404 2.444009 0.889090 0
M  V30 40 H 7.180650 2.162768 3.255301 0
M  V30 41 H 5.553768 1.488488 3.783774 0
M  V30 42 H 5.959401 4.244049 2.610121 0
M  V30 43 H 4.276969 3.422510 2.882230 0
M  V30 44 H 2.288011 0.082459 0.780999 0
M  V30 45 H 1.149529 -3.201558 0.381284 0
M  V30 46 H -6.154342 -0.878577 4.633720 0
M  V30 47 H -7.993604 -1.571606 3.153104 0
M  V30 48 H -7.475376 -2.785499 1.031237 0
M  V30 49 H -2.893474 0.869214 0.052140 0
M  V30 50 H -3.344605 0.194363 1.638187 0
M  V30 51 H -4.052054 -0.553562 0.100477 0
M  V30 END ATOM
M  V30 BEGIN BOND
M  V30 1 1 1 2
M  V30 2 2 2 3
M  V30 3 1 3 4
M  V30 4 2 4 5
M  V30 5 1 5 6
M  V30 6 2 6 7
M  V30 7 1 6 8
M  V30 8 1 8 9
M  V30 9 1 9 10
M  V30 10 1 10 11
M  V30 11 1 5 12
M  V30 12 2 12 13
M  V30 13 1 13 14
M  V30 14 2 14 15
M  V30 15 1 15 16
M  V30 16 2 16 17
M  V30 17 1 17 18
M  V30 18 2 18 19
M  V30 19 1 19 20
M  V30 20 2 20 21
M  V30 21 1 21 22
M  V30 22 1 21 23
M  V30 23 2 23 24
M  V30 24 1 24 25
M  V30 25 2 25 26
M  V30 26 1 26 27
M  V30 27 1 19 28
M  V30 28 1 28 29
M  V30 29 1 29 30
M  V30 30 1 29 31
M  V30 31 2 31 32
M  V30 32 1 13 2
M  V30 33 1 31 14
M  V30 34 1 11 9
M  V30 35 1 28 16
M  V30 36 1 26 20
M  V30 37 1 1 33
M  V30 38 1 1 34
M  V30 39 1 1 35
M  V30 40 1 3 36
M  V30 41 1 4 37
M  V30 42 1 8 38
M  V30 43 1 9 39
M  V30 44 1 10 40
M  V30 45 1 10 41
M  V30 46 1 11 42
M  V30 47 1 11 43
M  V30 48 1 12 44
M  V30 49 1 15 45
M  V30 50 1 23 46
M  V30 51 1 24 47
M  V30 52 1 25 48
M  V30 53 1 30 49
M  V30 54 1 30 50
M  V30 55 1 30 51
M  V30 END BOND
M  V30 END CTAB
M  END
>  <Dataset>  (126) 
ChEMBL_Kinases

>  <Ligand_Instance>  (126) 
nan

>  <PDB_ID>  (126) 
nan

>  <Standardized_SMILES>  (126) 
Cc1ccc(C(=O)NC2CC2)cc1-c1cc2nnc(-c3c(F)cccc3F)n2n(C)c1=O

>  <Name>  (126) 
nan

>  <Pocket>  (126) 
nan

>  <ATP_Site>  (126) 
nan

>  <Peripheral>  (126) 
nan

>  <Num_H_Atoms_ProtBoundConf>  (126) 
nan

>  <Num_Resolved_Atoms>  (126) 
nan

>  <Num_Not_Resolved_Atoms>  (126) 
nan

$$$$
CHEMBL1945559
     RDKit          3D

  0  0  0  0  0  0  0  0  0  0999 V3000
M  V30 BEGIN CTAB
M  V30 COUNTS 40 43 0 0 0
M  V30 BEGIN ATOM
M  V30 1 C 0.769845 -4.268360 1.607182 0
M  V30 2 N 1.076496 -2.868932 1.381511 0
M  V30 3 C 0.245575 -1.818436 1.505666 0
M  V30 4 C 0.871817 -0.625374 1.212554 0
M  V30 5 C 2.180398 -0.999522 0.888262 0
M  V30 6 C 3.270360 -0.241910 0.510611 0
M  V30 7 C 4.485045 -0.820002 0.232752 0
M  V30 8 C 4.614192 -2.187066 0.334470 0
M  V30 9 Cl 6.147053 -2.955138 -0.012308 0
M  V30 10 C 3.513306 -2.925915 0.713256 0
M  V30 11 Cl 3.717705 -4.661233 0.830941 0
M  V30 12 C 2.274648 -2.391351 1.002129 0
M  V30 13 C 0.264688 0.708432 1.247247 0
M  V30 14 C 0.417293 1.230591 2.615832 0
M  V30 15 N 0.550178 1.639274 3.690486 0
M  V30 16 C -1.218271 0.603965 0.986512 0
M  V30 17 C -1.860278 1.954551 1.190821 0
M  V30 18 C -2.647020 2.404051 -0.015878 0
M  V30 19 N -1.867331 2.406682 -1.233166 0
M  V30 20 C -1.182041 1.150368 -1.456723 0
M  V30 21 C -1.528116 0.123227 -0.402881 0
M  V30 22 N -1.741416 -0.386600 1.909283 0
M  V30 23 C -1.159431 -1.684735 1.879830 0
M  V30 24 O -1.832562 -2.719263 2.170125 0
M  V30 25 H -0.214653 -4.399557 2.083324 0
M  V30 26 H 0.710572 -4.781830 0.610269 0
M  V30 27 H 1.565382 -4.774600 2.191278 0
M  V30 28 H 3.183071 0.843292 0.425666 0
M  V30 29 H 5.313115 -0.180122 -0.060606 0
M  V30 30 H 0.769616 1.394308 0.540316 0
M  V30 31 H -2.574451 1.971067 2.042494 0
M  V30 32 H -1.092780 2.727639 1.418791 0
M  V30 33 H -2.964150 3.450773 0.178605 0
M  V30 34 H -3.598137 1.816142 -0.112932 0
M  V30 35 H -2.559959 2.520730 -2.016603 0
M  V30 36 H -0.071987 1.272653 -1.418221 0
M  V30 37 H -1.434469 0.702493 -2.440377 0
M  V30 38 H -2.632896 -0.062065 -0.436180 0
M  V30 39 H -1.044220 -0.816377 -0.673778 0
M  V30 40 H -2.512710 -0.200295 2.585270 0
M  V30 END ATOM
M  V30 BEGIN BOND
M  V30 1 1 1 2
M  V30 2 1 2 3
M  V30 3 2 3 4
M  V30 4 1 4 5
M  V30 5 2 5 6
M  V30 6 1 6 7
M  V30 7 2 7 8
M  V30 8 1 8 9
M  V30 9 1 8 10
M  V30 10 1 10 11
M  V30 11 2 10 12
M  V30 12 1 4 13
M  V30 13 1 13 14
M  V30 14 3 14 15
M  V30 15 1 13 16
M  V30 16 1 16 17
M  V30 17 1 17 18
M  V30 18 1 18 19
M  V30 19 1 19 20
M  V30 20 1 20 21
M  V30 21 1 16 22
M  V30 22 1 22 23
M  V30 23 2 23 24
M  V30 24 1 12 2
M  V30 25 1 21 16
M  V30 26 1 23 3
M  V30 27 1 12 5
M  V30 28 1 1 25
M  V30 29 1 1 26
M  V30 30 1 1 27
M  V30 31 1 6 28
M  V30 32 1 7 29
M  V30 33 1 13 30
M  V30 34 1 17 31
M  V30 35 1 17 32
M  V30 36 1 18 33
M  V30 37 1 18 34
M  V30 38 1 19 35
M  V30 39 1 20 36
M  V30 40 1 20 37
M  V30 41 1 21 38
M  V30 42 1 21 39
M  V30 43 1 22 40
M  V30 END BOND
M  V30 END CTAB
M  END
>  <Dataset>  (127) 
ChEMBL_Kinases

>  <Ligand_Instance>  (127) 
nan

>  <PDB_ID>  (127) 
nan

>  <Standardized_SMILES>  (127) 
Cn1c2c(c3ccc(Cl)c(Cl)c31)C(C#N)C1(CCNCC1)NC2=O

>  <Name>  (127) 
nan

>  <Pocket>  (127) 
nan

>  <ATP_Site>  (127) 
nan

>  <Peripheral>  (127) 
nan

>  <Num_H_Atoms_ProtBoundConf>  (127) 
nan

>  <Num_Resolved_Atoms>  (127) 
nan

>  <Num_Not_Resolved_Atoms>  (127) 
nan

$$$$
CHEMBL1945502
     RDKit          3D

  0  0  0  0  0  0  0  0  0  0999 V3000
M  V30 BEGIN CTAB
M  V30 COUNTS 58 61 0 0 0
M  V30 BEGIN ATOM
M  V30 1 C 0.424998 -4.988013 4.181589 0
M  V30 2 O 0.281292 -4.696245 2.829848 0
M  V30 3 C 0.921497 -3.775645 2.067725 0
M  V30 4 C 1.901608 -2.905762 2.569411 0
M  V30 5 C 2.565120 -1.947866 1.790778 0
M  V30 6 C 2.191047 -1.899141 0.442695 0
M  V30 7 N 2.958258 -0.857259 -0.212780 0
M  V30 8 C 1.970794 0.069736 -0.673784 0
M  V30 9 N 1.320076 0.312531 -1.837907 0
M  V30 10 C 0.409379 1.311494 -1.915434 0
M  V30 11 C 0.082247 2.131794 -0.854444 0
M  V30 12 C 0.750761 1.873124 0.326546 0
M  V30 13 N 1.671778 0.863182 0.403771 0
M  V30 14 C 0.607176 2.559482 1.632338 0
M  V30 15 C 1.737366 2.427102 2.408783 0
M  V30 16 C 1.700700 3.023533 3.666111 0
M  V30 17 C 0.596275 3.705177 4.103576 0
M  V30 18 Cl 0.629281 4.427449 5.716292 0
M  V30 19 C -0.551276 3.842760 3.320169 0
M  V30 20 C -0.520332 3.253290 2.072469 0
M  V30 21 N -1.760790 3.471314 1.367832 0
M  V30 22 C -1.937968 3.253886 -0.047875 0
M  V30 23 S -3.527493 3.097338 -0.462037 0
M  V30 24 C -0.919645 3.162805 -1.125089 0
M  V30 25 C 1.236180 -2.730105 -0.105979 0
M  V30 26 C 0.635312 -3.638404 0.727461 0
M  V30 27 C -0.385137 -4.561796 0.188576 0
M  V30 28 C -0.975035 -4.154368 -1.119195 0
M  V30 29 C -1.706186 -2.863588 -1.151761 0
M  V30 30 N -2.222460 -2.516575 -2.454060 0
M  V30 31 C -2.871663 -1.252086 -2.492291 0
M  V30 32 C -1.363880 -2.794342 -3.554216 0
M  V30 33 H -0.537559 -4.846497 4.762506 0
M  V30 34 H 0.637795 -6.072661 4.264774 0
M  V30 35 H 1.268969 -4.463015 4.681138 0
M  V30 36 H 2.175364 -2.963133 3.633060 0
M  V30 37 H 3.306676 -1.328755 2.286466 0
M  V30 38 H 3.996630 -0.804097 -0.329010 0
M  V30 39 H -0.069114 1.448955 -2.868496 0
M  V30 40 H 2.559021 1.870856 1.979993 0
M  V30 41 H 2.598297 2.915604 4.273362 0
M  V30 42 H -1.416775 4.385323 3.685399 0
M  V30 43 H -2.576912 3.812465 1.951911 0
M  V30 44 H -0.458442 4.173655 -1.210453 0
M  V30 45 H -1.447729 2.929082 -2.064028 0
M  V30 46 H 1.070484 -2.588057 -1.159532 0
M  V30 47 H -1.248158 -4.666680 0.906251 0
M  V30 48 H 0.118732 -5.564795 0.058343 0
M  V30 49 H -1.658663 -4.950432 -1.529591 0
M  V30 50 H -0.107638 -4.156896 -1.851996 0
M  V30 51 H -1.116148 -2.043482 -0.734735 0
M  V30 52 H -2.634192 -2.946716 -0.491009 0
M  V30 53 H -3.960186 -1.359908 -2.294229 0
M  V30 54 H -2.666828 -0.768526 -3.456644 0
M  V30 55 H -2.460430 -0.623354 -1.671628 0
M  V30 56 H -1.791718 -2.328529 -4.471972 0
M  V30 57 H -1.350029 -3.898592 -3.810788 0
M  V30 58 H -0.336118 -2.404465 -3.460946 0
M  V30 END ATOM
M  V30 BEGIN BOND
M  V30 1 1 1 2
M  V30 2 1 2 3
M  V30 3 2 3 4
M  V30 4 1 4 5
M  V30 5 2 5 6
M  V30 6 1 6 7
M  V30 7 1 7 8
M  V30 8 2 8 9
M  V30 9 1 9 10
M  V30 10 2 10 11
M  V30 11 1 11 12
M  V30 12 2 12 13
M  V30 13 1 12 14
M  V30 14 2 14 15
M  V30 15 1 15 16
M  V30 16 2 16 17
M  V30 17 1 17 18
M  V30 18 1 17 19
M  V30 19 2 19 20
M  V30 20 1 20 21
M  V30 21 1 21 22
M  V30 22 2 22 23
M  V30 23 1 22 24
M  V30 24 1 6 25
M  V30 25 2 25 26
M  V30 26 1 26 27
M  V30 27 1 27 28
M  V30 28 1 28 29
M  V30 29 1 29 30
M  V30 30 1 30 31
M  V30 31 1 30 32
M  V30 32 1 26 3
M  V30 33 1 13 8
M  V30 34 1 20 14
M  V30 35 1 24 11
M  V30 36 1 1 33
M  V30 37 1 1 34
M  V30 38 1 1 35
M  V30 39 1 4 36
M  V30 40 1 5 37
M  V30 41 1 7 38
M  V30 42 1 10 39
M  V30 43 1 15 40
M  V30 44 1 16 41
M  V30 45 1 19 42
M  V30 46 1 21 43
M  V30 47 1 24 44
M  V30 48 1 24 45
M  V30 49 1 25 46
M  V30 50 1 27 47
M  V30 51 1 27 48
M  V30 52 1 28 49
M  V30 53 1 28 50
M  V30 54 1 29 51
M  V30 55 1 29 52
M  V30 56 1 31 53
M  V30 57 1 31 54
M  V30 58 1 31 55
M  V30 59 1 32 56
M  V30 60 1 32 57
M  V30 61 1 32 58
M  V30 END BOND
M  V30 END CTAB
M  END
>  <Dataset>  (128) 
ChEMBL_Kinases

>  <Ligand_Instance>  (128) 
nan

>  <PDB_ID>  (128) 
nan

>  <Standardized_SMILES>  (128) 
COc1ccc(Nc2ncc3c(n2)-c2ccc(Cl)cc2NC(=S)C3)cc1CCCN(C)C

>  <Name>  (128) 
nan

>  <Pocket>  (128) 
nan

>  <ATP_Site>  (128) 
nan

>  <Peripheral>  (128) 
nan

>  <Num_H_Atoms_ProtBoundConf>  (128) 
nan

>  <Num_Resolved_Atoms>  (128) 
nan

>  <Num_Not_Resolved_Atoms>  (128) 
nan

$$$$
CHEMBL1952121
     RDKit          3D

  0  0  0  0  0  0  0  0  0  0999 V3000
M  V30 BEGIN CTAB
M  V30 COUNTS 44 47 0 0 0
M  V30 BEGIN ATOM
M  V30 1 F 4.475207 -3.013870 1.721780 0
M  V30 2 C 4.825220 -2.663078 0.442868 0
M  V30 3 F 5.890248 -3.377683 -0.047540 0
M  V30 4 F 3.725786 -2.924330 -0.366081 0
M  V30 5 O 5.104454 -1.269420 0.389950 0
M  V30 6 C 4.106297 -0.363209 0.734589 0
M  V30 7 C 3.919047 0.100746 2.030161 0
M  V30 8 C 2.921633 0.998876 2.343511 0
M  V30 9 C 2.099237 1.434101 1.323394 0
M  V30 10 C 2.284628 0.971469 0.026933 0
M  V30 11 N 1.439968 1.413187 -1.043038 0
M  V30 12 N 1.832931 2.190689 -2.057120 0
M  V30 13 N 0.777817 2.397502 -2.863102 0
M  V30 14 C -0.283862 1.734778 -2.334774 0
M  V30 15 C -1.600324 1.595616 -2.729478 0
M  V30 16 C -2.422003 0.827916 -1.928692 0
M  V30 17 C -2.009957 0.200231 -0.772777 0
M  V30 18 N -2.897910 -0.588209 0.029263 0
M  V30 19 C -2.423826 -1.227410 1.231548 0
M  V30 20 C -1.894882 -0.216689 2.231961 0
M  V30 21 C -1.810234 -0.909789 3.592204 0
M  V30 22 N -1.634863 -2.311857 3.347621 0
M  V30 23 C -0.644160 -2.518741 2.303807 0
M  V30 24 C -1.323281 -2.236976 0.979315 0
M  V30 25 N -0.718546 0.371129 -0.438471 0
M  V30 26 C 0.117070 1.097848 -1.169780 0
M  V30 27 C 3.287271 0.067841 -0.291348 0
M  V30 28 H 4.587631 -0.265716 2.806522 0
M  V30 29 H 2.755900 1.375152 3.346290 0
M  V30 30 H 1.284580 2.151791 1.512832 0
M  V30 31 H -1.978558 2.069115 -3.632618 0
M  V30 32 H -3.443559 0.740191 -2.266147 0
M  V30 33 H -3.884895 -0.668267 -0.303963 0
M  V30 34 H -3.300245 -1.726695 1.706515 0
M  V30 35 H -2.553699 0.675916 2.290848 0
M  V30 36 H -0.886950 0.089637 1.918675 0
M  V30 37 H -0.936402 -0.472235 4.121119 0
M  V30 38 H -2.777873 -0.724501 4.109428 0
M  V30 39 H -1.490823 -2.886923 4.187461 0
M  V30 40 H 0.221139 -1.844454 2.478765 0
M  V30 41 H -0.276502 -3.585794 2.329212 0
M  V30 42 H -1.854600 -3.182340 0.695825 0
M  V30 43 H -0.620891 -1.916905 0.209213 0
M  V30 44 H 3.410667 -0.279457 -1.319091 0
M  V30 END ATOM
M  V30 BEGIN BOND
M  V30 1 1 1 2
M  V30 2 1 2 3
M  V30 3 1 2 4
M  V30 4 1 2 5
M  V30 5 1 5 6
M  V30 6 2 6 7
M  V30 7 1 7 8
M  V30 8 2 8 9
M  V30 9 1 9 10
M  V30 10 1 10 11
M  V30 11 1 11 12
M  V30 12 2 12 13
M  V30 13 1 13 14
M  V30 14 2 14 15
M  V30 15 1 15 16
M  V30 16 2 16 17
M  V30 17 1 17 18
M  V30 18 1 18 19
M  V30 19 1 19 20
M  V30 20 1 20 21
M  V30 21 1 21 22
M  V30 22 1 22 23
M  V30 23 1 23 24
M  V30 24 1 17 25
M  V30 25 2 25 26
M  V30 26 2 10 27
M  V30 27 1 27 6
M  V30 28 1 26 11
M  V30 29 1 26 14
M  V30 30 1 24 19
M  V30 31 1 7 28
M  V30 32 1 8 29
M  V30 33 1 9 30
M  V30 34 1 15 31
M  V30 35 1 16 32
M  V30 36 1 18 33
M  V30 37 1 19 34
M  V30 38 1 20 35
M  V30 39 1 20 36
M  V30 40 1 21 37
M  V30 41 1 21 38
M  V30 42 1 22 39
M  V30 43 1 23 40
M  V30 44 1 23 41
M  V30 45 1 24 42
M  V30 46 1 24 43
M  V30 47 1 27 44
M  V30 END BOND
M  V30 END CTAB
M  END
>  <Dataset>  (129) 
ChEMBL_Kinases

>  <Ligand_Instance>  (129) 
nan

>  <PDB_ID>  (129) 
nan

>  <Standardized_SMILES>  (129) 
FC(F)(F)Oc1cccc(-n2nnc3ccc(NC4CCNCC4)nc32)c1

>  <Name>  (129) 
nan

>  <Pocket>  (129) 
nan

>  <ATP_Site>  (129) 
nan

>  <Peripheral>  (129) 
nan

>  <Num_H_Atoms_ProtBoundConf>  (129) 
nan

>  <Num_Resolved_Atoms>  (129) 
nan

>  <Num_Not_Resolved_Atoms>  (129) 
nan

$$$$
CHEMBL1945027
     RDKit          3D

  0  0  0  0  0  0  0  0  0  0999 V3000
M  V30 BEGIN CTAB
M  V30 COUNTS 54 57 0 0 0
M  V30 BEGIN ATOM
M  V30 1 C 3.736927 -0.384368 1.842871 0
M  V30 2 C 4.769084 -0.513859 0.745546 0
M  V30 3 N 5.026220 0.787877 0.152769 0
M  V30 4 C 5.066966 1.863316 1.092414 0
M  V30 5 C 6.120357 2.908629 0.796417 0
M  V30 6 S 3.923480 1.091891 -1.157200 0
M  V30 7 O 4.132694 0.150896 -2.289697 0
M  V30 8 O 4.274883 2.492190 -1.645525 0
M  V30 9 C 2.260827 1.111521 -0.585346 0
M  V30 10 C 1.682755 2.327923 -0.255945 0
M  V30 11 C 0.411819 2.486433 0.193985 0
M  V30 12 C -0.380717 1.364466 0.341839 0
M  V30 13 N -1.754228 1.407246 0.788528 0
M  V30 14 C -2.417904 0.180835 1.057324 0
M  V30 15 N -2.484917 -0.019248 2.406791 0
M  V30 16 C -3.051849 -1.103673 2.962173 0
M  V30 17 C -3.609107 -2.094525 2.178113 0
M  V30 18 C -3.529527 -1.872352 0.818776 0
M  V30 19 N -2.950949 -0.765329 0.259707 0
M  V30 20 C -3.988974 -2.700119 -0.307667 0
M  V30 21 C -4.147059 -2.054125 -1.502103 0
M  V30 22 C -4.572819 -2.795091 -2.595265 0
M  V30 23 C -4.823968 -4.143435 -2.459664 0
M  V30 24 Cl -5.357737 -5.071592 -3.835598 0
M  V30 25 C -4.669916 -4.823822 -1.252069 0
M  V30 26 C -4.245233 -4.071299 -0.173515 0
M  V30 27 N -4.141589 -4.933446 0.977301 0
M  V30 28 C -3.893532 -4.557727 2.341482 0
M  V30 29 O -3.378716 -5.455098 3.051897 0
M  V30 30 C -4.201229 -3.223938 2.924280 0
M  V30 31 C 0.195608 0.131301 0.012297 0
M  V30 32 C 1.476723 -0.016796 -0.440352 0
M  V30 33 H 2.959873 -1.190136 1.794489 0
M  V30 34 H 3.310695 0.638698 1.804854 0
M  V30 35 H 4.209615 -0.507308 2.860805 0
M  V30 36 H 4.346893 -1.210316 -0.018885 0
M  V30 37 H 5.686942 -0.959658 1.193001 0
M  V30 38 H 4.067401 2.378222 1.040201 0
M  V30 39 H 5.179838 1.469450 2.127980 0
M  V30 40 H 6.344376 3.002292 -0.279415 0
M  V30 41 H 6.996477 2.657865 1.420026 0
M  V30 42 H 5.743391 3.885159 1.136436 0
M  V30 43 H 2.297944 3.227382 -0.366965 0
M  V30 44 H -0.017208 3.461428 0.445308 0
M  V30 45 H -2.142952 2.386632 0.875464 0
M  V30 46 H -3.102016 -1.256377 4.038688 0
M  V30 47 H -3.930529 -0.999595 -1.526590 0
M  V30 48 H -4.690540 -2.269284 -3.524008 0
M  V30 49 H -4.878057 -5.886089 -1.186601 0
M  V30 50 H -4.262974 -5.965276 0.785466 0
M  V30 51 H -5.313097 -3.144285 2.909983 0
M  V30 52 H -3.869014 -3.230417 3.993792 0
M  V30 53 H -0.437677 -0.742981 0.133271 0
M  V30 54 H 1.913201 -0.973541 -0.693163 0
M  V30 END ATOM
M  V30 BEGIN BOND
M  V30 1 1 1 2
M  V30 2 1 2 3
M  V30 3 1 3 4
M  V30 4 1 4 5
M  V30 5 1 3 6
M  V30 6 2 6 7
M  V30 7 2 6 8
M  V30 8 1 6 9
M  V30 9 2 9 10
M  V30 10 1 10 11
M  V30 11 2 11 12
M  V30 12 1 12 13
M  V30 13 1 13 14
M  V30 14 2 14 15
M  V30 15 1 15 16
M  V30 16 2 16 17
M  V30 17 1 17 18
M  V30 18 2 18 19
M  V30 19 1 18 20
M  V30 20 2 20 21
M  V30 21 1 21 22
M  V30 22 2 22 23
M  V30 23 1 23 24
M  V30 24 1 23 25
M  V30 25 2 25 26
M  V30 26 1 26 27
M  V30 27 1 27 28
M  V30 28 2 28 29
M  V30 29 1 28 30
M  V30 30 1 12 31
M  V30 31 2 31 32
M  V30 32 1 32 9
M  V30 33 1 19 14
M  V30 34 1 26 20
M  V30 35 1 30 17
M  V30 36 1 1 33
M  V30 37 1 1 34
M  V30 38 1 1 35
M  V30 39 1 2 36
M  V30 40 1 2 37
M  V30 41 1 4 38
M  V30 42 1 4 39
M  V30 43 1 5 40
M  V30 44 1 5 41
M  V30 45 1 5 42
M  V30 46 1 10 43
M  V30 47 1 11 44
M  V30 48 1 13 45
M  V30 49 1 16 46
M  V30 50 1 21 47
M  V30 51 1 22 48
M  V30 52 1 25 49
M  V30 53 1 27 50
M  V30 54 1 30 51
M  V30 55 1 30 52
M  V30 56 1 31 53
M  V30 57 1 32 54
M  V30 END BOND
M  V30 END CTAB
M  END
>  <Dataset>  (130) 
ChEMBL_Kinases

>  <Ligand_Instance>  (130) 
nan

>  <PDB_ID>  (130) 
nan

>  <Standardized_SMILES>  (130) 
CCN(CC)S(=O)(=O)c1ccc(Nc2ncc3c(n2)-c2ccc(Cl)cc2NC(=O)C3)cc1

>  <Name>  (130) 
nan

>  <Pocket>  (130) 
nan

>  <ATP_Site>  (130) 
nan

>  <Peripheral>  (130) 
nan

>  <Num_H_Atoms_ProtBoundConf>  (130) 
nan

>  <Num_Resolved_Atoms>  (130) 
nan

>  <Num_Not_Resolved_Atoms>  (130) 
nan

$$$$
CHEMBL1945028
     RDKit          3D

  0  0  0  0  0  0  0  0  0  0999 V3000
M  V30 BEGIN CTAB
M  V30 COUNTS 60 64 0 0 0
M  V30 BEGIN ATOM
M  V30 1 O 0.871189 -3.049461 5.973862 0
M  V30 2 C 1.308805 -3.457975 4.870117 0
M  V30 3 C 2.751016 -3.261549 4.536643 0
M  V30 4 C 2.942331 -2.592306 3.239604 0
M  V30 5 C 3.972899 -1.662678 3.227228 0
M  V30 6 N 4.259655 -0.982937 2.107302 0
M  V30 7 C 3.597255 -1.137655 0.940464 0
M  V30 8 N 4.153383 -0.258213 -0.021360 0
M  V30 9 C 3.569231 0.919493 -0.575499 0
M  V30 10 C 4.324501 1.817957 -1.286945 0
M  V30 11 C 3.730558 2.945093 -1.831324 0
M  V30 12 C 2.371434 3.187442 -1.670913 0
M  V30 13 C 1.629536 2.270268 -0.951937 0
M  V30 14 C 0.222362 2.599666 -0.840655 0
M  V30 15 O -0.218043 3.717840 -1.192699 0
M  V30 16 N -0.779787 1.694296 -0.329933 0
M  V30 17 C -2.089841 2.339970 -0.356356 0
M  V30 18 C -3.138279 1.361706 0.144550 0
M  V30 19 N -3.148432 0.204185 -0.729530 0
M  V30 20 C -4.105735 -0.767377 -0.316862 0
M  V30 21 C -5.465627 -0.383421 -0.852657 0
M  V30 22 O -5.435826 -0.271932 -2.230491 0
M  V30 23 C -4.178798 -0.452649 -2.778425 0
M  V30 24 C -3.254640 0.562384 -2.108686 0
M  V30 25 C 2.198050 1.147455 -0.403610 0
M  V30 26 N 2.578926 -2.037160 0.900932 0
M  V30 27 C 2.268430 -2.739988 2.028220 0
M  V30 28 C 1.142955 -3.593363 1.688332 0
M  V30 29 C 0.902105 -3.836890 0.353775 0
M  V30 30 C -0.154894 -4.632085 -0.041482 0
M  V30 31 C -1.024950 -5.225632 0.854895 0
M  V30 32 Cl -2.348486 -6.221238 0.310559 0
M  V30 33 C -0.767914 -4.970383 2.199034 0
M  V30 34 C 0.275866 -4.183996 2.619648 0
M  V30 35 N 0.315818 -4.079218 4.057687 0
M  V30 36 H 3.215438 -4.289326 4.509353 0
M  V30 37 H 3.206573 -2.643049 5.337766 0
M  V30 38 H 4.485064 -1.562263 4.177063 0
M  V30 39 H 5.126639 -0.524731 -0.358155 0
M  V30 40 H 5.381635 1.614481 -1.405632 0
M  V30 41 H 4.355875 3.626547 -2.383776 0
M  V30 42 H 1.957178 4.090440 -2.118888 0
M  V30 43 H -0.453385 0.760899 -0.031141 0
M  V30 44 H -2.336125 2.735355 -1.359080 0
M  V30 45 H -2.022594 3.232668 0.323011 0
M  V30 46 H -2.994756 1.090824 1.196586 0
M  V30 47 H -4.127461 1.852207 0.043866 0
M  V30 48 H -3.877841 -1.795875 -0.711093 0
M  V30 49 H -4.116705 -0.811633 0.799356 0
M  V30 50 H -5.708690 0.621476 -0.406938 0
M  V30 51 H -6.235672 -1.146418 -0.595308 0
M  V30 52 H -4.265617 -0.219713 -3.879365 0
M  V30 53 H -3.829636 -1.479321 -2.714316 0
M  V30 54 H -3.785145 1.551641 -2.239185 0
M  V30 55 H -2.293644 0.606366 -2.661374 0
M  V30 56 H 1.610040 0.453913 0.146496 0
M  V30 57 H 1.596571 -3.357656 -0.296356 0
M  V30 58 H -0.251229 -4.755237 -1.091763 0
M  V30 59 H -1.468028 -5.450551 2.888208 0
M  V30 60 H -0.486864 -4.515657 4.562044 0
M  V30 END ATOM
M  V30 BEGIN BOND
M  V30 1 2 1 2
M  V30 2 1 2 3
M  V30 3 1 3 4
M  V30 4 2 4 5
M  V30 5 1 5 6
M  V30 6 2 6 7
M  V30 7 1 7 8
M  V30 8 1 8 9
M  V30 9 2 9 10
M  V30 10 1 10 11
M  V30 11 2 11 12
M  V30 12 1 12 13
M  V30 13 1 13 14
M  V30 14 2 14 15
M  V30 15 1 14 16
M  V30 16 1 16 17
M  V30 17 1 17 18
M  V30 18 1 18 19
M  V30 19 1 19 20
M  V30 20 1 20 21
M  V30 21 1 21 22
M  V30 22 1 22 23
M  V30 23 1 23 24
M  V30 24 2 13 25
M  V30 25 1 7 26
M  V30 26 2 26 27
M  V30 27 1 27 28
M  V30 28 2 28 29
M  V30 29 1 29 30
M  V30 30 2 30 31
M  V30 31 1 31 32
M  V30 32 1 31 33
M  V30 33 2 33 34
M  V30 34 1 34 35
M  V30 35 1 35 2
M  V30 36 1 27 4
M  V30 37 1 34 28
M  V30 38 1 25 9
M  V30 39 1 24 19
M  V30 40 1 3 36
M  V30 41 1 3 37
M  V30 42 1 5 38
M  V30 43 1 8 39
M  V30 44 1 10 40
M  V30 45 1 11 41
M  V30 46 1 12 42
M  V30 47 1 16 43
M  V30 48 1 17 44
M  V30 49 1 17 45
M  V30 50 1 18 46
M  V30 51 1 18 47
M  V30 52 1 20 48
M  V30 53 1 20 49
M  V30 54 1 21 50
M  V30 55 1 21 51
M  V30 56 1 23 52
M  V30 57 1 23 53
M  V30 58 1 24 54
M  V30 59 1 24 55
M  V30 60 1 25 56
M  V30 61 1 29 57
M  V30 62 1 30 58
M  V30 63 1 33 59
M  V30 64 1 35 60
M  V30 END BOND
M  V30 END CTAB
M  END
>  <Dataset>  (131) 
ChEMBL_Kinases

>  <Ligand_Instance>  (131) 
nan

>  <PDB_ID>  (131) 
nan

>  <Standardized_SMILES>  (131) 
O=C1Cc2cnc(Nc3cccc(C(=O)NCCN4CCOCC4)c3)nc2-c2ccc(Cl)cc2N1

>  <Name>  (131) 
nan

>  <Pocket>  (131) 
nan

>  <ATP_Site>  (131) 
nan

>  <Peripheral>  (131) 
nan

>  <Num_H_Atoms_ProtBoundConf>  (131) 
nan

>  <Num_Resolved_Atoms>  (131) 
nan

>  <Num_Not_Resolved_Atoms>  (131) 
nan

$$$$
CHEMBL1945029
     RDKit          3D

  0  0  0  0  0  0  0  0  0  0999 V3000
M  V30 BEGIN CTAB
M  V30 COUNTS 57 61 0 0 0
M  V30 BEGIN ATOM
M  V30 1 C 2.056177 -0.541913 2.422759 0
M  V30 2 N 3.231838 -1.372168 2.284144 0
M  V30 3 C 4.343059 -0.556579 1.871566 0
M  V30 4 C 4.153422 -0.008348 0.447912 0
M  V30 5 N 3.054720 -0.723662 -0.094464 0
M  V30 6 C 2.422335 -0.215361 -1.247034 0
M  V30 7 C 1.884455 1.139588 -0.976223 0
M  V30 8 C 2.531525 2.347197 -1.187093 0
M  V30 9 C 1.905243 3.536184 -0.893410 0
M  V30 10 C 0.626938 3.582901 -0.384118 0
M  V30 11 C -0.090643 2.413211 -0.143296 0
M  V30 12 N -1.414164 2.329161 0.366835 0
M  V30 13 C -1.971360 1.040995 0.702406 0
M  V30 14 N -1.812676 0.835747 2.028278 0
M  V30 15 C -2.243585 -0.294752 2.597653 0
M  V30 16 C -2.861818 -1.288693 1.862635 0
M  V30 17 C -2.992792 -1.016491 0.513065 0
M  V30 18 N -2.564435 0.127179 -0.099137 0
M  V30 19 C -3.586527 -1.862658 -0.513926 0
M  V30 20 C -4.010140 -1.224519 -1.652550 0
M  V30 21 C -4.573191 -1.982940 -2.649618 0
M  V30 22 C -4.716483 -3.345949 -2.528040 0
M  V30 23 Cl -5.430139 -4.326415 -3.788023 0
M  V30 24 C -4.308481 -4.014132 -1.413920 0
M  V30 25 C -3.733949 -3.250682 -0.393048 0
M  V30 26 N -3.366019 -4.112904 0.696094 0
M  V30 27 C -2.942823 -3.759954 2.025590 0
M  V30 28 O -2.275209 -4.578052 2.679828 0
M  V30 29 C -3.266196 -2.454001 2.666970 0
M  V30 30 C 0.593771 1.242044 -0.459330 0
M  V30 31 C 3.221533 -2.143059 -0.023493 0
M  V30 32 C 2.976354 -2.507792 1.434173 0
M  V30 33 H 2.280714 0.547054 2.391611 0
M  V30 34 H 1.535671 -0.723300 3.383205 0
M  V30 35 H 1.380246 -0.754412 1.585533 0
M  V30 36 H 5.307139 -1.070510 1.997271 0
M  V30 37 H 4.352868 0.321719 2.569460 0
M  V30 38 H 5.114036 -0.187815 -0.076396 0
M  V30 39 H 3.972576 1.066590 0.433855 0
M  V30 40 H 3.058868 -0.176415 -2.153593 0
M  V30 41 H 1.563772 -0.868779 -1.503793 0
M  V30 42 H 3.525236 2.279291 -1.585376 0
M  V30 43 H 2.418379 4.472845 -1.060950 0
M  V30 44 H 0.105588 4.515388 -0.141344 0
M  V30 45 H -1.871327 3.273185 0.449027 0
M  V30 46 H -2.142532 -0.515977 3.667236 0
M  V30 47 H -3.866478 -0.160461 -1.673075 0
M  V30 48 H -4.898126 -1.475281 -3.532594 0
M  V30 49 H -4.395688 -5.089110 -1.256738 0
M  V30 50 H -3.398092 -5.144854 0.531061 0
M  V30 51 H -4.345878 -2.404742 2.921590 0
M  V30 52 H -2.712530 -2.401599 3.624015 0
M  V30 53 H 0.050214 0.304087 -0.280556 0
M  V30 54 H 4.247346 -2.491966 -0.258691 0
M  V30 55 H 2.546247 -2.704614 -0.703390 0
M  V30 56 H 3.517556 -3.426377 1.726093 0
M  V30 57 H 1.875469 -2.710880 1.484447 0
M  V30 END ATOM
M  V30 BEGIN BOND
M  V30 1 1 1 2
M  V30 2 1 2 3
M  V30 3 1 3 4
M  V30 4 1 4 5
M  V30 5 1 5 6
M  V30 6 1 6 7
M  V30 7 2 7 8
M  V30 8 1 8 9
M  V30 9 2 9 10
M  V30 10 1 10 11
M  V30 11 1 11 12
M  V30 12 1 12 13
M  V30 13 2 13 14
M  V30 14 1 14 15
M  V30 15 2 15 16
M  V30 16 1 16 17
M  V30 17 2 17 18
M  V30 18 1 17 19
M  V30 19 2 19 20
M  V30 20 1 20 21
M  V30 21 2 21 22
M  V30 22 1 22 23
M  V30 23 1 22 24
M  V30 24 2 24 25
M  V30 25 1 25 26
M  V30 26 1 26 27
M  V30 27 2 27 28
M  V30 28 1 27 29
M  V30 29 2 11 30
M  V30 30 1 5 31
M  V30 31 1 31 32
M  V30 32 1 32 2
M  V30 33 1 30 7
M  V30 34 1 18 13
M  V30 35 1 25 19
M  V30 36 1 29 16
M  V30 37 1 1 33
M  V30 38 1 1 34
M  V30 39 1 1 35
M  V30 40 1 3 36
M  V30 41 1 3 37
M  V30 42 1 4 38
M  V30 43 1 4 39
M  V30 44 1 6 40
M  V30 45 1 6 41
M  V30 46 1 8 42
M  V30 47 1 9 43
M  V30 48 1 10 44
M  V30 49 1 12 45
M  V30 50 1 15 46
M  V30 51 1 20 47
M  V30 52 1 21 48
M  V30 53 1 24 49
M  V30 54 1 26 50
M  V30 55 1 29 51
M  V30 56 1 29 52
M  V30 57 1 30 53
M  V30 58 1 31 54
M  V30 59 1 31 55
M  V30 60 1 32 56
M  V30 61 1 32 57
M  V30 END BOND
M  V30 END CTAB
M  END
>  <Dataset>  (132) 
ChEMBL_Kinases

>  <Ligand_Instance>  (132) 
nan

>  <PDB_ID>  (132) 
nan

>  <Standardized_SMILES>  (132) 
CN1CCN(Cc2cccc(Nc3ncc4c(n3)-c3ccc(Cl)cc3NC(=O)C4)c2)CC1

>  <Name>  (132) 
nan

>  <Pocket>  (132) 
nan

>  <ATP_Site>  (132) 
nan

>  <Peripheral>  (132) 
nan

>  <Num_H_Atoms_ProtBoundConf>  (132) 
nan

>  <Num_Resolved_Atoms>  (132) 
nan

>  <Num_Not_Resolved_Atoms>  (132) 
nan

$$$$
CHEMBL1945030
     RDKit          3D

  0  0  0  0  0  0  0  0  0  0999 V3000
M  V30 BEGIN CTAB
M  V30 COUNTS 55 59 0 0 0
M  V30 BEGIN ATOM
M  V30 1 C 1.992104 0.614282 6.218690 0
M  V30 2 N 3.129207 0.747578 5.319567 0
M  V30 3 C 4.088707 1.593128 6.048813 0
M  V30 4 C 2.579587 1.579543 4.220663 0
M  V30 5 C 3.565569 1.851983 3.160568 0
M  V30 6 C 4.205167 0.753255 2.372731 0
M  V30 7 C 3.420296 1.959335 1.736187 0
M  V30 8 C 2.422004 1.466228 0.811711 0
M  V30 9 C 2.896068 1.216321 -0.490065 0
M  V30 10 C 2.112480 0.746752 -1.540676 0
M  V30 11 C 0.778921 0.512308 -1.280878 0
M  V30 12 C 0.240765 0.733921 -0.031535 0
M  V30 13 N -1.130534 0.501650 0.262683 0
M  V30 14 C -1.954931 -0.002086 -0.781778 0
M  V30 15 N -2.609383 0.750266 -1.684364 0
M  V30 16 C -3.378239 0.235037 -2.650740 0
M  V30 17 C -3.534312 -1.135087 -2.761964 0
M  V30 18 C -2.867223 -1.903220 -1.841470 0
M  V30 19 N -2.103603 -1.348294 -0.884814 0
M  V30 20 C -2.895262 -3.357366 -1.775221 0
M  V30 21 C -1.861008 -3.838064 -0.986118 0
M  V30 22 C -1.703898 -5.192870 -0.788387 0
M  V30 23 C -2.611278 -6.049882 -1.403058 0
M  V30 24 Cl -2.395178 -7.756968 -1.140622 0
M  V30 25 C -3.644276 -5.600897 -2.189324 0
M  V30 26 C -3.772636 -4.231870 -2.366745 0
M  V30 27 N -4.897552 -3.954004 -3.210209 0
M  V30 28 C -5.125784 -2.699249 -3.837673 0
M  V30 29 O -6.199217 -2.715106 -4.500103 0
M  V30 30 C -4.425605 -1.391177 -3.907561 0
M  V30 31 C 1.084606 1.196380 0.943685 0
M  V30 32 H 2.180212 -0.292461 6.863336 0
M  V30 33 H 1.044384 0.436704 5.684398 0
M  V30 34 H 1.881143 1.479883 6.883332 0
M  V30 35 H 3.928450 2.663453 5.824608 0
M  V30 36 H 3.970177 1.505187 7.151842 0
M  V30 37 H 5.142724 1.297720 5.838164 0
M  V30 38 H 1.652392 1.071228 3.953347 0
M  V30 39 H 2.263158 2.497988 4.765897 0
M  V30 40 H 4.388674 2.533456 3.576055 0
M  V30 41 H 5.293361 0.720374 2.174174 0
M  V30 42 H 3.748233 -0.237333 2.329468 0
M  V30 43 H 4.168180 2.632453 1.171950 0
M  V30 44 H 3.947368 1.380490 -0.768361 0
M  V30 45 H 2.520531 0.572977 -2.511814 0
M  V30 46 H 0.135572 0.147884 -2.067448 0
M  V30 47 H -1.502039 0.692865 1.196355 0
M  V30 48 H -3.869870 0.926589 -3.337519 0
M  V30 49 H -1.178375 -3.143171 -0.526646 0
M  V30 50 H -0.883660 -5.531859 -0.164459 0
M  V30 51 H -4.345605 -6.254043 -2.665798 0
M  V30 52 H -5.591470 -4.709293 -3.377479 0
M  V30 53 H -5.204732 -0.591637 -3.973213 0
M  V30 54 H -3.816678 -1.396542 -4.853301 0
M  V30 55 H 0.667391 1.374329 1.898366 0
M  V30 END ATOM
M  V30 BEGIN BOND
M  V30 1 1 1 2
M  V30 2 1 2 3
M  V30 3 1 2 4
M  V30 4 1 4 5
M  V30 5 1 5 6
M  V30 6 1 6 7
M  V30 7 1 7 8
M  V30 8 2 8 9
M  V30 9 1 9 10
M  V30 10 2 10 11
M  V30 11 1 11 12
M  V30 12 1 12 13
M  V30 13 1 13 14
M  V30 14 2 14 15
M  V30 15 1 15 16
M  V30 16 2 16 17
M  V30 17 1 17 18
M  V30 18 2 18 19
M  V30 19 1 18 20
M  V30 20 2 20 21
M  V30 21 1 21 22
M  V30 22 2 22 23
M  V30 23 1 23 24
M  V30 24 1 23 25
M  V30 25 2 25 26
M  V30 26 1 26 27
M  V30 27 1 27 28
M  V30 28 2 28 29
M  V30 29 1 28 30
M  V30 30 2 12 31
M  V30 31 1 7 5
M  V30 32 1 31 8
M  V30 33 1 19 14
M  V30 34 1 26 20
M  V30 35 1 30 17
M  V30 36 1 1 32
M  V30 37 1 1 33
M  V30 38 1 1 34
M  V30 39 1 3 35
M  V30 40 1 3 36
M  V30 41 1 3 37
M  V30 42 1 4 38
M  V30 43 1 4 39
M  V30 44 1 5 40
M  V30 45 1 6 41
M  V30 46 1 6 42
M  V30 47 1 7 43
M  V30 48 1 9 44
M  V30 49 1 10 45
M  V30 50 1 11 46
M  V30 51 1 13 47
M  V30 52 1 16 48
M  V30 53 1 21 49
M  V30 54 1 22 50
M  V30 55 1 25 51
M  V30 56 1 27 52
M  V30 57 1 30 53
M  V30 58 1 30 54
M  V30 59 1 31 55
M  V30 END BOND
M  V30 END CTAB
M  END
>  <Dataset>  (133) 
ChEMBL_Kinases

>  <Ligand_Instance>  (133) 
nan

>  <PDB_ID>  (133) 
nan

>  <Standardized_SMILES>  (133) 
CN(C)CC1CC1c1cccc(Nc2ncc3c(n2)-c2ccc(Cl)cc2NC(=O)C3)c1

>  <Name>  (133) 
nan

>  <Pocket>  (133) 
nan

>  <ATP_Site>  (133) 
nan

>  <Peripheral>  (133) 
nan

>  <Num_H_Atoms_ProtBoundConf>  (133) 
nan

>  <Num_Resolved_Atoms>  (133) 
nan

>  <Num_Not_Resolved_Atoms>  (133) 
nan

$$$$
CHEMBL194505
     RDKit          3D

  0  0  0  0  0  0  0  0  0  0999 V3000
M  V30 BEGIN CTAB
M  V30 COUNTS 58 61 0 0 0
M  V30 BEGIN ATOM
M  V30 1 C 1.981391 -1.885934 3.552293 0
M  V30 2 C 3.383201 -1.574140 3.139839 0
M  V30 3 O 4.225598 -2.553797 3.691010 0
M  V30 4 C 3.551923 -1.568749 1.623993 0 CFG=2
M  V30 5 C 5.039521 -1.415742 1.386649 0
M  V30 6 O 5.701678 -2.447251 2.095479 0
M  V30 7 N 2.733516 -0.606914 0.987382 0
M  V30 8 C 2.955058 0.761603 1.300586 0
M  V30 9 C 1.695073 1.543215 0.976764 0
M  V30 10 C 1.282489 1.291719 -0.439116 0
M  V30 11 C -0.072832 0.636420 -0.484729 0
M  V30 12 C -1.093458 1.271906 -1.196073 0
M  V30 13 C -2.251524 0.491305 -1.098416 0
M  V30 14 C -3.597120 0.661684 -1.632472 0
M  V30 15 C -4.213724 1.830135 -1.168487 0
M  V30 16 C -5.491827 2.154833 -1.568908 0
M  V30 17 N -6.171463 1.358562 -2.411160 0
M  V30 18 C -5.589742 0.233674 -2.863471 0
M  V30 19 C -4.313463 -0.128111 -2.487942 0
M  V30 20 C -1.881119 -0.586135 -0.330206 0
M  V30 21 C -2.657299 -1.740307 0.112177 0
M  V30 22 C -3.763348 -1.687133 0.929831 0
M  V30 23 C -4.476608 -2.780171 1.331686 0
M  V30 24 C -3.975573 -3.980298 0.830456 0
M  V30 25 F -4.612205 -5.142323 1.168684 0
M  V30 26 C -2.871324 -4.104953 0.006049 0
M  V30 27 C -2.196649 -2.971490 -0.362912 0
M  V30 28 N -0.576384 -0.488905 0.031379 0
M  V30 29 C 2.246168 0.426655 -1.197783 0
M  V30 30 C 2.643988 -0.796469 -0.421202 0
M  V30 31 H 1.789861 -2.995180 3.529393 0
M  V30 32 H 1.245254 -1.387036 2.894002 0
M  V30 33 H 1.799812 -1.573619 4.587798 0
M  V30 34 H 3.714368 -0.616146 3.593730 0
M  V30 35 H 3.733388 -3.122595 4.334075 0
M  V30 36 H 3.254118 -2.573058 1.262805 0
M  V30 37 H 5.444480 -0.466521 1.755285 0
M  V30 38 H 5.271966 -1.563090 0.314568 0
M  V30 39 H 6.432680 -2.081619 2.656510 0
M  V30 40 H 3.237177 0.929178 2.356931 0
M  V30 41 H 3.738175 1.197725 0.617750 0
M  V30 42 H 0.912091 1.266914 1.715812 0
M  V30 43 H 1.907526 2.621345 1.151148 0
M  V30 44 H 1.224880 2.274501 -0.967068 0
M  V30 45 H -1.144921 2.195303 -1.768789 0
M  V30 46 H -3.749128 2.549642 -0.478986 0
M  V30 47 H -5.987162 3.059025 -1.219236 0
M  V30 48 H -6.083027 -0.456602 -3.547638 0
M  V30 49 H -3.766114 -1.011000 -2.799249 0
M  V30 50 H -4.077359 -0.697208 1.271107 0
M  V30 51 H -5.335084 -2.744802 1.966183 0
M  V30 52 H -2.556434 -5.077674 -0.333355 0
M  V30 53 H -1.349271 -3.098659 -0.998455 0
M  V30 54 H 0.011394 -1.127441 0.608001 0
M  V30 55 H 3.115191 0.990915 -1.590809 0
M  V30 56 H 1.698270 0.065368 -2.099976 0
M  V30 57 H 3.656947 -1.137347 -0.789674 0
M  V30 58 H 1.971588 -1.661059 -0.635975 0
M  V30 END ATOM
M  V30 BEGIN BOND
M  V30 1 1 1 2
M  V30 2 1 2 3
M  V30 3 1 2 4
M  V30 4 1 4 5
M  V30 5 1 5 6
M  V30 6 1 4 7
M  V30 7 1 7 8
M  V30 8 1 8 9
M  V30 9 1 9 10
M  V30 10 1 10 11
M  V30 11 2 11 12
M  V30 12 1 12 13
M  V30 13 1 13 14
M  V30 14 2 14 15
M  V30 15 1 15 16
M  V30 16 2 16 17
M  V30 17 1 17 18
M  V30 18 2 18 19
M  V30 19 2 13 20
M  V30 20 1 20 21
M  V30 21 2 21 22
M  V30 22 1 22 23
M  V30 23 2 23 24
M  V30 24 1 24 25
M  V30 25 1 24 26
M  V30 26 2 26 27
M  V30 27 1 20 28
M  V30 28 1 10 29
M  V30 29 1 29 30
M  V30 30 1 30 7
M  V30 31 1 28 11
M  V30 32 1 19 14
M  V30 33 1 27 21
M  V30 34 1 1 31
M  V30 35 1 1 32
M  V30 36 1 1 33
M  V30 37 1 2 34
M  V30 38 1 3 35
M  V30 39 1 4 36 CFG=3
M  V30 40 1 5 37
M  V30 41 1 5 38
M  V30 42 1 6 39
M  V30 43 1 8 40
M  V30 44 1 8 41
M  V30 45 1 9 42
M  V30 46 1 9 43
M  V30 47 1 10 44
M  V30 48 1 12 45
M  V30 49 1 15 46
M  V30 50 1 16 47
M  V30 51 1 18 48
M  V30 52 1 19 49
M  V30 53 1 22 50
M  V30 54 1 23 51
M  V30 55 1 26 52
M  V30 56 1 27 53
M  V30 57 1 28 54
M  V30 58 1 29 55
M  V30 59 1 29 56
M  V30 60 1 30 57
M  V30 61 1 30 58
M  V30 END BOND
M  V30 END CTAB
M  END
>  <Dataset>  (134) 
ChEMBL_Kinases

>  <Ligand_Instance>  (134) 
nan

>  <PDB_ID>  (134) 
nan

>  <Standardized_SMILES>  (134) 
CC(O)[C@H](CO)N1CCC(c2cc(-c3ccncc3)c(-c3ccc(F)cc3)[nH]2)CC1

>  <Name>  (134) 
nan

>  <Pocket>  (134) 
nan

>  <ATP_Site>  (134) 
nan

>  <Peripheral>  (134) 
nan

>  <Num_H_Atoms_ProtBoundConf>  (134) 
nan

>  <Num_Resolved_Atoms>  (134) 
nan

>  <Num_Not_Resolved_Atoms>  (134) 
nan

$$$$
CHEMBL1945168
     RDKit          3D

  0  0  0  0  0  0  0  0  0  0999 V3000
M  V30 BEGIN CTAB
M  V30 COUNTS 52 55 0 0 0
M  V30 BEGIN ATOM
M  V30 1 C 3.477280 -0.686669 2.785580 0
M  V30 2 N 4.387362 -1.755625 2.564648 0
M  V30 3 C 3.912490 -3.055196 2.939006 0
M  V30 4 C 4.951193 -1.719817 1.234638 0
M  V30 5 C 3.960847 -2.009315 0.162488 0
M  V30 6 O 2.878388 -1.162228 0.045460 0
M  V30 7 C 2.791938 0.155082 -0.253533 0
M  V30 8 C 3.708803 1.130600 -0.556897 0
M  V30 9 C 3.432328 2.446778 -0.838981 0
M  V30 10 C 2.097692 2.792616 -0.807798 0
M  V30 11 C 1.086336 1.903881 -0.516531 0
M  V30 12 N -0.267720 2.327895 -0.523420 0
M  V30 13 C -1.326729 1.538612 -0.022653 0
M  V30 14 N -1.678311 2.017192 1.204569 0
M  V30 15 C -2.657991 1.478341 1.953922 0
M  V30 16 C -3.369120 0.386977 1.501560 0
M  V30 17 C -2.984355 -0.080841 0.238031 0
M  V30 18 N -1.990167 0.474525 -0.512920 0
M  V30 19 C -3.514089 -1.212344 -0.513991 0
M  V30 20 C -3.285028 -1.200854 -1.871546 0
M  V30 21 C -3.748920 -2.237781 -2.642579 0
M  V30 22 C -4.439714 -3.282519 -2.057189 0
M  V30 23 Cl -5.022601 -4.598581 -3.046947 0
M  V30 24 C -4.682806 -3.316479 -0.693262 0
M  V30 25 C -4.214046 -2.265090 0.098192 0
M  V30 26 N -4.563460 -2.482258 1.468783 0
M  V30 27 C -4.500228 -1.546802 2.553691 0
M  V30 28 O -4.527717 -2.053199 3.717437 0
M  V30 29 C -4.407043 -0.071537 2.429788 0
M  V30 30 C 1.455323 0.581134 -0.240676 0
M  V30 31 H 2.470909 -0.922069 2.392136 0
M  V30 32 H 3.911603 0.260220 2.411426 0
M  V30 33 H 3.440681 -0.537189 3.907856 0
M  V30 34 H 3.140834 -3.480734 2.269753 0
M  V30 35 H 4.771490 -3.754553 3.036338 0
M  V30 36 H 3.429154 -2.978066 3.933080 0
M  V30 37 H 5.802815 -2.433202 1.200288 0
M  V30 38 H 5.372907 -0.712051 1.089666 0
M  V30 39 H 3.605584 -3.068861 0.316448 0
M  V30 40 H 4.545277 -2.093070 -0.806921 0
M  V30 41 H 4.714624 0.788566 -0.570271 0
M  V30 42 H 4.255577 3.095302 -1.058507 0
M  V30 43 H 1.865711 3.828669 -1.029813 0
M  V30 44 H -0.499837 3.259587 -0.914705 0
M  V30 45 H -2.963119 1.833647 2.928769 0
M  V30 46 H -2.733949 -0.338828 -2.258036 0
M  V30 47 H -3.564895 -2.221831 -3.707180 0
M  V30 48 H -5.220498 -4.136569 -0.240066 0
M  V30 49 H -4.907529 -3.432882 1.736045 0
M  V30 50 H -5.425587 0.321407 2.147405 0
M  V30 51 H -4.198598 0.370511 3.424762 0
M  V30 52 H 0.591252 -0.041046 -0.023655 0
M  V30 END ATOM
M  V30 BEGIN BOND
M  V30 1 1 1 2
M  V30 2 1 2 3
M  V30 3 1 2 4
M  V30 4 1 4 5
M  V30 5 1 5 6
M  V30 6 1 6 7
M  V30 7 2 7 8
M  V30 8 1 8 9
M  V30 9 2 9 10
M  V30 10 1 10 11
M  V30 11 1 11 12
M  V30 12 1 12 13
M  V30 13 2 13 14
M  V30 14 1 14 15
M  V30 15 2 15 16
M  V30 16 1 16 17
M  V30 17 2 17 18
M  V30 18 1 17 19
M  V30 19 2 19 20
M  V30 20 1 20 21
M  V30 21 2 21 22
M  V30 22 1 22 23
M  V30 23 1 22 24
M  V30 24 2 24 25
M  V30 25 1 25 26
M  V30 26 1 26 27
M  V30 27 2 27 28
M  V30 28 1 27 29
M  V30 29 2 11 30
M  V30 30 1 30 7
M  V30 31 1 18 13
M  V30 32 1 25 19
M  V30 33 1 29 16
M  V30 34 1 1 31
M  V30 35 1 1 32
M  V30 36 1 1 33
M  V30 37 1 3 34
M  V30 38 1 3 35
M  V30 39 1 3 36
M  V30 40 1 4 37
M  V30 41 1 4 38
M  V30 42 1 5 39
M  V30 43 1 5 40
M  V30 44 1 8 41
M  V30 45 1 9 42
M  V30 46 1 10 43
M  V30 47 1 12 44
M  V30 48 1 15 45
M  V30 49 1 20 46
M  V30 50 1 21 47
M  V30 51 1 24 48
M  V30 52 1 26 49
M  V30 53 1 29 50
M  V30 54 1 29 51
M  V30 55 1 30 52
M  V30 END BOND
M  V30 END CTAB
M  END
>  <Dataset>  (135) 
ChEMBL_Kinases

>  <Ligand_Instance>  (135) 
nan

>  <PDB_ID>  (135) 
nan

>  <Standardized_SMILES>  (135) 
CN(C)CCOc1cccc(Nc2ncc3c(n2)-c2ccc(Cl)cc2NC(=O)C3)c1

>  <Name>  (135) 
nan

>  <Pocket>  (135) 
nan

>  <ATP_Site>  (135) 
nan

>  <Peripheral>  (135) 
nan

>  <Num_H_Atoms_ProtBoundConf>  (135) 
nan

>  <Num_Resolved_Atoms>  (135) 
nan

>  <Num_Not_Resolved_Atoms>  (135) 
nan

$$$$
CHEMBL1945169
     RDKit          3D

  0  0  0  0  0  0  0  0  0  0999 V3000
M  V30 BEGIN CTAB
M  V30 COUNTS 50 54 0 0 0
M  V30 BEGIN ATOM
M  V30 1 O 0.417098 -6.254701 2.022803 0
M  V30 2 C -0.405007 -5.675574 1.240697 0
M  V30 3 C -1.080887 -4.443147 1.700675 0
M  V30 4 C -0.749670 -3.333646 0.770998 0
M  V30 5 C -0.441058 -2.190883 1.467507 0
M  V30 6 N -0.128377 -1.126428 0.757561 0
M  V30 7 C -0.067860 -0.998571 -0.564930 0
M  V30 8 N 0.275846 0.175853 -1.284633 0
M  V30 9 C 0.624865 1.451056 -0.772134 0
M  V30 10 C 0.935229 2.500572 -1.610939 0
M  V30 11 C 1.279252 3.753968 -1.161679 0
M  V30 12 C 1.331131 4.026760 0.189096 0
M  V30 13 C 1.029476 3.011081 1.072054 0
M  V30 14 N 1.079616 3.280661 2.468937 0
M  V30 15 C 1.444878 4.606830 2.899889 0
M  V30 16 C 1.472641 4.655183 4.431707 0
M  V30 17 O 0.383536 3.931990 4.924282 0
M  V30 18 C 0.723089 2.597576 4.804341 0
M  V30 19 C 0.755807 2.189506 3.378155 0
M  V30 20 C 0.694138 1.784538 0.560603 0
M  V30 21 N -0.367580 -2.106870 -1.216556 0
M  V30 22 C -0.700742 -3.250525 -0.602252 0
M  V30 23 C -0.985202 -4.326473 -1.571687 0
M  V30 24 C -1.325345 -3.816654 -2.796889 0
M  V30 25 C -1.611951 -4.733932 -3.779826 0
M  V30 26 C -1.543407 -6.091170 -3.486915 0
M  V30 27 Cl -1.914896 -7.255470 -4.761781 0
M  V30 28 C -1.203824 -6.595675 -2.263928 0
M  V30 29 C -0.913427 -5.689559 -1.267134 0
M  V30 30 N -0.567382 -6.318192 -0.017460 0
M  V30 31 H -2.198624 -4.574252 1.599399 0
M  V30 32 H -0.810268 -4.160397 2.726381 0
M  V30 33 H -0.454508 -2.167498 2.546426 0
M  V30 34 H 0.275926 0.106340 -2.333357 0
M  V30 35 H 0.909983 2.340014 -2.694430 0
M  V30 36 H 1.509922 4.527433 -1.885871 0
M  V30 37 H 1.608479 5.032104 0.472431 0
M  V30 38 H 2.490453 4.862451 2.588654 0
M  V30 39 H 0.718368 5.392671 2.596907 0
M  V30 40 H 2.387305 4.113522 4.757719 0
M  V30 41 H 1.447717 5.668262 4.830581 0
M  V30 42 H 1.669473 2.327478 5.344616 0
M  V30 43 H -0.054983 1.963911 5.317182 0
M  V30 44 H 1.542413 1.417346 3.172639 0
M  V30 45 H -0.242947 1.803852 3.066031 0
M  V30 46 H 0.473711 1.049155 1.311758 0
M  V30 47 H -1.347724 -2.748468 -2.915468 0
M  V30 48 H -1.883858 -4.352831 -4.758242 0
M  V30 49 H -1.155489 -7.652315 -2.053774 0
M  V30 50 H -0.423814 -7.348320 -0.050882 0
M  V30 END ATOM
M  V30 BEGIN BOND
M  V30 1 2 1 2
M  V30 2 1 2 3
M  V30 3 1 3 4
M  V30 4 2 4 5
M  V30 5 1 5 6
M  V30 6 2 6 7
M  V30 7 1 7 8
M  V30 8 1 8 9
M  V30 9 2 9 10
M  V30 10 1 10 11
M  V30 11 2 11 12
M  V30 12 1 12 13
M  V30 13 1 13 14
M  V30 14 1 14 15
M  V30 15 1 15 16
M  V30 16 1 16 17
M  V30 17 1 17 18
M  V30 18 1 18 19
M  V30 19 2 13 20
M  V30 20 1 7 21
M  V30 21 2 21 22
M  V30 22 1 22 23
M  V30 23 2 23 24
M  V30 24 1 24 25
M  V30 25 2 25 26
M  V30 26 1 26 27
M  V30 27 1 26 28
M  V30 28 2 28 29
M  V30 29 1 29 30
M  V30 30 1 30 2
M  V30 31 1 22 4
M  V30 32 1 29 23
M  V30 33 1 20 9
M  V30 34 1 19 14
M  V30 35 1 3 31
M  V30 36 1 3 32
M  V30 37 1 5 33
M  V30 38 1 8 34
M  V30 39 1 10 35
M  V30 40 1 11 36
M  V30 41 1 12 37
M  V30 42 1 15 38
M  V30 43 1 15 39
M  V30 44 1 16 40
M  V30 45 1 16 41
M  V30 46 1 18 42
M  V30 47 1 18 43
M  V30 48 1 19 44
M  V30 49 1 19 45
M  V30 50 1 20 46
M  V30 51 1 24 47
M  V30 52 1 25 48
M  V30 53 1 28 49
M  V30 54 1 30 50
M  V30 END BOND
M  V30 END CTAB
M  END
>  <Dataset>  (136) 
ChEMBL_Kinases

>  <Ligand_Instance>  (136) 
nan

>  <PDB_ID>  (136) 
nan

>  <Standardized_SMILES>  (136) 
O=C1Cc2cnc(Nc3cccc(N4CCOCC4)c3)nc2-c2ccc(Cl)cc2N1

>  <Name>  (136) 
nan

>  <Pocket>  (136) 
nan

>  <ATP_Site>  (136) 
nan

>  <Peripheral>  (136) 
nan

>  <Num_H_Atoms_ProtBoundConf>  (136) 
nan

>  <Num_Resolved_Atoms>  (136) 
nan

>  <Num_Not_Resolved_Atoms>  (136) 
nan

$$$$
CHEMBL1945501
     RDKit          3D

  0  0  0  0  0  0  0  0  0  0999 V3000
M  V30 BEGIN CTAB
M  V30 COUNTS 54 57 0 0 0
M  V30 BEGIN ATOM
M  V30 1 C 0.804111 0.246128 5.260626 0
M  V30 2 N 2.178007 0.071622 4.820015 0
M  V30 3 C 2.444960 -1.352080 4.794135 0
M  V30 4 C 2.431760 0.736146 3.568445 0
M  V30 5 C 3.886389 0.498764 3.188661 0
M  V30 6 C 4.197818 1.184198 1.864746 0
M  V30 7 C 3.325577 0.643527 0.786008 0
M  V30 8 C 2.203061 1.302773 0.330074 0
M  V30 9 C 1.411585 0.736356 -0.661083 0
M  V30 10 N 0.241592 1.411116 -1.147930 0
M  V30 11 C -0.535545 0.591852 -2.021863 0
M  V30 12 N -0.443328 0.390857 -3.358351 0
M  V30 13 C -1.307898 -0.462651 -3.978429 0
M  V30 14 C -2.269078 -1.111435 -3.224089 0
M  V30 15 C -2.350907 -0.894213 -1.853798 0
M  V30 16 N -1.475354 -0.034038 -1.246981 0
M  V30 17 C -3.310624 -1.497566 -0.909751 0
M  V30 18 C -3.469405 -0.633554 0.180726 0
M  V30 19 C -4.350512 -1.066417 1.149529 0
M  V30 20 C -5.022793 -2.268728 1.041075 0
M  V30 21 Cl -6.135288 -2.832761 2.249217 0
M  V30 22 C -4.838959 -3.096742 -0.052924 0
M  V30 23 C -3.970525 -2.716620 -1.052653 0
M  V30 24 N -3.835429 -3.625895 -2.147035 0
M  V30 25 C -3.376100 -3.309187 -3.455404 0
M  V30 26 S -3.141830 -4.667007 -4.357892 0
M  V30 27 C -3.103256 -1.989327 -4.053580 0
M  V30 28 C 1.844082 -0.490486 -1.118286 0
M  V30 29 C 2.951242 -1.192191 -0.702471 0
M  V30 30 C 3.707266 -0.593864 0.282190 0
M  V30 31 F 4.806206 -1.275450 0.702500 0
M  V30 32 H 0.058305 0.075333 4.456552 0
M  V30 33 H 0.582184 -0.512076 6.038156 0
M  V30 34 H 0.645813 1.236492 5.745728 0
M  V30 35 H 2.044752 -1.763416 5.742255 0
M  V30 36 H 1.959859 -1.851313 3.952635 0
M  V30 37 H 3.539467 -1.539939 4.789966 0
M  V30 38 H 2.226183 1.813490 3.729490 0
M  V30 39 H 1.783026 0.278278 2.821200 0
M  V30 40 H 4.565236 0.838769 3.980224 0
M  V30 41 H 3.980912 -0.588551 3.010114 0
M  V30 42 H 5.248773 1.002825 1.575289 0
M  V30 43 H 4.055127 2.271660 1.961502 0
M  V30 44 H 1.945794 2.266627 0.752288 0
M  V30 45 H 0.083755 2.373774 -0.833394 0
M  V30 46 H -1.188072 -0.581228 -5.036406 0
M  V30 47 H -2.914464 0.296571 0.210125 0
M  V30 48 H -4.510768 -0.424121 2.026888 0
M  V30 49 H -5.327813 -4.050153 -0.205092 0
M  V30 50 H -4.129761 -4.607276 -1.857689 0
M  V30 51 H -4.062050 -1.471368 -4.242348 0
M  V30 52 H -2.622075 -2.162239 -5.036037 0
M  V30 53 H 1.242945 -0.970123 -1.901998 0
M  V30 54 H 3.187005 -2.158596 -1.146170 0
M  V30 END ATOM
M  V30 BEGIN BOND
M  V30 1 1 1 2
M  V30 2 1 2 3
M  V30 3 1 2 4
M  V30 4 1 4 5
M  V30 5 1 5 6
M  V30 6 1 6 7
M  V30 7 2 7 8
M  V30 8 1 8 9
M  V30 9 1 9 10
M  V30 10 1 10 11
M  V30 11 2 11 12
M  V30 12 1 12 13
M  V30 13 2 13 14
M  V30 14 1 14 15
M  V30 15 2 15 16
M  V30 16 1 15 17
M  V30 17 2 17 18
M  V30 18 1 18 19
M  V30 19 2 19 20
M  V30 20 1 20 21
M  V30 21 1 20 22
M  V30 22 2 22 23
M  V30 23 1 23 24
M  V30 24 1 24 25
M  V30 25 2 25 26
M  V30 26 1 25 27
M  V30 27 2 9 28
M  V30 28 1 28 29
M  V30 29 2 29 30
M  V30 30 1 30 31
M  V30 31 1 30 7
M  V30 32 1 16 11
M  V30 33 1 23 17
M  V30 34 1 27 14
M  V30 35 1 1 32
M  V30 36 1 1 33
M  V30 37 1 1 34
M  V30 38 1 3 35
M  V30 39 1 3 36
M  V30 40 1 3 37
M  V30 41 1 4 38
M  V30 42 1 4 39
M  V30 43 1 5 40
M  V30 44 1 5 41
M  V30 45 1 6 42
M  V30 46 1 6 43
M  V30 47 1 8 44
M  V30 48 1 10 45
M  V30 49 1 13 46
M  V30 50 1 18 47
M  V30 51 1 19 48
M  V30 52 1 22 49
M  V30 53 1 24 50
M  V30 54 1 27 51
M  V30 55 1 27 52
M  V30 56 1 28 53
M  V30 57 1 29 54
M  V30 END BOND
M  V30 END CTAB
M  END
>  <Dataset>  (137) 
ChEMBL_Kinases

>  <Ligand_Instance>  (137) 
nan

>  <PDB_ID>  (137) 
nan

>  <Standardized_SMILES>  (137) 
CN(C)CCCc1cc(Nc2ncc3c(n2)-c2ccc(Cl)cc2NC(=S)C3)ccc1F

>  <Name>  (137) 
nan

>  <Pocket>  (137) 
nan

>  <ATP_Site>  (137) 
nan

>  <Peripheral>  (137) 
nan

>  <Num_H_Atoms_ProtBoundConf>  (137) 
nan

>  <Num_Resolved_Atoms>  (137) 
nan

>  <Num_Not_Resolved_Atoms>  (137) 
nan

$$$$
CHEMBL1945171
     RDKit          3D

  0  0  0  0  0  0  0  0  0  0999 V3000
M  V30 BEGIN CTAB
M  V30 COUNTS 57 60 0 0 0
M  V30 BEGIN ATOM
M  V30 1 C -1.337889 1.582463 4.214119 0
M  V30 2 C -0.039731 1.545564 3.489360 0
M  V30 3 C 0.951178 2.404884 3.897322 0
M  V30 4 C 2.175808 2.420514 3.268274 0
M  V30 5 C 2.365737 1.544163 2.218994 0
M  V30 6 C 3.692086 1.569178 1.546784 0
M  V30 7 C 3.751593 2.527679 0.408697 0
M  V30 8 C 2.753867 2.224879 -0.681623 0
M  V30 9 N 2.923315 0.937777 -1.269830 0
M  V30 10 C 1.913647 0.764218 -2.296445 0
M  V30 11 C 4.235523 0.701121 -1.809027 0
M  V30 12 C 1.356932 0.711731 1.849608 0
M  V30 13 C 0.119613 0.650728 2.436203 0
M  V30 14 N -0.940221 -0.213276 2.059454 0
M  V30 15 C -0.942501 -1.175858 1.018016 0
M  V30 16 N 0.066612 -1.455714 0.182863 0
M  V30 17 C 0.051825 -2.367849 -0.797490 0
M  V30 18 C -1.110326 -3.085399 -0.962192 0
M  V30 19 C -2.176306 -2.839702 -0.134077 0
M  V30 20 N -2.040139 -1.904552 0.807223 0
M  V30 21 C -3.494622 -3.461726 -0.113101 0
M  V30 22 C -4.406074 -2.694872 0.563253 0
M  V30 23 C -5.678070 -3.185739 0.643825 0
M  V30 24 C -6.028675 -4.380999 0.079840 0
M  V30 25 Cl -7.659145 -5.038327 0.167559 0
M  V30 26 C -5.123822 -5.166225 -0.604843 0
M  V30 27 C -3.820568 -4.674677 -0.693692 0
M  V30 28 N -2.978969 -5.576942 -1.425554 0
M  V30 29 C -1.626505 -5.331452 -1.856627 0
M  V30 30 S -0.768601 -6.718969 -2.110870 0
M  V30 31 C -0.947964 -4.045040 -2.087359 0
M  V30 32 H -2.146030 1.864177 3.495997 0
M  V30 33 H -1.619767 0.543950 4.552595 0
M  V30 34 H -1.320984 2.286140 5.046196 0
M  V30 35 H 0.774876 3.079758 4.721159 0
M  V30 36 H 2.913585 3.115535 3.631797 0
M  V30 37 H 3.965118 0.557874 1.146962 0
M  V30 38 H 4.512487 1.812639 2.253349 0
M  V30 39 H 4.765495 2.454757 -0.034385 0
M  V30 40 H 3.624697 3.580204 0.733227 0
M  V30 41 H 1.744935 2.219397 -0.187059 0
M  V30 42 H 2.738294 3.039024 -1.417467 0
M  V30 43 H 1.585504 1.779491 -2.666413 0
M  V30 44 H 2.253590 0.227447 -3.185346 0
M  V30 45 H 0.986480 0.288521 -1.908521 0
M  V30 46 H 4.980326 0.457223 -1.035926 0
M  V30 47 H 4.620293 1.490129 -2.461600 0
M  V30 48 H 4.147599 -0.226673 -2.446310 0
M  V30 49 H 1.591650 0.074630 1.035967 0
M  V30 50 H -1.823295 -0.120338 2.626029 0
M  V30 51 H 0.939194 -2.496606 -1.404772 0
M  V30 52 H -4.073582 -1.756430 0.990243 0
M  V30 53 H -6.425523 -2.610286 1.168922 0
M  V30 54 H -5.313308 -6.122187 -1.081109 0
M  V30 55 H -3.404621 -6.502178 -1.662489 0
M  V30 56 H -1.328807 -3.539969 -3.021551 0
M  V30 57 H 0.136203 -4.277558 -2.207072 0
M  V30 END ATOM
M  V30 BEGIN BOND
M  V30 1 1 1 2
M  V30 2 2 2 3
M  V30 3 1 3 4
M  V30 4 2 4 5
M  V30 5 1 5 6
M  V30 6 1 6 7
M  V30 7 1 7 8
M  V30 8 1 8 9
M  V30 9 1 9 10
M  V30 10 1 9 11
M  V30 11 1 5 12
M  V30 12 2 12 13
M  V30 13 1 13 14
M  V30 14 1 14 15
M  V30 15 2 15 16
M  V30 16 1 16 17
M  V30 17 2 17 18
M  V30 18 1 18 19
M  V30 19 2 19 20
M  V30 20 1 19 21
M  V30 21 2 21 22
M  V30 22 1 22 23
M  V30 23 2 23 24
M  V30 24 1 24 25
M  V30 25 1 24 26
M  V30 26 2 26 27
M  V30 27 1 27 28
M  V30 28 1 28 29
M  V30 29 2 29 30
M  V30 30 1 29 31
M  V30 31 1 13 2
M  V30 32 1 20 15
M  V30 33 1 27 21
M  V30 34 1 31 18
M  V30 35 1 1 32
M  V30 36 1 1 33
M  V30 37 1 1 34
M  V30 38 1 3 35
M  V30 39 1 4 36
M  V30 40 1 6 37
M  V30 41 1 6 38
M  V30 42 1 7 39
M  V30 43 1 7 40
M  V30 44 1 8 41
M  V30 45 1 8 42
M  V30 46 1 10 43
M  V30 47 1 10 44
M  V30 48 1 10 45
M  V30 49 1 11 46
M  V30 50 1 11 47
M  V30 51 1 11 48
M  V30 52 1 12 49
M  V30 53 1 14 50
M  V30 54 1 17 51
M  V30 55 1 22 52
M  V30 56 1 23 53
M  V30 57 1 26 54
M  V30 58 1 28 55
M  V30 59 1 31 56
M  V30 60 1 31 57
M  V30 END BOND
M  V30 END CTAB
M  END
>  <Dataset>  (138) 
ChEMBL_Kinases

>  <Ligand_Instance>  (138) 
nan

>  <PDB_ID>  (138) 
nan

>  <Standardized_SMILES>  (138) 
Cc1ccc(CCCN(C)C)cc1Nc1ncc2c(n1)-c1ccc(Cl)cc1NC(=S)C2

>  <Name>  (138) 
nan

>  <Pocket>  (138) 
nan

>  <ATP_Site>  (138) 
nan

>  <Peripheral>  (138) 
nan

>  <Num_H_Atoms_ProtBoundConf>  (138) 
nan

>  <Num_Resolved_Atoms>  (138) 
nan

>  <Num_Not_Resolved_Atoms>  (138) 
nan

$$$$
CHEMBL1945172
     RDKit          3D

  0  0  0  0  0  0  0  0  0  0999 V3000
M  V30 BEGIN CTAB
M  V30 COUNTS 54 57 0 0 0
M  V30 BEGIN ATOM
M  V30 1 C 0.156006 -0.614563 2.918029 0
M  V30 2 N 1.471183 -0.544874 2.284119 0
M  V30 3 C 2.293836 -1.617689 2.795419 0
M  V30 4 C 2.036323 0.765407 2.436644 0
M  V30 5 C 3.361325 0.816675 1.720665 0
M  V30 6 C 3.222383 0.515334 0.253541 0
M  V30 7 C 2.357430 1.430822 -0.489826 0
M  V30 8 C 2.861996 2.553138 -1.119886 0
M  V30 9 C 2.169030 3.494831 -1.853966 0
M  V30 10 C 0.801750 3.241603 -1.942434 0
M  V30 11 Cl -0.171730 4.378494 -2.855066 0
M  V30 12 C 0.236798 2.140214 -1.336681 0
M  V30 13 N -1.178292 1.888287 -1.454895 0
M  V30 14 C -1.778749 0.784979 -0.790240 0
M  V30 15 N -2.684870 1.199217 0.134572 0
M  V30 16 C -3.374214 0.329271 0.890555 0
M  V30 17 C -3.173212 -1.048829 0.742172 0
M  V30 18 C -2.250896 -1.442369 -0.199949 0
M  V30 19 N -1.546286 -0.553489 -0.971787 0
M  V30 20 C -1.804719 -2.774584 -0.594568 0
M  V30 21 C -1.170792 -2.890937 -1.815373 0
M  V30 22 C -0.731324 -4.109748 -2.228938 0
M  V30 23 C -0.890171 -5.244450 -1.480377 0
M  V30 24 Cl -0.293611 -6.791100 -2.078743 0
M  V30 25 C -1.526173 -5.144521 -0.249184 0
M  V30 26 C -1.985324 -3.910988 0.197621 0
M  V30 27 N -2.593464 -4.053745 1.466492 0
M  V30 28 C -3.416673 -3.104529 2.114313 0
M  V30 29 S -3.737002 -3.541631 3.675416 0
M  V30 30 C -4.008263 -1.847250 1.644372 0
M  V30 31 C 0.998018 1.232666 -0.611850 0
M  V30 32 H -0.368264 -1.466615 2.434524 0
M  V30 33 H 0.274908 -0.830298 3.990249 0
M  V30 34 H -0.348132 0.340774 2.701194 0
M  V30 35 H 2.524705 -1.505414 3.891322 0
M  V30 36 H 1.658873 -2.550646 2.663907 0
M  V30 37 H 3.200491 -1.753015 2.209289 0
M  V30 38 H 1.390156 1.565352 2.073304 0
M  V30 39 H 2.177945 0.926435 3.544847 0
M  V30 40 H 3.884558 1.791126 1.888691 0
M  V30 41 H 4.029349 0.062920 2.168105 0
M  V30 42 H 2.933560 -0.549127 0.150195 0
M  V30 43 H 4.261198 0.564569 -0.181345 0
M  V30 44 H 3.945982 2.717536 -1.026099 0
M  V30 45 H 2.686028 4.326886 -2.295776 0
M  V30 46 H -1.773619 2.520775 -2.033283 0
M  V30 47 H -4.101268 0.689287 1.632408 0
M  V30 48 H -1.073312 -1.944895 -2.369217 0
M  V30 49 H -0.245788 -4.122519 -3.192972 0
M  V30 50 H -1.671174 -6.022421 0.374910 0
M  V30 51 H -2.401696 -4.955878 1.955918 0
M  V30 52 H -4.204917 -1.240162 2.563308 0
M  V30 53 H -5.045608 -2.024427 1.231291 0
M  V30 54 H 0.506671 0.400663 -0.166240 0
M  V30 END ATOM
M  V30 BEGIN BOND
M  V30 1 1 1 2
M  V30 2 1 2 3
M  V30 3 1 2 4
M  V30 4 1 4 5
M  V30 5 1 5 6
M  V30 6 1 6 7
M  V30 7 2 7 8
M  V30 8 1 8 9
M  V30 9 2 9 10
M  V30 10 1 10 11
M  V30 11 1 10 12
M  V30 12 1 12 13
M  V30 13 1 13 14
M  V30 14 2 14 15
M  V30 15 1 15 16
M  V30 16 2 16 17
M  V30 17 1 17 18
M  V30 18 2 18 19
M  V30 19 1 18 20
M  V30 20 2 20 21
M  V30 21 1 21 22
M  V30 22 2 22 23
M  V30 23 1 23 24
M  V30 24 1 23 25
M  V30 25 2 25 26
M  V30 26 1 26 27
M  V30 27 1 27 28
M  V30 28 2 28 29
M  V30 29 1 28 30
M  V30 30 2 12 31
M  V30 31 1 31 7
M  V30 32 1 19 14
M  V30 33 1 26 20
M  V30 34 1 30 17
M  V30 35 1 1 32
M  V30 36 1 1 33
M  V30 37 1 1 34
M  V30 38 1 3 35
M  V30 39 1 3 36
M  V30 40 1 3 37
M  V30 41 1 4 38
M  V30 42 1 4 39
M  V30 43 1 5 40
M  V30 44 1 5 41
M  V30 45 1 6 42
M  V30 46 1 6 43
M  V30 47 1 8 44
M  V30 48 1 9 45
M  V30 49 1 13 46
M  V30 50 1 16 47
M  V30 51 1 21 48
M  V30 52 1 22 49
M  V30 53 1 25 50
M  V30 54 1 27 51
M  V30 55 1 30 52
M  V30 56 1 30 53
M  V30 57 1 31 54
M  V30 END BOND
M  V30 END CTAB
M  END
>  <Dataset>  (139) 
ChEMBL_Kinases

>  <Ligand_Instance>  (139) 
nan

>  <PDB_ID>  (139) 
nan

>  <Standardized_SMILES>  (139) 
CN(C)CCCc1ccc(Cl)c(Nc2ncc3c(n2)-c2ccc(Cl)cc2NC(=S)C3)c1

>  <Name>  (139) 
nan

>  <Pocket>  (139) 
nan

>  <ATP_Site>  (139) 
nan

>  <Peripheral>  (139) 
nan

>  <Num_H_Atoms_ProtBoundConf>  (139) 
nan

>  <Num_Resolved_Atoms>  (139) 
nan

>  <Num_Not_Resolved_Atoms>  (139) 
nan

$$$$
CHEMBL1945173
     RDKit          3D

  0  0  0  0  0  0  0  0  0  0999 V3000
M  V30 BEGIN CTAB
M  V30 COUNTS 58 61 0 0 0
M  V30 BEGIN ATOM
M  V30 1 C 0.853425 -0.842127 6.100901 0
M  V30 2 O 0.604522 -1.133033 4.738257 0
M  V30 3 C 1.048502 -0.294444 3.729142 0
M  V30 4 C 1.742866 0.838180 4.074008 0
M  V30 5 C 2.206990 1.706038 3.113407 0
M  V30 6 C 1.955270 1.406885 1.790198 0
M  V30 7 C 2.462580 2.353505 0.761756 0
M  V30 8 C 1.418110 3.420996 0.463198 0
M  V30 9 C 1.937854 4.372016 -0.575424 0
M  V30 10 N 0.990439 5.418804 -0.909185 0
M  V30 11 C 1.541023 6.307421 -1.914201 0
M  V30 12 C -0.223450 4.825937 -1.436237 0
M  V30 13 C 1.264489 0.275873 1.492579 0
M  V30 14 C 0.773841 -0.631362 2.398209 0
M  V30 15 N 0.052064 -1.812430 2.079507 0
M  V30 16 C -0.315603 -2.309776 0.801237 0
M  V30 17 N -0.029174 -1.720007 -0.364458 0
M  V30 18 C -0.362594 -2.165521 -1.582019 0
M  V30 19 C -1.065140 -3.339856 -1.630897 0
M  V30 20 C -1.370698 -3.963547 -0.445780 0
M  V30 21 N -1.003931 -3.459165 0.740725 0
M  V30 22 C -2.098566 -5.206784 -0.213221 0
M  V30 23 C -2.526330 -5.338192 1.092994 0
M  V30 24 C -3.240821 -6.464223 1.505520 0
M  V30 25 C -3.506031 -7.444706 0.560823 0
M  V30 26 Cl -4.406661 -8.847405 1.113423 0
M  V30 27 C -3.092415 -7.345948 -0.757438 0
M  V30 28 C -2.378057 -6.208152 -1.146519 0
M  V30 29 N -2.017639 -6.241362 -2.528004 0
M  V30 30 C -1.466598 -5.144306 -3.283871 0
M  V30 31 S -0.849532 -5.695254 -4.712946 0
M  V30 32 C -1.361597 -3.706726 -3.025622 0
M  V30 33 H 0.286167 -1.517161 6.761716 0
M  V30 34 H 1.934914 -0.807160 6.347615 0
M  V30 35 H 0.472111 0.205415 6.282454 0
M  V30 36 H 1.920384 1.039117 5.113618 0
M  V30 37 H 2.751964 2.593249 3.402816 0
M  V30 38 H 3.422477 2.817340 1.047305 0
M  V30 39 H 2.596741 1.794198 -0.188602 0
M  V30 40 H 1.203838 3.909843 1.425293 0
M  V30 41 H 0.530835 2.907571 0.009617 0
M  V30 42 H 2.895485 4.825353 -0.249757 0
M  V30 43 H 2.150013 3.781237 -1.498092 0
M  V30 44 H 1.978898 5.769652 -2.764574 0
M  V30 45 H 2.290698 7.000422 -1.484690 0
M  V30 46 H 0.691175 6.934980 -2.305983 0
M  V30 47 H 0.082189 3.897330 -1.976786 0
M  V30 48 H -0.714232 5.493483 -2.149177 0
M  V30 49 H -0.924626 4.554717 -0.630261 0
M  V30 50 H 1.115532 0.122706 0.452874 0
M  V30 51 H -0.241050 -2.382998 2.923078 0
M  V30 52 H -0.093378 -1.630649 -2.469773 0
M  V30 53 H -2.298903 -4.547858 1.804617 0
M  V30 54 H -3.582504 -6.576139 2.535315 0
M  V30 55 H -3.307610 -8.120340 -1.482597 0
M  V30 56 H -2.192335 -7.161174 -2.964264 0
M  V30 57 H -0.503577 -3.330544 -3.651020 0
M  V30 58 H -2.257737 -3.221769 -3.433538 0
M  V30 END ATOM
M  V30 BEGIN BOND
M  V30 1 1 1 2
M  V30 2 1 2 3
M  V30 3 2 3 4
M  V30 4 1 4 5
M  V30 5 2 5 6
M  V30 6 1 6 7
M  V30 7 1 7 8
M  V30 8 1 8 9
M  V30 9 1 9 10
M  V30 10 1 10 11
M  V30 11 1 10 12
M  V30 12 1 6 13
M  V30 13 2 13 14
M  V30 14 1 14 15
M  V30 15 1 15 16
M  V30 16 2 16 17
M  V30 17 1 17 18
M  V30 18 2 18 19
M  V30 19 1 19 20
M  V30 20 2 20 21
M  V30 21 1 20 22
M  V30 22 2 22 23
M  V30 23 1 23 24
M  V30 24 2 24 25
M  V30 25 1 25 26
M  V30 26 1 25 27
M  V30 27 2 27 28
M  V30 28 1 28 29
M  V30 29 1 29 30
M  V30 30 2 30 31
M  V30 31 1 30 32
M  V30 32 1 14 3
M  V30 33 1 21 16
M  V30 34 1 28 22
M  V30 35 1 32 19
M  V30 36 1 1 33
M  V30 37 1 1 34
M  V30 38 1 1 35
M  V30 39 1 4 36
M  V30 40 1 5 37
M  V30 41 1 7 38
M  V30 42 1 7 39
M  V30 43 1 8 40
M  V30 44 1 8 41
M  V30 45 1 9 42
M  V30 46 1 9 43
M  V30 47 1 11 44
M  V30 48 1 11 45
M  V30 49 1 11 46
M  V30 50 1 12 47
M  V30 51 1 12 48
M  V30 52 1 12 49
M  V30 53 1 13 50
M  V30 54 1 15 51
M  V30 55 1 18 52
M  V30 56 1 23 53
M  V30 57 1 24 54
M  V30 58 1 27 55
M  V30 59 1 29 56
M  V30 60 1 32 57
M  V30 61 1 32 58
M  V30 END BOND
M  V30 END CTAB
M  END
>  <Dataset>  (140) 
ChEMBL_Kinases

>  <Ligand_Instance>  (140) 
nan

>  <PDB_ID>  (140) 
nan

>  <Standardized_SMILES>  (140) 
COc1ccc(CCCN(C)C)cc1Nc1ncc2c(n1)-c1ccc(Cl)cc1NC(=S)C2

>  <Name>  (140) 
nan

>  <Pocket>  (140) 
nan

>  <ATP_Site>  (140) 
nan

>  <Peripheral>  (140) 
nan

>  <Num_H_Atoms_ProtBoundConf>  (140) 
nan

>  <Num_Resolved_Atoms>  (140) 
nan

>  <Num_Not_Resolved_Atoms>  (140) 
nan

$$$$
CHEMBL194540
     RDKit          3D

  0  0  0  0  0  0  0  0  0  0999 V3000
M  V30 BEGIN CTAB
M  V30 COUNTS 45 48 0 0 0
M  V30 BEGIN ATOM
M  V30 1 N -0.114363 -4.445549 -1.104934 0
M  V30 2 S 1.466621 -4.076338 -1.671947 0
M  V30 3 O 2.497965 -4.674319 -0.799981 0
M  V30 4 O 1.631454 -4.651408 -3.059401 0
M  V30 5 C 1.669012 -2.327679 -1.769490 0
M  V30 6 C 1.865517 -1.648670 -0.575816 0
M  V30 7 C 2.040972 -0.271046 -0.563650 0
M  V30 8 C 2.014597 0.417820 -1.783715 0
M  V30 9 N 2.162834 1.851327 -1.650430 0
M  V30 10 C 1.516329 2.474229 -0.508094 0
M  V30 11 N 1.731486 3.740912 -0.138001 0
M  V30 12 C 1.067766 4.233367 0.901652 0
M  V30 13 C 0.156380 3.517999 1.641210 0
M  V30 14 C -0.679603 3.838184 2.801499 0
M  V30 15 F -0.430726 3.055322 3.895388 0
M  V30 16 F -0.474766 5.154966 3.157105 0
M  V30 17 F -2.017486 3.725339 2.397050 0
M  V30 18 C -0.073786 2.217212 1.269797 0
M  V30 19 N -0.892590 1.129678 1.705781 0
M  V30 20 C -0.820272 -0.065607 2.462461 0
M  V30 21 C 0.037921 -0.415451 3.469943 0
M  V30 22 C -0.042094 -1.673885 4.026314 0
M  V30 23 C -0.999056 -2.534067 3.532565 0
M  V30 24 N -1.281807 -3.810169 3.893306 0
M  V30 25 C -2.292142 -4.259341 3.138628 0
M  V30 26 N -2.686291 -3.307561 2.282559 0
M  V30 27 C -1.892118 -2.240755 2.521290 0
M  V30 28 C -1.776898 -0.974258 1.995225 0
M  V30 29 N 0.618460 1.735218 0.201278 0
M  V30 30 C 1.822935 -0.236433 -2.973090 0
M  V30 31 C 1.653347 -1.602487 -2.937347 0
M  V30 32 H -0.651119 -4.971732 -1.836595 0
M  V30 33 H -0.626648 -3.565937 -0.934245 0
M  V30 34 H 1.875354 -2.247889 0.350602 0
M  V30 35 H 2.194393 0.102164 0.442419 0
M  V30 36 H 2.700005 2.485759 -2.303493 0
M  V30 37 H 1.164979 5.252980 1.284828 0
M  V30 38 H -1.773105 1.492316 1.250187 0
M  V30 39 H 0.732406 0.361052 3.751462 0
M  V30 40 H 0.635980 -1.935887 4.815491 0
M  V30 41 H -0.851992 -4.420356 4.613508 0
M  V30 42 H -2.850858 -5.191843 3.058445 0
M  V30 43 H -2.509358 -0.779791 1.189909 0
M  V30 44 H 1.810108 0.334324 -3.874412 0
M  V30 45 H 1.499089 -2.164714 -3.845114 0
M  V30 END ATOM
M  V30 BEGIN BOND
M  V30 1 1 1 2
M  V30 2 2 2 3
M  V30 3 2 2 4
M  V30 4 1 2 5
M  V30 5 2 5 6
M  V30 6 1 6 7
M  V30 7 2 7 8
M  V30 8 1 8 9
M  V30 9 1 9 10
M  V30 10 2 10 11
M  V30 11 1 11 12
M  V30 12 2 12 13
M  V30 13 1 13 14
M  V30 14 1 14 15
M  V30 15 1 14 16
M  V30 16 1 14 17
M  V30 17 1 13 18
M  V30 18 1 18 19
M  V30 19 1 19 20
M  V30 20 2 20 21
M  V30 21 1 21 22
M  V30 22 2 22 23
M  V30 23 1 23 24
M  V30 24 1 24 25
M  V30 25 2 25 26
M  V30 26 1 26 27
M  V30 27 2 27 28
M  V30 28 2 18 29
M  V30 29 1 8 30
M  V30 30 2 30 31
M  V30 31 1 31 5
M  V30 32 1 29 10
M  V30 33 1 28 20
M  V30 34 1 27 23
M  V30 35 1 1 32
M  V30 36 1 1 33
M  V30 37 1 6 34
M  V30 38 1 7 35
M  V30 39 1 9 36
M  V30 40 1 12 37
M  V30 41 1 19 38
M  V30 42 1 21 39
M  V30 43 1 22 40
M  V30 44 1 24 41
M  V30 45 1 25 42
M  V30 46 1 28 43
M  V30 47 1 30 44
M  V30 48 1 31 45
M  V30 END BOND
M  V30 END CTAB
M  END
>  <Dataset>  (141) 
ChEMBL_Kinases

>  <Ligand_Instance>  (141) 
nan

>  <PDB_ID>  (141) 
nan

>  <Standardized_SMILES>  (141) 
NS(=O)(=O)c1ccc(Nc2ncc(C(F)(F)F)c(Nc3ccc4[nH]cnc4c3)n2)cc1

>  <Name>  (141) 
nan

>  <Pocket>  (141) 
nan

>  <ATP_Site>  (141) 
nan

>  <Peripheral>  (141) 
nan

>  <Num_H_Atoms_ProtBoundConf>  (141) 
nan

>  <Num_Resolved_Atoms>  (141) 
nan

>  <Num_Not_Resolved_Atoms>  (141) 
nan

$$$$
CHEMBL1945497
     RDKit          3D

  0  0  0  0  0  0  0  0  0  0999 V3000
M  V30 BEGIN CTAB
M  V30 COUNTS 58 61 0 0 0
M  V30 BEGIN ATOM
M  V30 1 C 0.739335 -1.819324 5.630693 0
M  V30 2 N 2.169853 -1.737074 5.531740 0
M  V30 3 C 2.822748 -2.770513 6.288842 0
M  V30 4 C 2.593913 -1.794375 4.161086 0
M  V30 5 C 2.177659 -0.544660 3.405520 0
M  V30 6 C 2.682599 -0.731513 1.985228 0
M  V30 7 C 2.355816 0.422263 1.107814 0
M  V30 8 C 3.323702 1.431754 1.083097 0
M  V30 9 C 3.097421 2.531163 0.283940 0
M  V30 10 C 1.957274 2.665861 -0.484351 0
M  V30 11 O 1.843287 3.818418 -1.248280 0
M  V30 12 C 1.237907 4.999909 -0.767832 0
M  V30 13 F 1.311358 5.916782 -1.806490 0
M  V30 14 F 1.912504 5.498711 0.328589 0
M  V30 15 F -0.072087 4.864124 -0.429750 0
M  V30 16 C 1.031219 1.645971 -0.428016 0
M  V30 17 N -0.133719 1.776225 -1.229968 0
M  V30 18 C -1.269973 0.934215 -1.377113 0
M  V30 19 N -2.506290 1.401519 -1.043981 0
M  V30 20 C -3.628141 0.695178 -1.135118 0
M  V30 21 C -3.560562 -0.590162 -1.591317 0
M  V30 22 C -2.338511 -1.095659 -1.934984 0
M  V30 23 N -1.197622 -0.351074 -1.833833 0
M  V30 24 C -2.042965 -2.436664 -2.430596 0
M  V30 25 C -0.726683 -2.792148 -2.227424 0
M  V30 26 C -0.329354 -4.037884 -2.649218 0
M  V30 27 C -1.199010 -4.915478 -3.255659 0
M  V30 28 Cl -0.690564 -6.513995 -3.797110 0
M  V30 29 C -2.525118 -4.563239 -3.463493 0
M  V30 30 C -2.928929 -3.307633 -3.039246 0
M  V30 31 N -4.310443 -3.073600 -3.310689 0
M  V30 32 C -5.149637 -2.018363 -2.845281 0
M  V30 33 S -6.472648 -1.682911 -3.750091 0
M  V30 34 C -4.938016 -1.192847 -1.616397 0
M  V30 35 C 1.204484 0.524220 0.352849 0
M  V30 36 H 0.269286 -2.358492 4.783145 0
M  V30 37 H 0.511361 -2.330835 6.605805 0
M  V30 38 H 0.327068 -0.790519 5.625258 0
M  V30 39 H 3.867716 -2.416729 6.453003 0
M  V30 40 H 2.860908 -3.732595 5.758437 0
M  V30 41 H 2.282233 -2.841490 7.270717 0
M  V30 42 H 2.253003 -2.714057 3.644806 0
M  V30 43 H 3.706765 -1.820094 4.148877 0
M  V30 44 H 1.073151 -0.487011 3.451488 0
M  V30 45 H 2.643937 0.300207 3.909100 0
M  V30 46 H 2.151920 -1.606644 1.507007 0
M  V30 47 H 3.760011 -0.885907 2.043171 0
M  V30 48 H 4.251787 1.388907 1.668339 0
M  V30 49 H 3.858814 3.305008 0.278961 0
M  V30 50 H -0.300687 2.586925 -1.863550 0
M  V30 51 H -4.594058 1.128353 -0.852392 0
M  V30 52 H -0.083938 -2.071029 -1.746976 0
M  V30 53 H 0.703450 -4.323581 -2.491140 0
M  V30 54 H -3.251055 -5.207759 -3.933471 0
M  V30 55 H -4.807868 -3.754004 -3.936478 0
M  V30 56 H -4.971028 -1.895073 -0.754418 0
M  V30 57 H -5.693833 -0.392985 -1.544543 0
M  V30 58 H 0.484860 -0.275645 0.398956 0
M  V30 END ATOM
M  V30 BEGIN BOND
M  V30 1 1 1 2
M  V30 2 1 2 3
M  V30 3 1 2 4
M  V30 4 1 4 5
M  V30 5 1 5 6
M  V30 6 1 6 7
M  V30 7 2 7 8
M  V30 8 1 8 9
M  V30 9 2 9 10
M  V30 10 1 10 11
M  V30 11 1 11 12
M  V30 12 1 12 13
M  V30 13 1 12 14
M  V30 14 1 12 15
M  V30 15 1 10 16
M  V30 16 1 16 17
M  V30 17 1 17 18
M  V30 18 2 18 19
M  V30 19 1 19 20
M  V30 20 2 20 21
M  V30 21 1 21 22
M  V30 22 2 22 23
M  V30 23 1 22 24
M  V30 24 2 24 25
M  V30 25 1 25 26
M  V30 26 2 26 27
M  V30 27 1 27 28
M  V30 28 1 27 29
M  V30 29 2 29 30
M  V30 30 1 30 31
M  V30 31 1 31 32
M  V30 32 2 32 33
M  V30 33 1 32 34
M  V30 34 2 16 35
M  V30 35 1 35 7
M  V30 36 1 23 18
M  V30 37 1 30 24
M  V30 38 1 34 21
M  V30 39 1 1 36
M  V30 40 1 1 37
M  V30 41 1 1 38
M  V30 42 1 3 39
M  V30 43 1 3 40
M  V30 44 1 3 41
M  V30 45 1 4 42
M  V30 46 1 4 43
M  V30 47 1 5 44
M  V30 48 1 5 45
M  V30 49 1 6 46
M  V30 50 1 6 47
M  V30 51 1 8 48
M  V30 52 1 9 49
M  V30 53 1 17 50
M  V30 54 1 20 51
M  V30 55 1 25 52
M  V30 56 1 26 53
M  V30 57 1 29 54
M  V30 58 1 31 55
M  V30 59 1 34 56
M  V30 60 1 34 57
M  V30 61 1 35 58
M  V30 END BOND
M  V30 END CTAB
M  END
>  <Dataset>  (142) 
ChEMBL_Kinases

>  <Ligand_Instance>  (142) 
nan

>  <PDB_ID>  (142) 
nan

>  <Standardized_SMILES>  (142) 
CN(C)CCCc1ccc(OC(F)(F)F)c(Nc2ncc3c(n2)-c2ccc(Cl)cc2NC(=S)C3)c1

>  <Name>  (142) 
nan

>  <Pocket>  (142) 
nan

>  <ATP_Site>  (142) 
nan

>  <Peripheral>  (142) 
nan

>  <Num_H_Atoms_ProtBoundConf>  (142) 
nan

>  <Num_Resolved_Atoms>  (142) 
nan

>  <Num_Not_Resolved_Atoms>  (142) 
nan

$$$$
CHEMBL1945498
     RDKit          3D

  0  0  0  0  0  0  0  0  0  0999 V3000
M  V30 BEGIN CTAB
M  V30 COUNTS 57 60 0 0 0
M  V30 BEGIN ATOM
M  V30 1 C 2.825641 -3.144249 3.018535 0
M  V30 2 N 2.896362 -1.867180 2.373395 0
M  V30 3 C 3.899384 -0.999307 2.931018 0
M  V30 4 C 1.587583 -1.243723 2.313943 0
M  V30 5 C 1.095893 -0.850999 3.666762 0
M  V30 6 C -0.266842 -0.206348 3.599753 0
M  V30 7 C -0.148102 1.005594 2.747826 0
M  V30 8 C 0.173672 2.186088 3.351294 0
M  V30 9 C 0.274834 3.283258 2.541896 0
M  V30 10 C 0.073348 3.257634 1.182226 0
M  V30 11 C 0.217948 4.523885 0.426012 0
M  V30 12 F 0.542193 5.561776 1.296478 0
M  V30 13 F 1.259533 4.371062 -0.491477 0
M  V30 14 F -0.925335 4.856076 -0.259331 0
M  V30 15 C -0.255734 2.066950 0.543768 0
M  V30 16 N -0.460188 2.011659 -0.857960 0
M  V30 17 C -0.839185 0.923668 -1.686476 0
M  V30 18 N -0.878211 1.145200 -3.010714 0
M  V30 19 C -1.220254 0.226985 -3.914637 0
M  V30 20 C -1.556813 -1.027473 -3.488564 0
M  V30 21 C -1.519532 -1.260756 -2.135010 0
M  V30 22 N -1.169653 -0.316002 -1.233304 0
M  V30 23 C -1.849603 -2.533522 -1.504751 0
M  V30 24 C -2.275412 -2.355699 -0.207716 0
M  V30 25 C -2.627018 -3.452887 0.546483 0
M  V30 26 C -2.549412 -4.735107 -0.009136 0
M  V30 27 Cl -2.977968 -6.178149 0.885698 0
M  V30 28 C -2.119293 -4.915649 -1.320336 0
M  V30 29 C -1.769479 -3.800837 -2.064602 0
M  V30 30 N -1.355747 -4.143910 -3.388939 0
M  V30 31 C -1.507794 -3.274881 -4.500420 0
M  V30 32 S -1.188149 -4.023771 -5.936241 0
M  V30 33 C -1.889458 -1.852060 -4.663421 0
M  V30 34 C -0.350624 0.978230 1.383698 0
M  V30 35 H 3.619833 -3.800984 2.636876 0
M  V30 36 H 1.845912 -3.607842 2.745847 0
M  V30 37 H 2.871433 -2.992439 4.121674 0
M  V30 38 H 4.060050 -0.135914 2.253143 0
M  V30 39 H 4.847764 -1.592469 2.953111 0
M  V30 40 H 3.713891 -0.681726 3.964673 0
M  V30 41 H 0.909555 -1.960752 1.811209 0
M  V30 42 H 1.694233 -0.364015 1.623831 0
M  V30 43 H 1.778749 -0.035009 4.044890 0
M  V30 44 H 1.119831 -1.746778 4.308167 0
M  V30 45 H -0.514309 0.084176 4.648380 0
M  V30 46 H -1.056839 -0.897141 3.232645 0
M  V30 47 H 0.339368 2.255639 4.406596 0
M  V30 48 H 0.533320 4.235790 3.012899 0
M  V30 49 H -0.298925 2.945573 -1.336852 0
M  V30 50 H -1.226975 0.485187 -4.967476 0
M  V30 51 H -2.322565 -1.356137 0.173683 0
M  V30 52 H -2.964956 -3.354188 1.566863 0
M  V30 53 H -2.041596 -5.892791 -1.800118 0
M  V30 54 H -0.930561 -5.092220 -3.479270 0
M  V30 55 H -3.009375 -1.820099 -4.781556 0
M  V30 56 H -1.460641 -1.415935 -5.588532 0
M  V30 57 H -0.591764 0.010770 1.004664 0
M  V30 END ATOM
M  V30 BEGIN BOND
M  V30 1 1 1 2
M  V30 2 1 2 3
M  V30 3 1 2 4
M  V30 4 1 4 5
M  V30 5 1 5 6
M  V30 6 1 6 7
M  V30 7 2 7 8
M  V30 8 1 8 9
M  V30 9 2 9 10
M  V30 10 1 10 11
M  V30 11 1 11 12
M  V30 12 1 11 13
M  V30 13 1 11 14
M  V30 14 1 10 15
M  V30 15 1 15 16
M  V30 16 1 16 17
M  V30 17 2 17 18
M  V30 18 1 18 19
M  V30 19 2 19 20
M  V30 20 1 20 21
M  V30 21 2 21 22
M  V30 22 1 21 23
M  V30 23 2 23 24
M  V30 24 1 24 25
M  V30 25 2 25 26
M  V30 26 1 26 27
M  V30 27 1 26 28
M  V30 28 2 28 29
M  V30 29 1 29 30
M  V30 30 1 30 31
M  V30 31 2 31 32
M  V30 32 1 31 33
M  V30 33 2 15 34
M  V30 34 1 34 7
M  V30 35 1 22 17
M  V30 36 1 29 23
M  V30 37 1 33 20
M  V30 38 1 1 35
M  V30 39 1 1 36
M  V30 40 1 1 37
M  V30 41 1 3 38
M  V30 42 1 3 39
M  V30 43 1 3 40
M  V30 44 1 4 41
M  V30 45 1 4 42
M  V30 46 1 5 43
M  V30 47 1 5 44
M  V30 48 1 6 45
M  V30 49 1 6 46
M  V30 50 1 8 47
M  V30 51 1 9 48
M  V30 52 1 16 49
M  V30 53 1 19 50
M  V30 54 1 24 51
M  V30 55 1 25 52
M  V30 56 1 28 53
M  V30 57 1 30 54
M  V30 58 1 33 55
M  V30 59 1 33 56
M  V30 60 1 34 57
M  V30 END BOND
M  V30 END CTAB
M  END
>  <Dataset>  (143) 
ChEMBL_Kinases

>  <Ligand_Instance>  (143) 
nan

>  <PDB_ID>  (143) 
nan

>  <Standardized_SMILES>  (143) 
CN(C)CCCc1ccc(C(F)(F)F)c(Nc2ncc3c(n2)-c2ccc(Cl)cc2NC(=S)C3)c1

>  <Name>  (143) 
nan

>  <Pocket>  (143) 
nan

>  <ATP_Site>  (143) 
nan

>  <Peripheral>  (143) 
nan

>  <Num_H_Atoms_ProtBoundConf>  (143) 
nan

>  <Num_Resolved_Atoms>  (143) 
nan

>  <Num_Not_Resolved_Atoms>  (143) 
nan

$$$$
CHEMBL1945499
     RDKit          3D

  0  0  0  0  0  0  0  0  0  0999 V3000
M  V30 BEGIN CTAB
M  V30 COUNTS 63 66 0 0 0
M  V30 BEGIN ATOM
M  V30 1 C 3.067744 -1.566975 3.568545 0
M  V30 2 C 3.023623 -0.069815 3.300871 0
M  V30 3 C 2.446026 0.727864 4.432814 0
M  V30 4 C 2.437467 0.253254 1.974791 0
M  V30 5 C 3.284462 0.490368 0.887562 0
M  V30 6 C 2.773011 0.799509 -0.344687 0
M  V30 7 C 1.421806 0.890763 -0.570742 0
M  V30 8 C 0.890786 1.219861 -1.900120 0
M  V30 9 C 0.610041 0.017302 -2.769794 0
M  V30 10 C 1.880409 -0.784631 -3.002754 0
M  V30 11 N 2.885234 0.024548 -3.665434 0
M  V30 12 C 4.080463 -0.721310 -3.890535 0
M  V30 13 C 2.397983 0.555511 -4.918447 0
M  V30 14 C 0.576070 0.663289 0.475553 0
M  V30 15 C 1.089779 0.351997 1.715372 0
M  V30 16 N 0.165262 0.116755 2.737512 0
M  V30 17 C -1.254780 0.204388 2.552242 0
M  V30 18 N -2.028481 1.269253 2.746276 0
M  V30 19 C -3.347786 1.162506 2.513334 0
M  V30 20 C -3.971069 0.010859 2.080257 0
M  V30 21 C -3.152720 -1.078778 1.885559 0
M  V30 22 N -1.830827 -0.936321 2.129565 0
M  V30 23 C -3.546948 -2.408192 1.434824 0
M  V30 24 C -2.410431 -3.220776 1.367312 0
M  V30 25 C -2.574370 -4.532919 0.955516 0
M  V30 26 C -3.837531 -5.000750 0.626329 0
M  V30 27 Cl -3.908298 -6.692963 0.116897 0
M  V30 28 C -4.960213 -4.198510 0.692925 0
M  V30 29 C -4.803091 -2.874025 1.107312 0
M  V30 30 N -6.055734 -2.204934 1.115018 0
M  V30 31 C -6.240638 -0.879925 1.593996 0
M  V30 32 S -7.832996 -0.510229 1.838050 0
M  V30 33 C -5.400787 0.262433 1.935354 0
M  V30 34 H 2.279291 -1.854181 4.319884 0
M  V30 35 H 4.018641 -1.889520 4.040167 0
M  V30 36 H 2.962843 -2.161730 2.637477 0
M  V30 37 H 4.123016 0.225275 3.279237 0
M  V30 38 H 1.948203 0.117024 5.217860 0
M  V30 39 H 3.230311 1.302746 5.014809 0
M  V30 40 H 1.792749 1.514822 3.994702 0
M  V30 41 H 4.366782 0.416364 1.070752 0
M  V30 42 H 3.515946 0.964246 -1.113056 0
M  V30 43 H 1.661946 1.814297 -2.472582 0
M  V30 44 H -0.041739 1.832076 -1.854674 0
M  V30 45 H 0.354382 0.448657 -3.780932 0
M  V30 46 H -0.216095 -0.597288 -2.417418 0
M  V30 47 H 2.242937 -1.087499 -1.987612 0
M  V30 48 H 1.692966 -1.708907 -3.555138 0
M  V30 49 H 3.862877 -1.809281 -3.961016 0
M  V30 50 H 4.773997 -0.578910 -3.018327 0
M  V30 51 H 4.569982 -0.411202 -4.833358 0
M  V30 52 H 1.574545 -0.033146 -5.353095 0
M  V30 53 H 2.166246 1.652039 -4.823789 0
M  V30 54 H 3.232741 0.538419 -5.679041 0
M  V30 55 H -0.485852 0.737641 0.289971 0
M  V30 56 H 0.102620 -0.140258 3.742637 0
M  V30 57 H -3.939500 2.068441 2.688890 0
M  V30 58 H -1.414725 -2.845026 1.628887 0
M  V30 59 H -1.670949 -5.153881 0.909082 0
M  V30 60 H -5.921376 -4.625206 0.421752 0
M  V30 61 H -6.883319 -2.740874 0.738666 0
M  V30 62 H -5.653415 1.089876 1.225185 0
M  V30 63 H -5.774979 0.643016 2.929099 0
M  V30 END ATOM
M  V30 BEGIN BOND
M  V30 1 1 1 2
M  V30 2 1 2 3
M  V30 3 1 2 4
M  V30 4 2 4 5
M  V30 5 1 5 6
M  V30 6 2 6 7
M  V30 7 1 7 8
M  V30 8 1 8 9
M  V30 9 1 9 10
M  V30 10 1 10 11
M  V30 11 1 11 12
M  V30 12 1 11 13
M  V30 13 1 7 14
M  V30 14 2 14 15
M  V30 15 1 15 16
M  V30 16 1 16 17
M  V30 17 2 17 18
M  V30 18 1 18 19
M  V30 19 2 19 20
M  V30 20 1 20 21
M  V30 21 2 21 22
M  V30 22 1 21 23
M  V30 23 2 23 24
M  V30 24 1 24 25
M  V30 25 2 25 26
M  V30 26 1 26 27
M  V30 27 1 26 28
M  V30 28 2 28 29
M  V30 29 1 29 30
M  V30 30 1 30 31
M  V30 31 2 31 32
M  V30 32 1 31 33
M  V30 33 1 15 4
M  V30 34 1 22 17
M  V30 35 1 29 23
M  V30 36 1 33 20
M  V30 37 1 1 34
M  V30 38 1 1 35
M  V30 39 1 1 36
M  V30 40 1 2 37
M  V30 41 1 3 38
M  V30 42 1 3 39
M  V30 43 1 3 40
M  V30 44 1 5 41
M  V30 45 1 6 42
M  V30 46 1 8 43
M  V30 47 1 8 44
M  V30 48 1 9 45
M  V30 49 1 9 46
M  V30 50 1 10 47
M  V30 51 1 10 48
M  V30 52 1 12 49
M  V30 53 1 12 50
M  V30 54 1 12 51
M  V30 55 1 13 52
M  V30 56 1 13 53
M  V30 57 1 13 54
M  V30 58 1 14 55
M  V30 59 1 16 56
M  V30 60 1 19 57
M  V30 61 1 24 58
M  V30 62 1 25 59
M  V30 63 1 28 60
M  V30 64 1 30 61
M  V30 65 1 33 62
M  V30 66 1 33 63
M  V30 END BOND
M  V30 END CTAB
M  END
>  <Dataset>  (144) 
ChEMBL_Kinases

>  <Ligand_Instance>  (144) 
nan

>  <PDB_ID>  (144) 
nan

>  <Standardized_SMILES>  (144) 
CC(C)c1ccc(CCCN(C)C)cc1Nc1ncc2c(n1)-c1ccc(Cl)cc1NC(=S)C2

>  <Name>  (144) 
nan

>  <Pocket>  (144) 
nan

>  <ATP_Site>  (144) 
nan

>  <Peripheral>  (144) 
nan

>  <Num_H_Atoms_ProtBoundConf>  (144) 
nan

>  <Num_Resolved_Atoms>  (144) 
nan

>  <Num_Not_Resolved_Atoms>  (144) 
nan

$$$$
CHEMBL1945500
     RDKit          3D

  0  0  0  0  0  0  0  0  0  0999 V3000
M  V30 BEGIN CTAB
M  V30 COUNTS 54 57 0 0 0
M  V30 BEGIN ATOM
M  V30 1 C 0.164124 -0.331208 3.025740 0
M  V30 2 N 1.340309 -0.567106 2.196542 0
M  V30 3 C 2.031199 -1.734877 2.696286 0
M  V30 4 C 2.143951 0.597809 2.042869 0
M  V30 5 C 3.318738 0.306808 1.147667 0
M  V30 6 C 2.913628 -0.119268 -0.228819 0
M  V30 7 C 2.135683 0.897193 -0.971057 0
M  V30 8 C 2.775315 1.787413 -1.817486 0
M  V30 9 C 2.053731 2.744358 -2.515030 0
M  V30 10 Cl 2.825402 3.890103 -3.595058 0
M  V30 11 C 0.678896 2.832402 -2.381810 0
M  V30 12 C -0.020873 1.960355 -1.540563 0
M  V30 13 N -1.450295 2.001741 -1.345615 0
M  V30 14 C -2.086356 1.089788 -0.423066 0
M  V30 15 N -2.942737 1.443942 0.531481 0
M  V30 16 C -3.474655 0.499759 1.358933 0
M  V30 17 C -3.163901 -0.840160 1.255680 0
M  V30 18 C -2.287499 -1.180075 0.271394 0
M  V30 19 N -1.799997 -0.223095 -0.504474 0
M  V30 20 C -1.709729 -2.460185 -0.151182 0
M  V30 21 C -0.997619 -2.314234 -1.346735 0
M  V30 22 C -0.401231 -3.432716 -1.856151 0
M  V30 23 C -0.487856 -4.658313 -1.230678 0
M  V30 24 Cl 0.306619 -6.011788 -1.960419 0
M  V30 25 C -1.211060 -4.756130 -0.034892 0
M  V30 26 C -1.831672 -3.653444 0.518843 0
M  V30 27 N -2.521989 -3.927004 1.737216 0
M  V30 28 C -3.230865 -2.974171 2.541015 0
M  V30 29 S -3.357881 -3.511404 4.103644 0
M  V30 30 C -3.835013 -1.673927 2.244015 0
M  V30 31 C 0.773468 1.050176 -0.893560 0
M  V30 32 H -0.565785 -1.117311 2.742445 0
M  V30 33 H 0.388663 -0.477722 4.098406 0
M  V30 34 H -0.228686 0.673482 2.883593 0
M  V30 35 H 1.521970 -2.160373 3.594430 0
M  V30 36 H 2.043947 -2.494877 1.875349 0
M  V30 37 H 3.039646 -1.450602 3.010944 0
M  V30 38 H 1.550144 1.403304 1.559538 0
M  V30 39 H 2.465333 0.911507 3.063557 0
M  V30 40 H 3.936758 1.233758 1.010183 0
M  V30 41 H 3.990433 -0.446241 1.571227 0
M  V30 42 H 3.817428 -0.334692 -0.839603 0
M  V30 43 H 2.351244 -1.083908 -0.217208 0
M  V30 44 H 3.851141 1.786919 -1.978584 0
M  V30 45 H 0.103447 3.571369 -2.920821 0
M  V30 46 H -1.937322 2.729900 -1.920933 0
M  V30 47 H -4.166526 0.866959 2.114779 0
M  V30 48 H -0.934349 -1.343280 -1.831627 0
M  V30 49 H 0.156866 -3.304992 -2.798702 0
M  V30 50 H -1.285511 -5.706930 0.460538 0
M  V30 51 H -2.473814 -4.921054 2.022428 0
M  V30 52 H -3.835266 -1.116157 3.231135 0
M  V30 53 H -4.908622 -1.798466 2.014451 0
M  V30 54 H 0.359989 0.323213 -0.211558 0
M  V30 END ATOM
M  V30 BEGIN BOND
M  V30 1 1 1 2
M  V30 2 1 2 3
M  V30 3 1 2 4
M  V30 4 1 4 5
M  V30 5 1 5 6
M  V30 6 1 6 7
M  V30 7 2 7 8
M  V30 8 1 8 9
M  V30 9 1 9 10
M  V30 10 2 9 11
M  V30 11 1 11 12
M  V30 12 1 12 13
M  V30 13 1 13 14
M  V30 14 2 14 15
M  V30 15 1 15 16
M  V30 16 2 16 17
M  V30 17 1 17 18
M  V30 18 2 18 19
M  V30 19 1 18 20
M  V30 20 2 20 21
M  V30 21 1 21 22
M  V30 22 2 22 23
M  V30 23 1 23 24
M  V30 24 1 23 25
M  V30 25 2 25 26
M  V30 26 1 26 27
M  V30 27 1 27 28
M  V30 28 2 28 29
M  V30 29 1 28 30
M  V30 30 2 12 31
M  V30 31 1 31 7
M  V30 32 1 19 14
M  V30 33 1 26 20
M  V30 34 1 30 17
M  V30 35 1 1 32
M  V30 36 1 1 33
M  V30 37 1 1 34
M  V30 38 1 3 35
M  V30 39 1 3 36
M  V30 40 1 3 37
M  V30 41 1 4 38
M  V30 42 1 4 39
M  V30 43 1 5 40
M  V30 44 1 5 41
M  V30 45 1 6 42
M  V30 46 1 6 43
M  V30 47 1 8 44
M  V30 48 1 11 45
M  V30 49 1 13 46
M  V30 50 1 16 47
M  V30 51 1 21 48
M  V30 52 1 22 49
M  V30 53 1 25 50
M  V30 54 1 27 51
M  V30 55 1 30 52
M  V30 56 1 30 53
M  V30 57 1 31 54
M  V30 END BOND
M  V30 END CTAB
M  END
>  <Dataset>  (145) 
ChEMBL_Kinases

>  <Ligand_Instance>  (145) 
nan

>  <PDB_ID>  (145) 
nan

>  <Standardized_SMILES>  (145) 
CN(C)CCCc1cc(Cl)cc(Nc2ncc3c(n2)-c2ccc(Cl)cc2NC(=S)C3)c1

>  <Name>  (145) 
nan

>  <Pocket>  (145) 
nan

>  <ATP_Site>  (145) 
nan

>  <Peripheral>  (145) 
nan

>  <Num_H_Atoms_ProtBoundConf>  (145) 
nan

>  <Num_Resolved_Atoms>  (145) 
nan

>  <Num_Not_Resolved_Atoms>  (145) 
nan

$$$$
CHEMBL1945170
     RDKit          3D

  0  0  0  0  0  0  0  0  0  0999 V3000
M  V30 BEGIN CTAB
M  V30 COUNTS 54 57 0 0 0
M  V30 BEGIN ATOM
M  V30 1 C 2.055463 2.308897 2.672237 0
M  V30 2 N 1.881799 0.926850 2.286976 0
M  V30 3 C 0.694404 0.369448 2.911091 0
M  V30 4 C 3.029949 0.103724 2.456548 0
M  V30 5 C 4.102460 0.502117 1.480386 0
M  V30 6 C 3.713766 0.369024 0.036544 0
M  V30 7 C 2.564826 1.184082 -0.369072 0
M  V30 8 C 2.868380 2.478596 -0.790256 0
M  V30 9 C 1.941948 3.384975 -1.224719 0
M  V30 10 C 0.606652 3.051620 -1.270002 0
M  V30 11 C 0.282441 1.771575 -0.856101 0
M  V30 12 N -1.053812 1.328361 -0.886693 0
M  V30 13 C -1.731272 0.192191 -0.376472 0
M  V30 14 N -2.479272 0.524957 0.714881 0
M  V30 15 C -3.212672 -0.388260 1.374515 0
M  V30 16 C -3.230464 -1.704385 0.963242 0
M  V30 17 C -2.473643 -2.027656 -0.133749 0
M  V30 18 N -1.743709 -1.094690 -0.783977 0
M  V30 19 C -2.259696 -3.302943 -0.806602 0
M  V30 20 C -1.742574 -3.252728 -2.082868 0
M  V30 21 C -1.490047 -4.384664 -2.816488 0
M  V30 22 C -1.776553 -5.596228 -2.223559 0
M  V30 23 Cl -1.468636 -7.083160 -3.123975 0
M  V30 24 C -2.296692 -5.695464 -0.945601 0
M  V30 25 C -2.548977 -4.539297 -0.209806 0
M  V30 26 N -3.086644 -4.825566 1.100433 0
M  V30 27 C -3.533880 -3.889062 2.104308 0
M  V30 28 S -3.331430 -4.441780 3.629325 0
M  V30 29 C -4.111558 -2.578306 1.796351 0
M  V30 30 C 1.219303 0.860128 -0.418732 0
M  V30 31 H 1.199009 2.858381 2.193488 0
M  V30 32 H 2.964786 2.755691 2.262972 0
M  V30 33 H 1.962856 2.458758 3.784897 0
M  V30 34 H 0.620344 -0.691748 2.539051 0
M  V30 35 H 0.732523 0.372542 4.016391 0
M  V30 36 H -0.181697 0.885498 2.524739 0
M  V30 37 H 2.732066 -0.969301 2.312712 0
M  V30 38 H 3.442004 0.175712 3.502934 0
M  V30 39 H 4.998294 -0.135719 1.721786 0
M  V30 40 H 4.460318 1.538578 1.671020 0
M  V30 41 H 4.598906 0.650772 -0.608422 0
M  V30 42 H 3.498741 -0.707299 -0.195173 0
M  V30 43 H 3.882180 2.858842 -0.801319 0
M  V30 44 H 2.189664 4.386683 -1.548441 0
M  V30 45 H -0.216667 3.672205 -1.589710 0
M  V30 46 H -1.773393 1.926988 -1.386913 0
M  V30 47 H -3.820563 -0.158575 2.248218 0
M  V30 48 H -1.552847 -2.247383 -2.457972 0
M  V30 49 H -1.087474 -4.282112 -3.801364 0
M  V30 50 H -2.526925 -6.657532 -0.464665 0
M  V30 51 H -3.153689 -5.854543 1.339346 0
M  V30 52 H -5.111240 -2.703852 1.290181 0
M  V30 53 H -4.352978 -2.057968 2.742645 0
M  V30 54 H 0.996883 -0.150424 -0.095867 0
M  V30 END ATOM
M  V30 BEGIN BOND
M  V30 1 1 1 2
M  V30 2 1 2 3
M  V30 3 1 2 4
M  V30 4 1 4 5
M  V30 5 1 5 6
M  V30 6 1 6 7
M  V30 7 2 7 8
M  V30 8 1 8 9
M  V30 9 2 9 10
M  V30 10 1 10 11
M  V30 11 1 11 12
M  V30 12 1 12 13
M  V30 13 2 13 14
M  V30 14 1 14 15
M  V30 15 2 15 16
M  V30 16 1 16 17
M  V30 17 2 17 18
M  V30 18 1 17 19
M  V30 19 2 19 20
M  V30 20 1 20 21
M  V30 21 2 21 22
M  V30 22 1 22 23
M  V30 23 1 22 24
M  V30 24 2 24 25
M  V30 25 1 25 26
M  V30 26 1 26 27
M  V30 27 2 27 28
M  V30 28 1 27 29
M  V30 29 2 11 30
M  V30 30 1 30 7
M  V30 31 1 18 13
M  V30 32 1 25 19
M  V30 33 1 29 16
M  V30 34 1 1 31
M  V30 35 1 1 32
M  V30 36 1 1 33
M  V30 37 1 3 34
M  V30 38 1 3 35
M  V30 39 1 3 36
M  V30 40 1 4 37
M  V30 41 1 4 38
M  V30 42 1 5 39
M  V30 43 1 5 40
M  V30 44 1 6 41
M  V30 45 1 6 42
M  V30 46 1 8 43
M  V30 47 1 9 44
M  V30 48 1 10 45
M  V30 49 1 12 46
M  V30 50 1 15 47
M  V30 51 1 20 48
M  V30 52 1 21 49
M  V30 53 1 24 50
M  V30 54 1 26 51
M  V30 55 1 29 52
M  V30 56 1 29 53
M  V30 57 1 30 54
M  V30 END BOND
M  V30 END CTAB
M  END
>  <Dataset>  (146) 
ChEMBL_Kinases

>  <Ligand_Instance>  (146) 
nan

>  <PDB_ID>  (146) 
nan

>  <Standardized_SMILES>  (146) 
CN(C)CCCc1cccc(Nc2ncc3c(n2)-c2ccc(Cl)cc2NC(=S)C3)c1

>  <Name>  (146) 
nan

>  <Pocket>  (146) 
nan

>  <ATP_Site>  (146) 
nan

>  <Peripheral>  (146) 
nan

>  <Num_H_Atoms_ProtBoundConf>  (146) 
nan

>  <Num_Resolved_Atoms>  (146) 
nan

>  <Num_Not_Resolved_Atoms>  (146) 
nan

$$$$
CHEMBL1952113
     RDKit          3D

  0  0  0  0  0  0  0  0  0  0999 V3000
M  V30 BEGIN CTAB
M  V30 COUNTS 47 50 0 0 0
M  V30 BEGIN ATOM
M  V30 1 F 4.701589 -1.124661 4.651371 0
M  V30 2 C 3.795856 -1.089273 3.629231 0
M  V30 3 F 2.769351 -0.208767 4.001391 0
M  V30 4 F 3.302758 -2.348317 3.407742 0
M  V30 5 O 4.445101 -0.532051 2.491685 0
M  V30 6 C 3.799499 -0.364036 1.291466 0
M  V30 7 C 3.826268 -1.385059 0.355051 0
M  V30 8 C 3.151401 -1.151255 -0.842159 0
M  V30 9 C 2.503924 0.054606 -1.037367 0
M  V30 10 C 2.496459 1.068493 -0.067925 0
M  V30 11 N 1.738073 2.161388 -0.586935 0
M  V30 12 N 1.982076 3.233297 -1.320389 0
M  V30 13 N 0.854004 3.900775 -1.515583 0
M  V30 14 C -0.142646 3.252042 -0.898662 0
M  V30 15 C -1.484517 3.557483 -0.823395 0
M  V30 16 C -2.324683 2.723191 -0.121376 0
M  V30 17 C -1.759336 1.615899 0.473196 0
M  V30 18 N -2.295901 0.529590 1.266190 0
M  V30 19 C -2.453558 -0.728222 0.576877 0
M  V30 20 C -2.906209 -1.830217 1.518000 0
M  V30 21 C -1.914263 -2.028817 2.640546 0
M  V30 22 C -0.527501 -2.249420 2.125339 0
M  V30 23 N -0.415616 -3.023296 0.962960 0
M  V30 24 C -1.492726 -3.363590 0.160151 0
M  V30 25 C -2.884017 -3.090097 0.660984 0
M  V30 26 N -0.453997 1.314143 0.402823 0
M  V30 27 C 0.401988 2.122674 -0.288273 0
M  V30 28 C 3.159101 0.835417 1.104904 0
M  V30 29 H 4.356530 -2.300587 0.581941 0
M  V30 30 H 3.198848 -1.969164 -1.541005 0
M  V30 31 H 2.031884 0.054604 -2.032235 0
M  V30 32 H -1.986051 4.403722 -1.263158 0
M  V30 33 H -3.376072 2.741240 0.076666 0
M  V30 34 H -2.529069 0.701185 2.256722 0
M  V30 35 H -3.228619 -0.680181 -0.234738 0
M  V30 36 H -1.507867 -1.090826 0.111940 0
M  V30 37 H -3.911628 -1.686753 1.891706 0
M  V30 38 H -1.956659 -1.129297 3.282063 0
M  V30 39 H -2.261536 -2.884401 3.249728 0
M  V30 40 H -0.091474 -1.238938 1.937745 0
M  V30 41 H 0.072729 -2.698149 2.936868 0
M  V30 42 H 0.473191 -3.489549 0.810002 0
M  V30 43 H -1.438595 -4.480028 -0.025901 0
M  V30 44 H -1.365721 -2.916484 -0.864494 0
M  V30 45 H -3.516241 -2.863886 -0.222400 0
M  V30 46 H -3.324346 -3.951857 1.191708 0
M  V30 47 H 3.078305 1.683161 1.760599 0
M  V30 END ATOM
M  V30 BEGIN BOND
M  V30 1 1 1 2
M  V30 2 1 2 3
M  V30 3 1 2 4
M  V30 4 1 2 5
M  V30 5 1 5 6
M  V30 6 2 6 7
M  V30 7 1 7 8
M  V30 8 2 8 9
M  V30 9 1 9 10
M  V30 10 1 10 11
M  V30 11 1 11 12
M  V30 12 2 12 13
M  V30 13 1 13 14
M  V30 14 2 14 15
M  V30 15 1 15 16
M  V30 16 2 16 17
M  V30 17 1 17 18
M  V30 18 1 18 19
M  V30 19 1 19 20
M  V30 20 1 20 21
M  V30 21 1 21 22
M  V30 22 1 22 23
M  V30 23 1 23 24
M  V30 24 1 24 25
M  V30 25 1 17 26
M  V30 26 2 26 27
M  V30 27 2 10 28
M  V30 28 1 28 6
M  V30 29 1 27 11
M  V30 30 1 27 14
M  V30 31 1 25 20
M  V30 32 1 7 29
M  V30 33 1 8 30
M  V30 34 1 9 31
M  V30 35 1 15 32
M  V30 36 1 16 33
M  V30 37 1 18 34
M  V30 38 1 19 35
M  V30 39 1 19 36
M  V30 40 1 20 37
M  V30 41 1 21 38
M  V30 42 1 21 39
M  V30 43 1 22 40
M  V30 44 1 22 41
M  V30 45 1 23 42
M  V30 46 1 24 43
M  V30 47 1 24 44
M  V30 48 1 25 45
M  V30 49 1 25 46
M  V30 50 1 28 47
M  V30 END BOND
M  V30 END CTAB
M  END
>  <Dataset>  (147) 
ChEMBL_Kinases

>  <Ligand_Instance>  (147) 
nan

>  <PDB_ID>  (147) 
nan

>  <Standardized_SMILES>  (147) 
FC(F)(F)Oc1cccc(-n2nnc3ccc(NCC4CCNCC4)nc32)c1

>  <Name>  (147) 
nan

>  <Pocket>  (147) 
nan

>  <ATP_Site>  (147) 
nan

>  <Peripheral>  (147) 
nan

>  <Num_H_Atoms_ProtBoundConf>  (147) 
nan

>  <Num_Resolved_Atoms>  (147) 
nan

>  <Num_Not_Resolved_Atoms>  (147) 
nan

$$$$
CHEMBL1952112
     RDKit          3D

  0  0  0  0  0  0  0  0  0  0999 V3000
M  V30 BEGIN CTAB
M  V30 COUNTS 50 53 0 0 0
M  V30 BEGIN ATOM
M  V30 1 C -0.084109 -4.484946 0.198628 0
M  V30 2 N 0.447170 -3.894287 1.437554 0
M  V30 3 C -0.322043 -2.765798 1.854364 0
M  V30 4 C 0.582080 -1.521490 1.710879 0
M  V30 5 C 1.736499 -1.613076 2.653772 0
M  V30 6 C 2.560249 -0.369690 2.709313 0
M  V30 7 N 3.167334 0.050968 1.474687 0
M  V30 8 C 2.656318 0.616159 0.276489 0
M  V30 9 C 3.501323 0.851233 -0.815357 0
M  V30 10 C 3.023689 1.414963 -1.971274 0
M  V30 11 C 1.697520 1.763670 -2.084450 0
M  V30 12 N 0.955079 2.320438 -3.069552 0
M  V30 13 N -0.304365 2.434521 -2.625846 0
M  V30 14 N -0.329199 1.955845 -1.391810 0
M  V30 15 C -1.527453 1.925885 -0.617178 0
M  V30 16 C -2.271886 3.083908 -0.525165 0
M  V30 17 C -3.428087 3.015433 0.239942 0
M  V30 18 C -3.817129 1.852450 0.877195 0
M  V30 19 C -3.037124 0.716936 0.754698 0
M  V30 20 O -3.463806 -0.424088 1.409166 0
M  V30 21 C -4.320543 -1.380067 0.809098 0
M  V30 22 F -5.522624 -0.855141 0.433647 0
M  V30 23 F -3.680611 -1.917674 -0.284416 0
M  V30 24 F -4.525034 -2.361212 1.771491 0
M  V30 25 C -1.880062 0.744750 0.002358 0
M  V30 26 C 0.869341 1.531853 -1.011106 0
M  V30 27 N 1.377536 0.980243 0.096563 0
M  V30 28 C 2.541513 -2.825478 2.234056 0
M  V30 29 C 1.840503 -3.687740 1.240509 0
M  V30 30 H -0.742024 -3.733224 -0.326935 0
M  V30 31 H 0.735347 -4.733289 -0.517186 0
M  V30 32 H -0.663450 -5.387839 0.446566 0
M  V30 33 H -1.141078 -2.603095 1.119519 0
M  V30 34 H -0.721999 -2.847248 2.890193 0
M  V30 35 H -0.023360 -0.624148 1.862701 0
M  V30 36 H 1.005124 -1.650209 0.689048 0
M  V30 37 H 1.402864 -1.813926 3.705306 0
M  V30 38 H 3.368470 -0.578197 3.472389 0
M  V30 39 H 1.956783 0.453286 3.174142 0
M  V30 40 H 4.228473 -0.093736 1.455259 0
M  V30 41 H 4.565317 0.585719 -0.760920 0
M  V30 42 H 3.725385 1.571150 -2.778262 0
M  V30 43 H -1.928895 3.975073 -1.041399 0
M  V30 44 H -3.987401 3.941359 0.290871 0
M  V30 45 H -4.729544 1.836997 1.468755 0
M  V30 46 H -1.265753 -0.110265 -0.109530 0
M  V30 47 H 3.501241 -2.498858 1.762926 0
M  V30 48 H 2.829543 -3.442582 3.103103 0
M  V30 49 H 1.991628 -3.350212 0.181699 0
M  V30 50 H 2.352772 -4.696761 1.292764 0
M  V30 END ATOM
M  V30 BEGIN BOND
M  V30 1 1 1 2
M  V30 2 1 2 3
M  V30 3 1 3 4
M  V30 4 1 4 5
M  V30 5 1 5 6
M  V30 6 1 6 7
M  V30 7 1 7 8
M  V30 8 2 8 9
M  V30 9 1 9 10
M  V30 10 2 10 11
M  V30 11 1 11 12
M  V30 12 2 12 13
M  V30 13 1 13 14
M  V30 14 1 14 15
M  V30 15 2 15 16
M  V30 16 1 16 17
M  V30 17 2 17 18
M  V30 18 1 18 19
M  V30 19 1 19 20
M  V30 20 1 20 21
M  V30 21 1 21 22
M  V30 22 1 21 23
M  V30 23 1 21 24
M  V30 24 2 19 25
M  V30 25 1 14 26
M  V30 26 2 26 27
M  V30 27 1 5 28
M  V30 28 1 28 29
M  V30 29 1 29 2
M  V30 30 1 27 8
M  V30 31 1 26 11
M  V30 32 1 25 15
M  V30 33 1 1 30
M  V30 34 1 1 31
M  V30 35 1 1 32
M  V30 36 1 3 33
M  V30 37 1 3 34
M  V30 38 1 4 35
M  V30 39 1 4 36
M  V30 40 1 5 37
M  V30 41 1 6 38
M  V30 42 1 6 39
M  V30 43 1 7 40
M  V30 44 1 9 41
M  V30 45 1 10 42
M  V30 46 1 16 43
M  V30 47 1 17 44
M  V30 48 1 18 45
M  V30 49 1 25 46
M  V30 50 1 28 47
M  V30 51 1 28 48
M  V30 52 1 29 49
M  V30 53 1 29 50
M  V30 END BOND
M  V30 END CTAB
M  END
>  <Dataset>  (148) 
ChEMBL_Kinases

>  <Ligand_Instance>  (148) 
nan

>  <PDB_ID>  (148) 
nan

>  <Standardized_SMILES>  (148) 
CN1CCC(CNc2ccc3nnn(-c4cccc(OC(F)(F)F)c4)c3n2)CC1

>  <Name>  (148) 
nan

>  <Pocket>  (148) 
nan

>  <ATP_Site>  (148) 
nan

>  <Peripheral>  (148) 
nan

>  <Num_H_Atoms_ProtBoundConf>  (148) 
nan

>  <Num_Resolved_Atoms>  (148) 
nan

>  <Num_Not_Resolved_Atoms>  (148) 
nan

$$$$
CHEMBL1952107
     RDKit          3D

  0  0  0  0  0  0  0  0  0  0999 V3000
M  V30 BEGIN CTAB
M  V30 COUNTS 39 42 0 0 0
M  V30 BEGIN ATOM
M  V30 1 O 0.872734 -3.006693 5.183488 0
M  V30 2 C 1.356094 -2.543892 3.946177 0
M  V30 3 C 1.133563 -3.220413 2.758713 0
M  V30 4 C 1.640843 -2.703986 1.576628 0
M  V30 5 C 2.370950 -1.512117 1.576136 0
M  V30 6 N 2.809635 -1.143542 0.258549 0
M  V30 7 N 3.867271 -1.627006 -0.401485 0
M  V30 8 N 3.943156 -1.032984 -1.602403 0
M  V30 9 C 2.929062 -0.174682 -1.693781 0
M  V30 10 C 2.437991 0.721350 -2.619575 0
M  V30 11 C 1.322749 1.505561 -2.427078 0
M  V30 12 C 0.620952 1.407015 -1.219610 0
M  V30 13 N -0.541632 2.137897 -0.856339 0
M  V30 14 C -1.318636 2.096761 0.346134 0
M  V30 15 C -1.927478 0.800848 0.660450 0
M  V30 16 C -1.449189 -0.239748 1.428341 0
M  V30 17 C -2.169579 -1.400441 1.608598 0
M  V30 18 C -3.408600 -1.587837 1.032413 0
M  V30 19 F -4.015118 -2.772242 1.285723 0
M  V30 20 C -3.914180 -0.569853 0.261119 0
M  V30 21 C -3.186645 0.587274 0.086370 0
M  V30 22 N 1.114946 0.528554 -0.330361 0
M  V30 23 C 2.196449 -0.226605 -0.526829 0
M  V30 24 C 2.584518 -0.853092 2.752718 0
M  V30 25 C 2.080065 -1.366363 3.929251 0
M  V30 26 H 0.286173 -3.810965 5.246311 0
M  V30 27 H 0.557967 -4.145319 2.815015 0
M  V30 28 H 1.400578 -3.321488 0.722444 0
M  V30 29 H 2.952215 0.829094 -3.569484 0
M  V30 30 H 0.923976 2.209019 -3.134628 0
M  V30 31 H -0.820264 2.797072 -1.647046 0
M  V30 32 H -2.103615 2.879489 0.278806 0
M  V30 33 H -0.642761 2.459413 1.163776 0
M  V30 34 H -0.480747 -0.054748 1.864856 0
M  V30 35 H -1.693775 -2.142849 2.228851 0
M  V30 36 H -4.883686 -0.722760 -0.186576 0
M  V30 37 H -3.690710 1.330700 -0.549651 0
M  V30 38 H 3.156915 0.056962 2.659982 0
M  V30 39 H 2.274777 -0.808191 4.840111 0
M  V30 END ATOM
M  V30 BEGIN BOND
M  V30 1 1 1 2
M  V30 2 2 2 3
M  V30 3 1 3 4
M  V30 4 2 4 5
M  V30 5 1 5 6
M  V30 6 1 6 7
M  V30 7 2 7 8
M  V30 8 1 8 9
M  V30 9 2 9 10
M  V30 10 1 10 11
M  V30 11 2 11 12
M  V30 12 1 12 13
M  V30 13 1 13 14
M  V30 14 1 14 15
M  V30 15 2 15 16
M  V30 16 1 16 17
M  V30 17 2 17 18
M  V30 18 1 18 19
M  V30 19 1 18 20
M  V30 20 2 20 21
M  V30 21 1 12 22
M  V30 22 2 22 23
M  V30 23 1 5 24
M  V30 24 2 24 25
M  V30 25 1 25 2
M  V30 26 1 23 6
M  V30 27 1 23 9
M  V30 28 1 21 15
M  V30 29 1 1 26
M  V30 30 1 3 27
M  V30 31 1 4 28
M  V30 32 1 10 29
M  V30 33 1 11 30
M  V30 34 1 13 31
M  V30 35 1 14 32
M  V30 36 1 14 33
M  V30 37 1 16 34
M  V30 38 1 17 35
M  V30 39 1 20 36
M  V30 40 1 21 37
M  V30 41 1 24 38
M  V30 42 1 25 39
M  V30 END BOND
M  V30 END CTAB
M  END
>  <Dataset>  (149) 
ChEMBL_Kinases

>  <Ligand_Instance>  (149) 
nan

>  <PDB_ID>  (149) 
nan

>  <Standardized_SMILES>  (149) 
Oc1ccc(-n2nnc3ccc(NCc4ccc(F)cc4)nc32)cc1

>  <Name>  (149) 
nan

>  <Pocket>  (149) 
nan

>  <ATP_Site>  (149) 
nan

>  <Peripheral>  (149) 
nan

>  <Num_H_Atoms_ProtBoundConf>  (149) 
nan

>  <Num_Resolved_Atoms>  (149) 
nan

>  <Num_Not_Resolved_Atoms>  (149) 
nan

$$$$
CHEMBL195177
     RDKit          3D

  0  0  0  0  0  0  0  0  0  0999 V3000
M  V30 BEGIN CTAB
M  V30 COUNTS 44 47 0 0 0
M  V30 BEGIN ATOM
M  V30 1 N 2.136447 -8.523673 1.789332 0
M  V30 2 C 1.459900 -7.394470 1.214250 0
M  V30 3 O 0.399125 -7.803622 0.637888 0
M  V30 4 C 1.946695 -6.007538 1.299762 0
M  V30 5 C 3.110469 -5.644623 1.944924 0
M  V30 6 C 3.425185 -4.280671 1.930446 0
M  V30 7 C 2.601782 -3.370404 1.299771 0
M  V30 8 N 2.703230 -2.022167 1.159468 0
M  V30 9 C 1.645001 -1.577892 0.457230 0
M  V30 10 C 1.379878 -0.188050 0.090391 0
M  V30 11 C 2.267329 0.795330 0.476843 0
M  V30 12 C 2.026890 2.112380 0.135659 0
M  V30 13 C 0.902046 2.450005 -0.590735 0
M  V30 14 S 0.448283 4.061526 -1.104117 0
M  V30 15 O -0.281513 4.005132 -2.389766 0
M  V30 16 O 1.713041 4.893368 -1.211846 0
M  V30 17 N -0.545168 4.839084 0.100003 0
M  V30 18 C -1.802076 4.226692 0.417754 0
M  V30 19 C -2.729946 3.729396 -0.446693 0
M  V30 20 C -3.897727 3.168716 0.050020 0
M  V30 21 C -4.116318 3.116053 1.413890 0
M  V30 22 Cl -5.602719 2.402932 2.058577 0
M  V30 23 C -3.196426 3.610869 2.314602 0
M  V30 24 Cl -3.489219 3.536254 4.042546 0
M  V30 25 C -2.037598 4.166119 1.794202 0
M  V30 26 C 0.014510 1.436623 -0.972756 0
M  V30 27 C 0.246469 0.118470 -0.636504 0
M  V30 28 N 0.878593 -2.641562 0.155464 0
M  V30 29 C 1.430489 -3.768976 0.655414 0
M  V30 30 C 1.110792 -5.112843 0.663902 0
M  V30 31 H 1.923358 -8.668133 2.815189 0
M  V30 32 H 1.753736 -8.420824 2.757380 0
M  V30 33 H 3.696187 -6.423073 2.413093 0
M  V30 34 H 4.340348 -3.997393 2.438102 0
M  V30 35 H 3.500452 -1.471050 1.556271 0
M  V30 36 H 3.160051 0.585824 1.044605 0
M  V30 37 H 2.668751 2.959634 0.394855 0
M  V30 38 H -0.260058 5.728348 0.594710 0
M  V30 39 H -2.481207 3.810561 -1.482669 0
M  V30 40 H -4.617126 2.781669 -0.656150 0
M  V30 41 H -1.340697 4.543937 2.548366 0
M  V30 42 H -0.876704 1.635131 -1.537971 0
M  V30 43 H -0.417628 -0.698579 -0.913580 0
M  V30 44 H 0.200978 -5.369327 0.155467 0
M  V30 END ATOM
M  V30 BEGIN BOND
M  V30 1 1 1 2
M  V30 2 2 2 3
M  V30 3 1 2 4
M  V30 4 2 4 5
M  V30 5 1 5 6
M  V30 6 2 6 7
M  V30 7 1 7 8
M  V30 8 1 8 9
M  V30 9 1 9 10
M  V30 10 2 10 11
M  V30 11 1 11 12
M  V30 12 2 12 13
M  V30 13 1 13 14
M  V30 14 2 14 15
M  V30 15 2 14 16
M  V30 16 1 14 17
M  V30 17 1 17 18
M  V30 18 2 18 19
M  V30 19 1 19 20
M  V30 20 2 20 21
M  V30 21 1 21 22
M  V30 22 1 21 23
M  V30 23 1 23 24
M  V30 24 2 23 25
M  V30 25 1 13 26
M  V30 26 2 26 27
M  V30 27 2 9 28
M  V30 28 1 28 29
M  V30 29 2 29 30
M  V30 30 1 30 4
M  V30 31 1 29 7
M  V30 32 1 27 10
M  V30 33 1 25 18
M  V30 34 1 1 31
M  V30 35 1 1 32
M  V30 36 1 5 33
M  V30 37 1 6 34
M  V30 38 1 8 35
M  V30 39 1 11 36
M  V30 40 1 12 37
M  V30 41 1 17 38
M  V30 42 1 19 39
M  V30 43 1 20 40
M  V30 44 1 25 41
M  V30 45 1 26 42
M  V30 46 1 27 43
M  V30 47 1 30 44
M  V30 END BOND
M  V30 END CTAB
M  END
>  <Dataset>  (150) 
ChEMBL_Kinases

>  <Ligand_Instance>  (150) 
nan

>  <PDB_ID>  (150) 
nan

>  <Standardized_SMILES>  (150) 
NC(=O)c1ccc2[nH]c(-c3ccc(S(=O)(=O)Nc4ccc(Cl)c(Cl)c4)cc3)nc2c1

>  <Name>  (150) 
nan

>  <Pocket>  (150) 
nan

>  <ATP_Site>  (150) 
nan

>  <Peripheral>  (150) 
nan

>  <Num_H_Atoms_ProtBoundConf>  (150) 
nan

>  <Num_Resolved_Atoms>  (150) 
nan

>  <Num_Not_Resolved_Atoms>  (150) 
nan

$$$$
CHEMBL1951443
     RDKit          3D

  0  0  0  0  0  0  0  0  0  0999 V3000
M  V30 BEGIN CTAB
M  V30 COUNTS 50 52 0 0 0
M  V30 BEGIN ATOM
M  V30 1 C 4.972690 -4.487801 3.507531 0
M  V30 2 C 4.489856 -3.263918 4.255193 0
M  V30 3 C 3.153938 -3.642948 4.900708 0
M  V30 4 N 4.194932 -2.198552 3.320545 0
M  V30 5 C 4.684999 -0.866895 3.287113 0
M  V30 6 O 5.495021 -0.483453 4.161195 0
M  V30 7 C 4.255752 0.061364 2.245747 0
M  V30 8 C 4.801500 1.343388 2.327774 0
M  V30 9 C 4.388500 2.230614 1.329219 0
M  V30 10 C 3.497598 1.895688 0.308819 0
M  V30 11 C 2.995955 0.594460 0.295287 0
M  V30 12 N 2.090162 0.326215 -0.776576 0
M  V30 13 C 0.684667 0.536789 -0.626500 0
M  V30 14 O 0.118827 0.955547 0.402477 0
M  V30 15 N -0.077420 0.224014 -1.783547 0
M  V30 16 C -1.510406 0.381961 -1.791001 0
M  V30 17 C -2.131729 -0.792999 -1.375579 0
M  V30 18 C -3.505717 -0.896661 -1.296383 0
M  V30 19 C -4.275103 0.219624 -1.647153 0
M  V30 20 C -5.752717 0.198147 -1.591992 0
M  V30 21 C -6.519508 1.316918 -1.311617 0
M  V30 22 C -7.899355 1.127271 -1.297933 0
M  V30 23 N -8.472068 -0.056491 -1.538561 0
M  V30 24 C -7.742689 -1.154631 -1.812801 0
M  V30 25 C -6.354742 -1.038020 -1.843015 0
M  V30 26 C -3.637901 1.373230 -2.055986 0
M  V30 27 C -2.267548 1.474248 -2.134188 0
M  V30 28 C 3.381862 -0.289351 1.256050 0
M  V30 29 H 4.431246 -5.397767 3.839136 0
M  V30 30 H 6.071042 -4.652603 3.620156 0
M  V30 31 H 4.738204 -4.406665 2.406149 0
M  V30 32 H 5.212382 -2.947698 5.033900 0
M  V30 33 H 2.318340 -3.344004 4.250841 0
M  V30 34 H 3.078166 -3.174352 5.905179 0
M  V30 35 H 3.103658 -4.747384 5.014410 0
M  V30 36 H 3.533411 -2.575914 2.639008 0
M  V30 37 H 5.492922 1.694930 3.073171 0
M  V30 38 H 4.805509 3.244944 1.374711 0
M  V30 39 H 3.269374 2.704584 -0.404111 0
M  V30 40 H 2.522423 -0.027364 -1.658633 0
M  V30 41 H 0.222969 -0.132433 -2.721682 0
M  V30 42 H -1.631663 -1.724440 -1.078272 0
M  V30 43 H -4.030259 -1.787130 -0.979936 0
M  V30 44 H -6.009997 2.247164 -1.124987 0
M  V30 45 H -8.468385 2.023001 -1.075190 0
M  V30 46 H -8.183564 -2.138080 -2.014267 0
M  V30 47 H -5.755376 -1.912463 -2.061751 0
M  V30 48 H -4.172731 2.275434 -2.342222 0
M  V30 49 H -1.673657 2.311293 -2.434978 0
M  V30 50 H 2.968153 -1.262250 1.193806 0
M  V30 END ATOM
M  V30 BEGIN BOND
M  V30 1 1 1 2
M  V30 2 1 2 3
M  V30 3 1 2 4
M  V30 4 1 4 5
M  V30 5 2 5 6
M  V30 6 1 5 7
M  V30 7 2 7 8
M  V30 8 1 8 9
M  V30 9 2 9 10
M  V30 10 1 10 11
M  V30 11 1 11 12
M  V30 12 1 12 13
M  V30 13 2 13 14
M  V30 14 1 13 15
M  V30 15 1 15 16
M  V30 16 2 16 17
M  V30 17 1 17 18
M  V30 18 2 18 19
M  V30 19 1 19 20
M  V30 20 2 20 21
M  V30 21 1 21 22
M  V30 22 2 22 23
M  V30 23 1 23 24
M  V30 24 2 24 25
M  V30 25 1 19 26
M  V30 26 2 26 27
M  V30 27 2 11 28
M  V30 28 1 28 7
M  V30 29 1 27 16
M  V30 30 1 25 20
M  V30 31 1 1 29
M  V30 32 1 1 30
M  V30 33 1 1 31
M  V30 34 1 2 32
M  V30 35 1 3 33
M  V30 36 1 3 34
M  V30 37 1 3 35
M  V30 38 1 4 36
M  V30 39 1 8 37
M  V30 40 1 9 38
M  V30 41 1 10 39
M  V30 42 1 12 40
M  V30 43 1 15 41
M  V30 44 1 17 42
M  V30 45 1 18 43
M  V30 46 1 21 44
M  V30 47 1 22 45
M  V30 48 1 24 46
M  V30 49 1 25 47
M  V30 50 1 26 48
M  V30 51 1 27 49
M  V30 52 1 28 50
M  V30 END BOND
M  V30 END CTAB
M  END
>  <Dataset>  (151) 
ChEMBL_Kinases

>  <Ligand_Instance>  (151) 
nan

>  <PDB_ID>  (151) 
nan

>  <Standardized_SMILES>  (151) 
CC(C)NC(=O)c1cccc(NC(=O)Nc2ccc(-c3ccncc3)cc2)c1

>  <Name>  (151) 
nan

>  <Pocket>  (151) 
nan

>  <ATP_Site>  (151) 
nan

>  <Peripheral>  (151) 
nan

>  <Num_H_Atoms_ProtBoundConf>  (151) 
nan

>  <Num_Resolved_Atoms>  (151) 
nan

>  <Num_Not_Resolved_Atoms>  (151) 
nan

$$$$
CHEMBL1951441
     RDKit          3D

  0  0  0  0  0  0  0  0  0  0999 V3000
M  V30 BEGIN CTAB
M  V30 COUNTS 51 53 0 0 0
M  V30 BEGIN ATOM
M  V30 1 C 1.497918 -3.972661 5.384652 0
M  V30 2 C 2.678850 -3.061490 5.738371 0
M  V30 3 C 3.937875 -3.840619 5.466103 0
M  V30 4 N 2.569700 -1.849844 4.956155 0
M  V30 5 C 2.481053 -0.509725 5.408087 0
M  V30 6 O 2.490108 -0.230098 6.633728 0
M  V30 7 C 2.375995 0.592657 4.460403 0
M  V30 8 C 2.293193 1.881931 4.996557 0
M  V30 9 C 2.191248 2.964964 4.118683 0
M  V30 10 C 2.171472 2.781771 2.749002 0
M  V30 11 C 2.253529 1.502086 2.211541 0
M  V30 12 N 2.238717 1.236988 0.796822 0
M  V30 13 C 1.123295 0.996045 -0.022332 0
M  V30 14 O -0.081644 0.971538 0.356647 0
M  V30 15 N 1.274375 0.749870 -1.405953 0
M  V30 16 C 0.022927 0.524641 -2.083161 0
M  V30 17 C -0.736999 1.524360 -2.655375 0
M  V30 18 C -1.924488 1.208125 -3.283468 0
M  V30 19 C -2.402069 -0.080167 -3.371609 0
M  V30 20 C -3.633491 -0.494659 -4.010659 0
M  V30 21 C -4.480800 0.406843 -4.618425 0
M  V30 22 C -5.658742 0.028697 -5.232305 0
M  V30 23 N -6.002813 -1.273799 -5.242800 0
M  V30 24 C -5.164578 -2.153160 -4.643313 0
M  V30 25 N -5.422875 -3.547164 -4.592253 0
M  V30 26 N -4.013910 -1.804979 -4.040641 0
M  V30 27 C -1.605410 -1.048812 -2.782982 0
M  V30 28 C -0.398773 -0.789084 -2.136035 0
M  V30 29 C 2.353642 0.449129 3.105937 0
M  V30 30 H 1.693516 -4.954612 5.851660 0
M  V30 31 H 1.504926 -4.092403 4.289364 0
M  V30 32 H 0.548804 -3.555431 5.768542 0
M  V30 33 H 2.689641 -2.846466 6.839057 0
M  V30 34 H 3.750673 -4.926162 5.594716 0
M  V30 35 H 4.753890 -3.585182 6.203941 0
M  V30 36 H 4.274635 -3.678925 4.417624 0
M  V30 37 H 2.564883 -2.111714 3.958428 0
M  V30 38 H 2.300963 2.123741 6.052591 0
M  V30 39 H 2.126392 3.970981 4.526711 0
M  V30 40 H 2.092031 3.622720 2.055828 0
M  V30 41 H 3.219229 1.243722 0.417668 0
M  V30 42 H 2.233611 0.743857 -1.844390 0
M  V30 43 H -0.374058 2.537606 -2.593234 0
M  V30 44 H -2.526911 1.984464 -3.734791 0
M  V30 45 H -4.270668 1.446340 -4.646579 0
M  V30 46 H -6.311068 0.744705 -5.703324 0
M  V30 47 H -5.494880 -4.381887 -5.206924 0
M  V30 48 H -5.644971 -4.333756 -3.967479 0
M  V30 49 H -1.898859 -2.110358 -2.798897 0
M  V30 50 H 0.172608 -1.602152 -1.697103 0
M  V30 51 H 2.416005 -0.529183 2.679876 0
M  V30 END ATOM
M  V30 BEGIN BOND
M  V30 1 1 1 2
M  V30 2 1 2 3
M  V30 3 1 2 4
M  V30 4 1 4 5
M  V30 5 2 5 6
M  V30 6 1 5 7
M  V30 7 2 7 8
M  V30 8 1 8 9
M  V30 9 2 9 10
M  V30 10 1 10 11
M  V30 11 1 11 12
M  V30 12 1 12 13
M  V30 13 2 13 14
M  V30 14 1 13 15
M  V30 15 1 15 16
M  V30 16 2 16 17
M  V30 17 1 17 18
M  V30 18 2 18 19
M  V30 19 1 19 20
M  V30 20 2 20 21
M  V30 21 1 21 22
M  V30 22 2 22 23
M  V30 23 1 23 24
M  V30 24 1 24 25
M  V30 25 2 24 26
M  V30 26 1 19 27
M  V30 27 2 27 28
M  V30 28 2 11 29
M  V30 29 1 29 7
M  V30 30 1 28 16
M  V30 31 1 26 20
M  V30 32 1 1 30
M  V30 33 1 1 31
M  V30 34 1 1 32
M  V30 35 1 2 33
M  V30 36 1 3 34
M  V30 37 1 3 35
M  V30 38 1 3 36
M  V30 39 1 4 37
M  V30 40 1 8 38
M  V30 41 1 9 39
M  V30 42 1 10 40
M  V30 43 1 12 41
M  V30 44 1 15 42
M  V30 45 1 17 43
M  V30 46 1 18 44
M  V30 47 1 21 45
M  V30 48 1 22 46
M  V30 49 1 25 47
M  V30 50 1 25 48
M  V30 51 1 27 49
M  V30 52 1 28 50
M  V30 53 1 29 51
M  V30 END BOND
M  V30 END CTAB
M  END
>  <Dataset>  (152) 
ChEMBL_Kinases

>  <Ligand_Instance>  (152) 
nan

>  <PDB_ID>  (152) 
nan

>  <Standardized_SMILES>  (152) 
CC(C)NC(=O)c1cccc(NC(=O)Nc2ccc(-c3ccnc(N)n3)cc2)c1

>  <Name>  (152) 
nan

>  <Pocket>  (152) 
nan

>  <ATP_Site>  (152) 
nan

>  <Peripheral>  (152) 
nan

>  <Num_H_Atoms_ProtBoundConf>  (152) 
nan

>  <Num_Resolved_Atoms>  (152) 
nan

>  <Num_Not_Resolved_Atoms>  (152) 
nan

$$$$
CHEMBL1951350
     RDKit          3D

  0  0  0  0  0  0  0  0  0  0999 V3000
M  V30 BEGIN CTAB
M  V30 COUNTS 59 62 0 0 0
M  V30 BEGIN ATOM
M  V30 1 C 3.339823 0.965987 5.398618 0
M  V30 2 C 3.769627 2.047617 4.439578 0
M  V30 3 N 4.852979 1.612930 3.584385 0
M  V30 4 C 6.136071 1.787696 4.000506 0
M  V30 5 O 6.561776 2.260383 5.068518 0
M  V30 6 N 7.019700 1.369321 3.079064 0
M  V30 7 C 6.314123 0.909254 2.033901 0
M  V30 8 N 6.609011 0.401592 0.839152 0
M  V30 9 C 5.594929 0.058471 -0.007697 0
M  V30 10 N 4.304124 0.216281 0.328617 0
M  V30 11 C 3.949861 0.731773 1.545089 0
M  V30 12 C 2.513615 0.822305 1.705557 0
M  V30 13 C 1.924436 1.632777 0.719349 0
M  V30 14 C 0.558246 1.852885 0.597846 0
M  V30 15 C -0.268700 1.231529 1.508830 0
M  V30 16 N -1.688366 1.395078 1.468578 0
M  V30 17 C -2.357506 0.452772 0.677766 0
M  V30 18 O -1.647386 -0.388336 0.123156 0
M  V30 19 N -3.758623 0.408560 0.482141 0
M  V30 20 C -4.544581 -0.489543 -0.288949 0
M  V30 21 C -5.908663 -0.320804 -0.319377 0
M  V30 22 C -6.722370 -1.158365 -1.048103 0
M  V30 23 C -6.217883 -2.212369 -1.787839 0
M  V30 24 C -4.852308 -2.389137 -1.763329 0
M  V30 25 C -4.325301 -3.500639 -2.544433 0
M  V30 26 O -5.122745 -4.227831 -3.190357 0
M  V30 27 N -2.956374 -3.862239 -2.657195 0
M  V30 28 C -2.471166 -4.963922 -3.436050 0
M  V30 29 C -1.759666 -5.922058 -2.494387 0
M  V30 30 C -1.453010 -4.477821 -4.453884 0
M  V30 31 C -4.079425 -1.545727 -1.034895 0
M  V30 32 C 0.240510 0.422819 2.501416 0
M  V30 33 C 1.600795 0.247102 2.565087 0
M  V30 34 C 4.991179 1.068308 2.369878 0
M  V30 35 H 3.743461 1.171497 6.411166 0
M  V30 36 H 3.730723 -0.003855 5.009015 0
M  V30 37 H 2.238119 0.895426 5.414857 0
M  V30 38 H 2.908273 2.301172 3.794722 0
M  V30 39 H 4.071144 2.978131 5.004643 0
M  V30 40 H 8.050516 1.360482 3.078850 0
M  V30 41 H 5.910040 -0.349547 -0.968533 0
M  V30 42 H 2.488875 2.167641 -0.047109 0
M  V30 43 H 0.122575 2.477769 -0.164819 0
M  V30 44 H -2.254719 2.143987 1.970205 0
M  V30 45 H -4.243924 1.173610 1.005364 0
M  V30 46 H -6.353064 0.493941 0.246052 0
M  V30 47 H -7.784326 -0.954638 -1.017035 0
M  V30 48 H -6.945224 -2.805425 -2.321407 0
M  V30 49 H -2.261564 -3.288235 -2.139464 0
M  V30 50 H -3.258234 -5.523482 -3.954376 0
M  V30 51 H -0.847259 -6.357192 -2.963556 0
M  V30 52 H -2.453210 -6.717955 -2.163027 0
M  V30 53 H -1.352003 -5.316201 -1.633644 0
M  V30 54 H -0.670887 -5.246865 -4.546205 0
M  V30 55 H -1.064326 -3.487277 -4.081679 0
M  V30 56 H -2.014411 -4.334730 -5.416518 0
M  V30 57 H -3.024990 -1.744668 -1.063237 0
M  V30 58 H -0.316993 -0.105825 3.258443 0
M  V30 59 H 2.103546 -0.379347 3.286303 0
M  V30 END ATOM
M  V30 BEGIN BOND
M  V30 1 1 1 2
M  V30 2 1 2 3
M  V30 3 1 3 4
M  V30 4 2 4 5
M  V30 5 1 4 6
M  V30 6 1 6 7
M  V30 7 2 7 8
M  V30 8 1 8 9
M  V30 9 2 9 10
M  V30 10 1 10 11
M  V30 11 1 11 12
M  V30 12 2 12 13
M  V30 13 1 13 14
M  V30 14 2 14 15
M  V30 15 1 15 16
M  V30 16 1 16 17
M  V30 17 2 17 18
M  V30 18 1 17 19
M  V30 19 1 19 20
M  V30 20 2 20 21
M  V30 21 1 21 22
M  V30 22 2 22 23
M  V30 23 1 23 24
M  V30 24 1 24 25
M  V30 25 2 25 26
M  V30 26 1 25 27
M  V30 27 1 27 28
M  V30 28 1 28 29
M  V30 29 1 28 30
M  V30 30 2 24 31
M  V30 31 1 15 32
M  V30 32 2 32 33
M  V30 33 2 11 34
M  V30 34 1 34 3
M  V30 35 1 34 7
M  V30 36 1 33 12
M  V30 37 1 31 20
M  V30 38 1 1 35
M  V30 39 1 1 36
M  V30 40 1 1 37
M  V30 41 1 2 38
M  V30 42 1 2 39
M  V30 43 1 6 40
M  V30 44 1 9 41
M  V30 45 1 13 42
M  V30 46 1 14 43
M  V30 47 1 16 44
M  V30 48 1 19 45
M  V30 49 1 21 46
M  V30 50 1 22 47
M  V30 51 1 23 48
M  V30 52 1 27 49
M  V30 53 1 28 50
M  V30 54 1 29 51
M  V30 55 1 29 52
M  V30 56 1 29 53
M  V30 57 1 30 54
M  V30 58 1 30 55
M  V30 59 1 30 56
M  V30 60 1 31 57
M  V30 61 1 32 58
M  V30 62 1 33 59
M  V30 END BOND
M  V30 END CTAB
M  END
>  <Dataset>  (153) 
ChEMBL_Kinases

>  <Ligand_Instance>  (153) 
nan

>  <PDB_ID>  (153) 
nan

>  <Standardized_SMILES>  (153) 
CCn1c(=O)[nH]c2ncnc(-c3ccc(NC(=O)Nc4cccc(C(=O)NC(C)C)c4)cc3)c21

>  <Name>  (153) 
nan

>  <Pocket>  (153) 
nan

>  <ATP_Site>  (153) 
nan

>  <Peripheral>  (153) 
nan

>  <Num_H_Atoms_ProtBoundConf>  (153) 
nan

>  <Num_Resolved_Atoms>  (153) 
nan

>  <Num_Not_Resolved_Atoms>  (153) 
nan

$$$$
CHEMBL1951349
     RDKit          3D

  0  0  0  0  0  0  0  0  0  0999 V3000
M  V30 BEGIN CTAB
M  V30 COUNTS 54 57 0 0 0
M  V30 BEGIN ATOM
M  V30 1 C 3.397613 -1.167546 4.544064 0
M  V30 2 C 4.320514 -1.341288 3.345809 0
M  V30 3 C 4.206727 -2.790115 2.901205 0
M  V30 4 N 3.843628 -0.433564 2.322385 0
M  V30 5 C 4.651113 0.589467 1.754730 0
M  V30 6 O 5.817338 0.655093 2.203688 0
M  V30 7 C 4.221524 1.527054 0.725082 0
M  V30 8 C 5.157815 2.448036 0.305079 0
M  V30 9 C 4.762538 3.340483 -0.669022 0
M  V30 10 C 3.497446 3.319072 -1.200581 0
M  V30 11 C 2.553833 2.411228 -0.795581 0
M  V30 12 N 1.267004 2.446514 -1.387547 0
M  V30 13 C 0.128070 1.640256 -1.158876 0
M  V30 14 O 0.205239 0.728567 -0.305996 0
M  V30 15 N -1.104795 1.767109 -1.809639 0
M  V30 16 C -2.066243 0.790348 -1.350513 0
M  V30 17 C -2.947896 0.957255 -0.301650 0
M  V30 18 C -3.788839 -0.087222 -0.012185 0
M  V30 19 C -3.770425 -1.281691 -0.737558 0
M  V30 20 C -4.750691 -2.246287 -0.250944 0
M  V30 21 C -6.048250 -1.802444 0.030965 0
M  V30 22 C -7.017813 -2.674763 0.494759 0
M  V30 23 N -6.754692 -3.979494 0.692994 0
M  V30 24 C -5.516291 -4.429277 0.429447 0
M  V30 25 N -4.999214 -5.666914 0.540262 0
M  V30 26 C -3.699874 -5.627066 0.156226 0
M  V30 27 C -3.389597 -4.313619 -0.209731 0
M  V30 28 C -4.527514 -3.592542 -0.032416 0
M  V30 29 C -2.878262 -1.419618 -1.780655 0
M  V30 30 C -2.019432 -0.388223 -2.097121 0
M  V30 31 C 2.981791 1.538997 0.174592 0
M  V30 32 H 3.371712 -0.123308 4.888569 0
M  V30 33 H 2.369844 -1.382858 4.166135 0
M  V30 34 H 3.610806 -1.906522 5.328128 0
M  V30 35 H 5.361863 -1.148201 3.626001 0
M  V30 36 H 3.392101 -2.925175 2.160214 0
M  V30 37 H 3.986114 -3.400769 3.798214 0
M  V30 38 H 5.159319 -3.181828 2.491428 0
M  V30 39 H 2.864459 -0.532297 1.984618 0
M  V30 40 H 6.165322 2.495796 0.700796 0
M  V30 41 H 5.441959 4.091591 -1.048193 0
M  V30 42 H 3.232800 4.053140 -1.975483 0
M  V30 43 H 1.069913 3.165519 -2.119480 0
M  V30 44 H -1.210908 2.526630 -2.538396 0
M  V30 45 H -2.894029 1.897723 0.195824 0
M  V30 46 H -4.461156 0.111226 0.829698 0
M  V30 47 H -6.332955 -0.760302 -0.105802 0
M  V30 48 H -8.027287 -2.289112 0.705595 0
M  V30 49 H -5.497621 -6.539137 0.867810 0
M  V30 50 H -3.029014 -6.483085 0.142326 0
M  V30 51 H -2.428359 -3.963861 -0.561103 0
M  V30 52 H -2.933827 -2.372889 -2.284087 0
M  V30 53 H -1.356852 -0.565779 -2.916145 0
M  V30 54 H 2.304391 0.792237 0.550761 0
M  V30 END ATOM
M  V30 BEGIN BOND
M  V30 1 1 1 2
M  V30 2 1 2 3
M  V30 3 1 2 4
M  V30 4 1 4 5
M  V30 5 2 5 6
M  V30 6 1 5 7
M  V30 7 2 7 8
M  V30 8 1 8 9
M  V30 9 2 9 10
M  V30 10 1 10 11
M  V30 11 1 11 12
M  V30 12 1 12 13
M  V30 13 2 13 14
M  V30 14 1 13 15
M  V30 15 1 15 16
M  V30 16 2 16 17
M  V30 17 1 17 18
M  V30 18 2 18 19
M  V30 19 1 19 20
M  V30 20 2 20 21
M  V30 21 1 21 22
M  V30 22 2 22 23
M  V30 23 1 23 24
M  V30 24 1 24 25
M  V30 25 1 25 26
M  V30 26 2 26 27
M  V30 27 1 27 28
M  V30 28 1 19 29
M  V30 29 2 29 30
M  V30 30 2 11 31
M  V30 31 1 31 7
M  V30 32 1 30 16
M  V30 33 1 28 20
M  V30 34 2 28 24
M  V30 35 1 1 32
M  V30 36 1 1 33
M  V30 37 1 1 34
M  V30 38 1 2 35
M  V30 39 1 3 36
M  V30 40 1 3 37
M  V30 41 1 3 38
M  V30 42 1 4 39
M  V30 43 1 8 40
M  V30 44 1 9 41
M  V30 45 1 10 42
M  V30 46 1 12 43
M  V30 47 1 15 44
M  V30 48 1 17 45
M  V30 49 1 18 46
M  V30 50 1 21 47
M  V30 51 1 22 48
M  V30 52 1 25 49
M  V30 53 1 26 50
M  V30 54 1 27 51
M  V30 55 1 29 52
M  V30 56 1 30 53
M  V30 57 1 31 54
M  V30 END BOND
M  V30 END CTAB
M  END
>  <Dataset>  (154) 
ChEMBL_Kinases

>  <Ligand_Instance>  (154) 
nan

>  <PDB_ID>  (154) 
nan

>  <Standardized_SMILES>  (154) 
CC(C)NC(=O)c1cccc(NC(=O)Nc2ccc(-c3ccnc4[nH]ccc34)cc2)c1

>  <Name>  (154) 
nan

>  <Pocket>  (154) 
nan

>  <ATP_Site>  (154) 
nan

>  <Peripheral>  (154) 
nan

>  <Num_H_Atoms_ProtBoundConf>  (154) 
nan

>  <Num_Resolved_Atoms>  (154) 
nan

>  <Num_Not_Resolved_Atoms>  (154) 
nan

$$$$
CHEMBL1951344
     RDKit          3D

  0  0  0  0  0  0  0  0  0  0999 V3000
M  V30 BEGIN CTAB
M  V30 COUNTS 53 56 0 0 0
M  V30 BEGIN ATOM
M  V30 1 C 6.291125 -0.077237 4.941213 0
M  V30 2 C 6.304515 0.845022 3.744786 0
M  V30 3 C 7.762291 1.060249 3.367423 0
M  V30 4 N 5.640376 0.266885 2.598207 0
M  V30 5 C 4.555358 0.818268 1.869712 0
M  V30 6 O 4.170453 1.931311 2.313362 0
M  V30 7 C 3.981485 0.117177 0.724756 0
M  V30 8 C 4.413610 -1.104887 0.251373 0
M  V30 9 C 3.815951 -1.701570 -0.839550 0
M  V30 10 C 2.767859 -1.041973 -1.450389 0
M  V30 11 C 2.327260 0.189246 -0.979063 0
M  V30 12 N 1.235197 0.677670 -1.767444 0
M  V30 13 C -0.064661 0.310973 -1.353786 0
M  V30 14 O -0.168914 -0.413990 -0.328848 0
M  V30 15 N -1.236996 0.727114 -2.045655 0
M  V30 16 C -2.496220 0.288465 -1.526039 0
M  V30 17 C -3.295186 0.920698 -0.592576 0
M  V30 18 C -4.484683 0.322621 -0.223714 0
M  V30 19 C -4.892759 -0.881755 -0.759890 0
M  V30 20 C -6.175566 -1.328052 -0.231940 0
M  V30 21 N -7.189078 -0.417143 -0.142076 0
M  V30 22 C -8.401574 -0.804080 0.348622 0
M  V30 23 N -8.640283 -2.075122 0.755245 0
M  V30 24 C -7.672360 -3.006377 0.685362 0
M  V30 25 N -7.567912 -4.319953 0.993314 0
M  V30 26 C -6.341646 -4.797978 0.723201 0
M  V30 27 C -5.623524 -3.734359 0.215652 0
M  V30 28 C -6.434486 -2.617604 0.186058 0
M  V30 29 C -4.084939 -1.501005 -1.690524 0
M  V30 30 C -2.891604 -0.918306 -2.071968 0
M  V30 31 C 2.925513 0.783356 0.110528 0
M  V30 32 H 6.352327 -1.141477 4.677852 0
M  V30 33 H 7.194509 0.159292 5.541600 0
M  V30 34 H 5.430988 0.168697 5.615749 0
M  V30 35 H 5.895227 1.809841 4.050736 0
M  V30 36 H 8.235952 0.099557 3.024860 0
M  V30 37 H 8.351064 1.409188 4.263364 0
M  V30 38 H 7.906582 1.823494 2.588844 0
M  V30 39 H 6.069042 -0.637293 2.360876 0
M  V30 40 H 5.232317 -1.581000 0.758200 0
M  V30 41 H 4.198182 -2.667376 -1.170402 0
M  V30 42 H 2.361869 -1.589992 -2.300313 0
M  V30 43 H 1.275907 1.289436 -2.636474 0
M  V30 44 H -1.093444 1.328094 -2.890488 0
M  V30 45 H -2.895915 1.857209 -0.228188 0
M  V30 46 H -5.033506 0.897139 0.510422 0
M  V30 47 H -9.206717 -0.091260 0.422838 0
M  V30 48 H -8.366009 -4.871384 1.393345 0
M  V30 49 H -5.945956 -5.790075 0.853953 0
M  V30 50 H -4.590339 -3.800145 -0.098845 0
M  V30 51 H -4.472017 -2.431509 -2.059968 0
M  V30 52 H -2.340015 -1.505008 -2.815871 0
M  V30 53 H 2.497414 1.732925 0.380161 0
M  V30 END ATOM
M  V30 BEGIN BOND
M  V30 1 1 1 2
M  V30 2 1 2 3
M  V30 3 1 2 4
M  V30 4 1 4 5
M  V30 5 2 5 6
M  V30 6 1 5 7
M  V30 7 2 7 8
M  V30 8 1 8 9
M  V30 9 2 9 10
M  V30 10 1 10 11
M  V30 11 1 11 12
M  V30 12 1 12 13
M  V30 13 2 13 14
M  V30 14 1 13 15
M  V30 15 1 15 16
M  V30 16 2 16 17
M  V30 17 1 17 18
M  V30 18 2 18 19
M  V30 19 1 19 20
M  V30 20 2 20 21
M  V30 21 1 21 22
M  V30 22 2 22 23
M  V30 23 1 23 24
M  V30 24 1 24 25
M  V30 25 1 25 26
M  V30 26 2 26 27
M  V30 27 1 27 28
M  V30 28 1 19 29
M  V30 29 2 29 30
M  V30 30 2 11 31
M  V30 31 1 31 7
M  V30 32 1 30 16
M  V30 33 1 28 20
M  V30 34 2 28 24
M  V30 35 1 1 32
M  V30 36 1 1 33
M  V30 37 1 1 34
M  V30 38 1 2 35
M  V30 39 1 3 36
M  V30 40 1 3 37
M  V30 41 1 3 38
M  V30 42 1 4 39
M  V30 43 1 8 40
M  V30 44 1 9 41
M  V30 45 1 10 42
M  V30 46 1 12 43
M  V30 47 1 15 44
M  V30 48 1 17 45
M  V30 49 1 18 46
M  V30 50 1 22 47
M  V30 51 1 25 48
M  V30 52 1 26 49
M  V30 53 1 27 50
M  V30 54 1 29 51
M  V30 55 1 30 52
M  V30 56 1 31 53
M  V30 END BOND
M  V30 END CTAB
M  END
>  <Dataset>  (155) 
ChEMBL_Kinases

>  <Ligand_Instance>  (155) 
nan

>  <PDB_ID>  (155) 
nan

>  <Standardized_SMILES>  (155) 
CC(C)NC(=O)c1cccc(NC(=O)Nc2ccc(-c3ncnc4[nH]ccc34)cc2)c1

>  <Name>  (155) 
nan

>  <Pocket>  (155) 
nan

>  <ATP_Site>  (155) 
nan

>  <Peripheral>  (155) 
nan

>  <Num_H_Atoms_ProtBoundConf>  (155) 
nan

>  <Num_Resolved_Atoms>  (155) 
nan

>  <Num_Not_Resolved_Atoms>  (155) 
nan

$$$$
CHEMBL195041
     RDKit          3D

  0  0  0  0  0  0  0  0  0  0999 V3000
M  V30 BEGIN CTAB
M  V30 COUNTS 41 44 0 0 0
M  V30 BEGIN ATOM
M  V30 1 N 2.736150 -8.596571 0.605481 0
M  V30 2 C 3.127614 -7.245443 0.291657 0
M  V30 3 O 4.359138 -7.338825 0.044137 0
M  V30 4 C 2.147716 -6.163343 0.316982 0
M  V30 5 C 0.837819 -6.450409 0.645982 0
M  V30 6 C 0.007146 -5.348101 0.635971 0
M  V30 7 C 0.408229 -4.055402 0.330127 0
M  V30 8 N -0.288652 -2.890545 0.280849 0
M  V30 9 C 0.598375 -1.939235 -0.070797 0
M  V30 10 C 0.236894 -0.530171 -0.233397 0
M  V30 11 C -1.078108 -0.168353 -0.013927 0
M  V30 12 C -1.474758 1.156559 -0.154654 0
M  V30 13 C -0.559585 2.127944 -0.515583 0
M  V30 14 S -1.052731 3.839228 -0.701416 0
M  V30 15 C -0.890005 4.732067 0.829161 0
M  V30 16 C 0.231721 5.411923 1.257017 0
M  V30 17 C 0.225603 6.073126 2.484159 0
M  V30 18 C -0.907905 6.057909 3.293986 0
M  V30 19 O -0.895491 6.714761 4.499379 0
M  V30 20 C -2.031790 5.374938 2.861969 0
M  V30 21 C -2.019598 4.722576 1.646681 0
M  V30 22 C 0.765116 1.739116 -0.732529 0
M  V30 23 C 1.177209 0.415191 -0.595270 0
M  V30 24 N 1.808625 -2.505473 -0.233215 0
M  V30 25 C 1.744491 -3.832339 0.006386 0
M  V30 26 C 2.625659 -4.901084 -0.000114 0
M  V30 27 H 2.721585 -8.791673 1.620340 0
M  V30 28 H 2.466195 -9.411431 0.012204 0
M  V30 29 H 0.481883 -7.423671 0.887798 0
M  V30 30 H -1.042710 -5.490901 0.884787 0
M  V30 31 H -1.311174 -2.793849 0.483053 0
M  V30 32 H -1.874869 -0.840365 0.270743 0
M  V30 33 H -2.482230 1.509203 0.000647 0
M  V30 34 H 1.077900 5.388916 0.588903 0
M  V30 35 H 1.127390 6.596373 2.785042 0
M  V30 36 H -0.946192 6.310058 5.410359 0
M  V30 37 H -2.923803 5.363208 3.499741 0
M  V30 38 H -2.939398 4.202360 1.364721 0
M  V30 39 H 1.500749 2.470929 -1.014300 0
M  V30 40 H 2.205888 0.130635 -0.766692 0
M  V30 41 H 3.652738 -4.715887 -0.251286 0
M  V30 END ATOM
M  V30 BEGIN BOND
M  V30 1 1 1 2
M  V30 2 2 2 3
M  V30 3 1 2 4
M  V30 4 2 4 5
M  V30 5 1 5 6
M  V30 6 2 6 7
M  V30 7 1 7 8
M  V30 8 1 8 9
M  V30 9 1 9 10
M  V30 10 2 10 11
M  V30 11 1 11 12
M  V30 12 2 12 13
M  V30 13 1 13 14
M  V30 14 1 14 15
M  V30 15 2 15 16
M  V30 16 1 16 17
M  V30 17 2 17 18
M  V30 18 1 18 19
M  V30 19 1 18 20
M  V30 20 2 20 21
M  V30 21 1 13 22
M  V30 22 2 22 23
M  V30 23 2 9 24
M  V30 24 1 24 25
M  V30 25 2 25 26
M  V30 26 1 26 4
M  V30 27 1 25 7
M  V30 28 1 23 10
M  V30 29 1 21 15
M  V30 30 1 1 27
M  V30 31 1 1 28
M  V30 32 1 5 29
M  V30 33 1 6 30
M  V30 34 1 8 31
M  V30 35 1 11 32
M  V30 36 1 12 33
M  V30 37 1 16 34
M  V30 38 1 17 35
M  V30 39 1 19 36
M  V30 40 1 20 37
M  V30 41 1 21 38
M  V30 42 1 22 39
M  V30 43 1 23 40
M  V30 44 1 26 41
M  V30 END BOND
M  V30 END CTAB
M  END
>  <Dataset>  (156) 
ChEMBL_Kinases

>  <Ligand_Instance>  (156) 
nan

>  <PDB_ID>  (156) 
nan

>  <Standardized_SMILES>  (156) 
NC(=O)c1ccc2[nH]c(-c3ccc(Sc4ccc(O)cc4)cc3)nc2c1

>  <Name>  (156) 
nan

>  <Pocket>  (156) 
nan

>  <ATP_Site>  (156) 
nan

>  <Peripheral>  (156) 
nan

>  <Num_H_Atoms_ProtBoundConf>  (156) 
nan

>  <Num_Resolved_Atoms>  (156) 
nan

>  <Num_Not_Resolved_Atoms>  (156) 
nan

$$$$
CHEMBL194941
     RDKit          3D

  0  0  0  0  0  0  0  0  0  0999 V3000
M  V30 BEGIN CTAB
M  V30 COUNTS 28 29 0 0 0
M  V30 BEGIN ATOM
M  V30 1 N -2.707376 -1.725426 5.604149 0
M  V30 2 C -1.993348 -1.389608 4.420983 0
M  V30 3 O -2.364511 -0.275245 3.939851 0
M  V30 4 N -0.986677 -2.210266 3.853473 0
M  V30 5 C -0.323313 -1.776113 2.650330 0
M  V30 6 S -0.707067 -0.288366 1.866980 0
M  V30 7 C 0.452775 -0.448211 0.545248 0
M  V30 8 C 0.651745 0.530634 -0.537325 0
M  V30 9 C 0.832586 1.321916 -1.428068 0
M  V30 10 C 1.041483 2.241958 -2.500394 0
M  V30 11 C 0.560529 2.043692 -3.751629 0
M  V30 12 C 0.829114 3.042815 -4.775260 0
M  V30 13 S 1.845371 4.350725 -3.854863 0
M  V30 14 C 1.801234 3.429779 -2.219474 0
M  V30 15 C 1.058112 -1.639294 0.797727 0
M  V30 16 C 0.638620 -2.296117 1.883731 0
M  V30 17 C 1.242236 -3.608595 2.241703 0
M  V30 18 N 2.275934 -4.282314 1.515681 0
M  V30 19 O 0.847517 -4.224999 3.262236 0
M  V30 20 H -2.125697 -2.211762 6.318018 0
M  V30 21 H -3.724399 -1.507554 5.752318 0
M  V30 22 H -0.829017 -3.066979 4.383886 0
M  V30 23 H -0.014608 1.198598 -4.069080 0
M  V30 24 H 0.452320 2.938603 -5.854617 0
M  V30 25 H 2.260227 3.745963 -1.271435 0
M  V30 26 H 1.821831 -1.927703 0.083215 0
M  V30 27 H 3.295761 -4.459903 1.649102 0
M  V30 28 H 2.074226 -4.759215 0.596124 0
M  V30 END ATOM
M  V30 BEGIN BOND
M  V30 1 1 1 2
M  V30 2 2 2 3
M  V30 3 1 2 4
M  V30 4 1 4 5
M  V30 5 1 5 6
M  V30 6 1 6 7
M  V30 7 1 7 8
M  V30 8 3 8 9
M  V30 9 1 9 10
M  V30 10 1 10 11
M  V30 11 2 11 12
M  V30 12 1 12 13
M  V30 13 1 13 14
M  V30 14 2 7 15
M  V30 15 1 15 16
M  V30 16 1 16 17
M  V30 17 1 17 18
M  V30 18 2 17 19
M  V30 19 2 16 5
M  V30 20 2 14 10
M  V30 21 1 1 20
M  V30 22 1 1 21
M  V30 23 1 4 22
M  V30 24 1 11 23
M  V30 25 1 12 24
M  V30 26 1 14 25
M  V30 27 1 15 26
M  V30 28 1 18 27
M  V30 29 1 18 28
M  V30 END BOND
M  V30 END CTAB
M  END
>  <Dataset>  (157) 
ChEMBL_Kinases

>  <Ligand_Instance>  (157) 
nan

>  <PDB_ID>  (157) 
nan

>  <Standardized_SMILES>  (157) 
NC(=O)Nc1sc(C#Cc2ccsc2)cc1C(N)=O

>  <Name>  (157) 
nan

>  <Pocket>  (157) 
nan

>  <ATP_Site>  (157) 
nan

>  <Peripheral>  (157) 
nan

>  <Num_H_Atoms_ProtBoundConf>  (157) 
nan

>  <Num_Resolved_Atoms>  (157) 
nan

>  <Num_Not_Resolved_Atoms>  (157) 
nan

$$$$
CHEMBL194751
     RDKit          3D

  0  0  0  0  0  0  0  0  0  0999 V3000
M  V30 BEGIN CTAB
M  V30 COUNTS 57 60 0 0 0
M  V30 BEGIN ATOM
M  V30 1 O 1.449091 -1.063646 5.043715 0
M  V30 2 C 1.230033 -2.387974 4.688439 0
M  V30 3 C 0.244286 -2.389130 3.545813 0
M  V30 4 C 0.775072 -1.618900 2.358247 0
M  V30 5 C 2.073114 -2.222458 1.852085 0
M  V30 6 N 2.624943 -1.550955 0.755586 0
M  V30 7 C 3.128248 -0.246021 0.951210 0
M  V30 8 C 3.361432 0.539010 -0.293609 0
M  V30 9 C 2.584039 -0.017906 -1.465866 0
M  V30 10 C 1.126424 0.074984 -1.257371 0
M  V30 11 C 0.398414 1.186068 -0.899917 0
M  V30 12 C -0.916818 0.772147 -0.839731 0
M  V30 13 C -2.068082 1.596556 -0.495089 0
M  V30 14 C -1.964403 2.049352 0.824061 0
M  V30 15 C -2.929406 2.849959 1.397693 0
M  V30 16 N -3.999004 3.191885 0.637220 0
M  V30 17 C -4.124395 2.769586 -0.636720 0
M  V30 18 C -3.171519 1.967084 -1.234378 0
M  V30 19 C -1.033173 -0.568809 -1.150761 0
M  V30 20 C -2.187626 -1.459298 -1.221572 0
M  V30 21 C -2.932552 -1.811348 -0.118959 0
M  V30 22 C -4.012152 -2.651614 -0.258026 0
M  V30 23 C -4.305946 -3.113781 -1.521332 0
M  V30 24 F -5.379507 -3.950979 -1.671243 0
M  V30 25 C -3.598962 -2.797780 -2.663580 0
M  V30 26 C -2.509478 -1.944051 -2.492961 0
M  V30 27 N 0.264183 -0.927561 -1.395537 0
M  V30 28 C 3.039164 -1.428672 -1.666884 0
M  V30 29 C 2.982224 -2.251128 -0.407971 0
M  V30 30 H 0.597812 -0.697202 5.387655 0
M  V30 31 H 0.701264 -2.867075 5.544965 0
M  V30 32 H 2.142583 -2.960901 4.513343 0
M  V30 33 H -0.073333 -3.411824 3.240127 0
M  V30 34 H -0.667712 -1.895476 3.911805 0
M  V30 35 H 0.892543 -0.557041 2.674534 0
M  V30 36 H -0.003123 -1.626056 1.565542 0
M  V30 37 H 1.904914 -3.279738 1.637753 0
M  V30 38 H 2.780963 -2.205380 2.735411 0
M  V30 39 H 4.079816 -0.314010 1.522587 0
M  V30 40 H 2.410645 0.305129 1.592930 0
M  V30 41 H 3.036072 1.589844 -0.143320 0
M  V30 42 H 4.421331 0.549223 -0.567365 0
M  V30 43 H 2.850742 0.597559 -2.342589 0
M  V30 44 H 0.748714 2.190333 -0.699622 0
M  V30 45 H -1.151440 1.840808 1.532496 0
M  V30 46 H -2.904223 3.226883 2.406692 0
M  V30 47 H -4.951897 3.008093 -1.290311 0
M  V30 48 H -3.139309 1.561542 -2.229380 0
M  V30 49 H -2.588329 -1.370229 0.828353 0
M  V30 50 H -4.571630 -2.905275 0.611415 0
M  V30 51 H -3.905680 -3.212973 -3.631773 0
M  V30 52 H -1.950532 -1.698701 -3.408539 0
M  V30 53 H 0.507709 -1.914361 -1.667582 0
M  V30 54 H 4.075549 -1.382875 -2.076234 0
M  V30 55 H 2.415997 -1.869979 -2.476290 0
M  V30 56 H 2.276340 -3.088128 -0.573420 0
M  V30 57 H 3.978588 -2.720561 -0.270649 0
M  V30 END ATOM
M  V30 BEGIN BOND
M  V30 1 1 1 2
M  V30 2 1 2 3
M  V30 3 1 3 4
M  V30 4 1 4 5
M  V30 5 1 5 6
M  V30 6 1 6 7
M  V30 7 1 7 8
M  V30 8 1 8 9
M  V30 9 1 9 10
M  V30 10 2 10 11
M  V30 11 1 11 12
M  V30 12 1 12 13
M  V30 13 2 13 14
M  V30 14 1 14 15
M  V30 15 2 15 16
M  V30 16 1 16 17
M  V30 17 2 17 18
M  V30 18 2 12 19
M  V30 19 1 19 20
M  V30 20 2 20 21
M  V30 21 1 21 22
M  V30 22 2 22 23
M  V30 23 1 23 24
M  V30 24 1 23 25
M  V30 25 2 25 26
M  V30 26 1 19 27
M  V30 27 1 9 28
M  V30 28 1 28 29
M  V30 29 1 29 6
M  V30 30 1 27 10
M  V30 31 1 18 13
M  V30 32 1 26 20
M  V30 33 1 1 30
M  V30 34 1 2 31
M  V30 35 1 2 32
M  V30 36 1 3 33
M  V30 37 1 3 34
M  V30 38 1 4 35
M  V30 39 1 4 36
M  V30 40 1 5 37
M  V30 41 1 5 38
M  V30 42 1 7 39
M  V30 43 1 7 40
M  V30 44 1 8 41
M  V30 45 1 8 42
M  V30 46 1 9 43
M  V30 47 1 11 44
M  V30 48 1 14 45
M  V30 49 1 15 46
M  V30 50 1 17 47
M  V30 51 1 18 48
M  V30 52 1 21 49
M  V30 53 1 22 50
M  V30 54 1 25 51
M  V30 55 1 26 52
M  V30 56 1 27 53
M  V30 57 1 28 54
M  V30 58 1 28 55
M  V30 59 1 29 56
M  V30 60 1 29 57
M  V30 END BOND
M  V30 END CTAB
M  END
>  <Dataset>  (158) 
ChEMBL_Kinases

>  <Ligand_Instance>  (158) 
nan

>  <PDB_ID>  (158) 
nan

>  <Standardized_SMILES>  (158) 
OCCCCN1CCC(c2cc(-c3ccncc3)c(-c3ccc(F)cc3)[nH]2)CC1

>  <Name>  (158) 
nan

>  <Pocket>  (158) 
nan

>  <ATP_Site>  (158) 
nan

>  <Peripheral>  (158) 
nan

>  <Num_H_Atoms_ProtBoundConf>  (158) 
nan

>  <Num_Resolved_Atoms>  (158) 
nan

>  <Num_Not_Resolved_Atoms>  (158) 
nan

$$$$
CHEMBL1947255
     RDKit          3D

  0  0  0  0  0  0  0  0  0  0999 V3000
M  V30 BEGIN CTAB
M  V30 COUNTS 55 59 0 0 0
M  V30 BEGIN ATOM
M  V30 1 O -0.523156 0.799510 4.420391 0
M  V30 2 C -0.102533 0.333664 3.335105 0
M  V30 3 N 1.255073 0.165024 2.960544 0
M  V30 4 C 1.366299 -0.341087 1.773819 0
M  V30 5 N 2.685828 -0.573046 1.250869 0
M  V30 6 C 3.900762 -0.276409 1.947487 0
M  V30 7 C 5.064014 -0.697959 1.036784 0
M  V30 8 C 5.069067 0.176579 -0.171187 0
M  V30 9 C 5.092014 1.648051 0.109529 0
M  V30 10 C 4.170155 2.100239 1.196962 0
M  V30 11 C 4.071611 1.161138 2.346217 0
M  V30 12 N 0.064948 -0.552018 1.255415 0
M  V30 13 C -0.880784 -0.144702 2.201319 0
M  V30 14 C -2.192827 -0.119265 2.086064 0
M  V30 15 C -3.097970 0.419639 3.103006 0
M  V30 16 C -3.663414 1.763798 2.599861 0
M  V30 17 N -4.546455 1.617475 1.471212 0
M  V30 18 C -4.525597 0.920459 0.215231 0
M  V30 19 O -5.197535 1.263557 -0.769304 0
M  V30 20 C -3.691712 -0.280581 -0.017066 0
M  V30 21 N -3.758656 -1.148094 -1.022288 0
M  V30 22 C -2.829245 -2.138226 -0.869692 0
M  V30 23 C -2.644269 -3.243965 -1.802836 0
M  V30 24 C -3.465389 -3.291128 -2.911331 0
M  V30 25 C -3.288663 -4.351936 -3.809297 0
M  V30 26 C -2.318910 -5.302408 -3.567995 0
M  V30 27 C -1.524412 -5.225992 -2.462832 0
M  V30 28 C -1.669141 -4.184380 -1.543982 0
M  V30 29 C -2.091415 -1.927884 0.307406 0
M  V30 30 C -2.658289 -0.748276 0.820247 0
M  V30 31 H 2.695149 -0.997021 0.272953 0
M  V30 32 H 4.042816 -0.889308 2.882460 0
M  V30 33 H 4.842605 -1.732035 0.694389 0
M  V30 34 H 6.013967 -0.689589 1.602158 0
M  V30 35 H 4.208534 -0.117037 -0.818246 0
M  V30 36 H 5.995300 -0.073692 -0.749874 0
M  V30 37 H 6.126275 2.010138 0.227246 0
M  V30 38 H 4.723035 2.144762 -0.836280 0
M  V30 39 H 4.597648 3.064465 1.607683 0
M  V30 40 H 3.186432 2.377362 0.788974 0
M  V30 41 H 3.237640 1.455741 2.993601 0
M  V30 42 H 5.023354 1.192023 2.948664 0
M  V30 43 H 0.045190 -0.922405 0.299200 0
M  V30 44 H -2.638058 0.680103 4.061318 0
M  V30 45 H -4.029090 -0.194993 3.264581 0
M  V30 46 H -4.183245 2.213690 3.466584 0
M  V30 47 H -2.771927 2.365599 2.332250 0
M  V30 48 H -5.464709 2.157215 1.557666 0
M  V30 49 H -4.443095 -1.050645 -1.803704 0
M  V30 50 H -4.238590 -2.572213 -3.144370 0
M  V30 51 H -3.895581 -4.447983 -4.693878 0
M  V30 52 H -2.113477 -6.153838 -4.207855 0
M  V30 53 H -0.736708 -5.947827 -2.213249 0
M  V30 54 H -1.042018 -4.104088 -0.650544 0
M  V30 55 H -1.305765 -2.531136 0.735862 0
M  V30 END ATOM
M  V30 BEGIN BOND
M  V30 1 2 1 2
M  V30 2 1 2 3
M  V30 3 2 3 4
M  V30 4 1 4 5
M  V30 5 1 5 6
M  V30 6 1 6 7
M  V30 7 1 7 8
M  V30 8 1 8 9
M  V30 9 1 9 10
M  V30 10 1 10 11
M  V30 11 1 4 12
M  V30 12 1 12 13
M  V30 13 2 13 14
M  V30 14 1 14 15
M  V30 15 1 15 16
M  V30 16 1 16 17
M  V30 17 1 17 18
M  V30 18 2 18 19
M  V30 19 1 18 20
M  V30 20 1 20 21
M  V30 21 1 21 22
M  V30 22 1 22 23
M  V30 23 2 23 24
M  V30 24 1 24 25
M  V30 25 2 25 26
M  V30 26 1 26 27
M  V30 27 2 27 28
M  V30 28 2 22 29
M  V30 29 1 29 30
M  V30 30 1 13 2
M  V30 31 1 30 14
M  V30 32 1 11 6
M  V30 33 2 30 20
M  V30 34 1 28 23
M  V30 35 1 5 31
M  V30 36 1 6 32
M  V30 37 1 7 33
M  V30 38 1 7 34
M  V30 39 1 8 35
M  V30 40 1 8 36
M  V30 41 1 9 37
M  V30 42 1 9 38
M  V30 43 1 10 39
M  V30 44 1 10 40
M  V30 45 1 11 41
M  V30 46 1 11 42
M  V30 47 1 12 43
M  V30 48 1 15 44
M  V30 49 1 15 45
M  V30 50 1 16 46
M  V30 51 1 16 47
M  V30 52 1 17 48
M  V30 53 1 21 49
M  V30 54 1 24 50
M  V30 55 1 25 51
M  V30 56 1 26 52
M  V30 57 1 27 53
M  V30 58 1 28 54
M  V30 59 1 29 55
M  V30 END BOND
M  V30 END CTAB
M  END
>  <Dataset>  (159) 
ChEMBL_Kinases

>  <Ligand_Instance>  (159) 
nan

>  <PDB_ID>  (159) 
nan

>  <Standardized_SMILES>  (159) 
O=C1N=C(NC2CCCCC2)N/C1=C1/CCNC(=O)c2[nH]c(-c3ccccc3)cc21

>  <Name>  (159) 
nan

>  <Pocket>  (159) 
nan

>  <ATP_Site>  (159) 
nan

>  <Peripheral>  (159) 
nan

>  <Num_H_Atoms_ProtBoundConf>  (159) 
nan

>  <Num_Resolved_Atoms>  (159) 
nan

>  <Num_Not_Resolved_Atoms>  (159) 
nan

$$$$
CHEMBL1947254
     RDKit          3D

  0  0  0  0  0  0  0  0  0  0999 V3000
M  V30 BEGIN CTAB
M  V30 COUNTS 56 60 0 0 0
M  V30 BEGIN ATOM
M  V30 1 C 6.134145 -0.485444 3.188236 0
M  V30 2 O 5.503398 0.582923 2.507463 0
M  V30 3 C 4.935954 0.447653 1.254576 0
M  V30 4 C 4.346228 1.541000 0.676424 0
M  V30 5 C 3.777273 1.418180 -0.572004 0
M  V30 6 C 3.752826 0.251403 -1.306826 0
M  V30 7 C 3.128066 0.128001 -2.650190 0
M  V30 8 N 1.743223 -0.311004 -2.405721 0
M  V30 9 C 0.742629 0.380293 -1.671287 0
M  V30 10 N 0.736595 1.673576 -1.697186 0
M  V30 11 C -0.319329 2.208933 -0.917382 0
M  V30 12 O -0.601562 3.420035 -0.732842 0
M  V30 13 C -1.018209 1.053138 -0.366988 0
M  V30 14 C -2.044798 1.081212 0.482054 0
M  V30 15 C -2.587112 2.351583 0.975117 0
M  V30 16 C -2.120834 2.506837 2.416765 0
M  V30 17 N -2.740124 1.551467 3.312451 0
M  V30 18 C -2.935718 0.115875 3.327472 0
M  V30 19 O -3.125690 -0.573350 4.353122 0
M  V30 20 C -2.929861 -0.700049 2.090479 0
M  V30 21 N -3.299006 -1.979272 1.918520 0
M  V30 22 C -3.158318 -2.348722 0.617148 0
M  V30 23 C -3.473433 -3.676841 0.105406 0
M  V30 24 C -3.303494 -3.966792 -1.231226 0
M  V30 25 C -3.611931 -5.251493 -1.693202 0
M  V30 26 C -4.077080 -6.196848 -0.807656 0
M  V30 27 C -4.265926 -5.961764 0.538761 0
M  V30 28 C -3.941066 -4.664657 0.935895 0
M  V30 29 C -2.671001 -1.290861 -0.164974 0
M  V30 30 C -2.542217 -0.283531 0.800493 0
M  V30 31 N -0.324856 -0.078665 -0.858476 0
M  V30 32 C 4.351725 -0.877829 -0.732373 0
M  V30 33 C 4.923304 -0.728934 0.537888 0
M  V30 34 H 5.554504 -1.436860 3.046724 0
M  V30 35 H 7.139921 -0.618054 2.751398 0
M  V30 36 H 6.273610 -0.253993 4.261672 0
M  V30 37 H 4.329004 2.499109 1.203271 0
M  V30 38 H 3.333630 2.314897 -0.975429 0
M  V30 39 H 3.646461 -0.571984 -3.308401 0
M  V30 40 H 3.031899 1.144511 -3.121103 0
M  V30 41 H 1.441595 -1.250589 -2.814871 0
M  V30 42 H -3.706479 2.222709 1.124358 0
M  V30 43 H -2.538730 3.225722 0.361602 0
M  V30 44 H -2.477545 3.504839 2.744091 0
M  V30 45 H -1.021454 2.508793 2.492915 0
M  V30 46 H -3.182054 1.926438 4.210880 0
M  V30 47 H -3.640234 -2.563326 2.711170 0
M  V30 48 H -2.938107 -3.219036 -1.918735 0
M  V30 49 H -3.495441 -5.526415 -2.729507 0
M  V30 50 H -4.312811 -7.186902 -1.171189 0
M  V30 51 H -4.626008 -6.679189 1.248684 0
M  V30 52 H -4.067276 -4.419130 1.978884 0
M  V30 53 H -2.474138 -1.224222 -1.201331 0
M  V30 54 H -0.394599 -1.099302 -0.739853 0
M  V30 55 H 4.374662 -1.829907 -1.244316 0
M  V30 56 H 5.389291 -1.610028 0.981997 0
M  V30 END ATOM
M  V30 BEGIN BOND
M  V30 1 1 1 2
M  V30 2 1 2 3
M  V30 3 2 3 4
M  V30 4 1 4 5
M  V30 5 2 5 6
M  V30 6 1 6 7
M  V30 7 1 7 8
M  V30 8 1 8 9
M  V30 9 2 9 10
M  V30 10 1 10 11
M  V30 11 2 11 12
M  V30 12 1 11 13
M  V30 13 2 13 14
M  V30 14 1 14 15
M  V30 15 1 15 16
M  V30 16 1 16 17
M  V30 17 1 17 18
M  V30 18 2 18 19
M  V30 19 1 18 20
M  V30 20 1 20 21
M  V30 21 1 21 22
M  V30 22 1 22 23
M  V30 23 2 23 24
M  V30 24 1 24 25
M  V30 25 2 25 26
M  V30 26 1 26 27
M  V30 27 2 27 28
M  V30 28 2 22 29
M  V30 29 1 29 30
M  V30 30 1 13 31
M  V30 31 1 6 32
M  V30 32 2 32 33
M  V30 33 1 33 3
M  V30 34 1 31 9
M  V30 35 1 30 14
M  V30 36 2 30 20
M  V30 37 1 28 23
M  V30 38 1 1 34
M  V30 39 1 1 35
M  V30 40 1 1 36
M  V30 41 1 4 37
M  V30 42 1 5 38
M  V30 43 1 7 39
M  V30 44 1 7 40
M  V30 45 1 8 41
M  V30 46 1 15 42
M  V30 47 1 15 43
M  V30 48 1 16 44
M  V30 49 1 16 45
M  V30 50 1 17 46
M  V30 51 1 21 47
M  V30 52 1 24 48
M  V30 53 1 25 49
M  V30 54 1 26 50
M  V30 55 1 27 51
M  V30 56 1 28 52
M  V30 57 1 29 53
M  V30 58 1 31 54
M  V30 59 1 32 55
M  V30 60 1 33 56
M  V30 END BOND
M  V30 END CTAB
M  END
>  <Dataset>  (160) 
ChEMBL_Kinases

>  <Ligand_Instance>  (160) 
nan

>  <PDB_ID>  (160) 
nan

>  <Standardized_SMILES>  (160) 
COc1ccc(CNC2=NC(=O)/C(=C3\CCNC(=O)c4[nH]c(-c5ccccc5)cc43)N2)cc1

>  <Name>  (160) 
nan

>  <Pocket>  (160) 
nan

>  <ATP_Site>  (160) 
nan

>  <Peripheral>  (160) 
nan

>  <Num_H_Atoms_ProtBoundConf>  (160) 
nan

>  <Num_Resolved_Atoms>  (160) 
nan

>  <Num_Not_Resolved_Atoms>  (160) 
nan

$$$$
CHEMBL1947149
     RDKit          3D

  0  0  0  0  0  0  0  0  0  0999 V3000
M  V30 BEGIN CTAB
M  V30 COUNTS 45 48 0 0 0
M  V30 BEGIN ATOM
M  V30 1 C 0.515566 -6.822509 0.947808 0
M  V30 2 O -0.468430 -6.119935 0.233108 0
M  V30 3 C -0.384808 -4.787448 -0.079145 0
M  V30 4 C 0.716138 -4.052559 0.315184 0
M  V30 5 C 0.796505 -2.717316 -0.000302 0
M  V30 6 C -0.220944 -2.135554 -0.703720 0
M  V30 7 N -0.203960 -0.761123 -1.065996 0
M  V30 8 C 0.763018 0.209865 -0.701313 0
M  V30 9 N 1.962766 0.517375 -1.235008 0
M  V30 10 C 2.723458 1.519724 -0.705358 0
M  V30 11 C 2.309566 2.270774 0.400127 0
M  V30 12 C 1.074760 1.923065 0.915075 0
M  V30 13 N 0.327651 0.921240 0.376921 0
M  V30 14 C 0.448815 2.580442 2.056986 0
M  V30 15 C -0.905652 2.314796 2.067160 0
M  V30 16 C -1.713057 2.834774 3.054906 0
M  V30 17 C -1.176537 3.629276 4.048192 0
M  V30 18 I -2.428320 4.423503 5.559980 0
M  V30 19 C 0.188183 3.893658 4.033585 0
M  V30 20 C 0.995106 3.372504 3.044205 0
M  V30 21 N 2.355978 3.738249 3.176166 0
M  V30 22 C 3.332607 3.716286 2.141483 0
M  V30 23 O 4.434984 4.191099 2.537904 0
M  V30 24 C 3.345149 3.269033 0.729796 0
M  V30 25 C -1.316569 -2.867891 -1.095638 0
M  V30 26 C -1.425980 -4.208587 -0.794144 0
M  V30 27 O -2.496537 -5.012788 -1.152527 0
M  V30 28 C -3.627454 -4.624563 -1.859301 0
M  V30 29 H 0.028456 -7.736738 1.353140 0
M  V30 30 H 1.300720 -7.085615 0.185196 0
M  V30 31 H 1.016823 -6.256945 1.736641 0
M  V30 32 H 1.527550 -4.489409 0.866441 0
M  V30 33 H 1.667697 -2.145833 0.314316 0
M  V30 34 H -0.919261 -0.313633 -1.651679 0
M  V30 35 H 3.672459 1.676127 -1.219498 0
M  V30 36 H -1.323419 1.692034 1.286531 0
M  V30 37 H -2.775730 2.594239 3.015818 0
M  V30 38 H 0.638445 4.511455 4.795695 0
M  V30 39 H 2.629391 4.043211 4.119938 0
M  V30 40 H 4.344491 2.838395 0.448926 0
M  V30 41 H 3.195201 4.154025 0.073496 0
M  V30 42 H -2.114272 -2.394693 -1.650305 0
M  V30 43 H -3.656878 -3.589497 -2.199016 0
M  V30 44 H -4.574586 -4.774061 -1.269779 0
M  V30 45 H -3.750254 -5.311458 -2.731845 0
M  V30 END ATOM
M  V30 BEGIN BOND
M  V30 1 1 1 2
M  V30 2 1 2 3
M  V30 3 2 3 4
M  V30 4 1 4 5
M  V30 5 2 5 6
M  V30 6 1 6 7
M  V30 7 1 7 8
M  V30 8 2 8 9
M  V30 9 1 9 10
M  V30 10 2 10 11
M  V30 11 1 11 12
M  V30 12 2 12 13
M  V30 13 1 12 14
M  V30 14 2 14 15
M  V30 15 1 15 16
M  V30 16 2 16 17
M  V30 17 1 17 18
M  V30 18 1 17 19
M  V30 19 2 19 20
M  V30 20 1 20 21
M  V30 21 1 21 22
M  V30 22 2 22 23
M  V30 23 1 22 24
M  V30 24 1 6 25
M  V30 25 2 25 26
M  V30 26 1 26 27
M  V30 27 1 27 28
M  V30 28 1 26 3
M  V30 29 1 13 8
M  V30 30 1 20 14
M  V30 31 1 24 11
M  V30 32 1 1 29
M  V30 33 1 1 30
M  V30 34 1 1 31
M  V30 35 1 4 32
M  V30 36 1 5 33
M  V30 37 1 7 34
M  V30 38 1 10 35
M  V30 39 1 15 36
M  V30 40 1 16 37
M  V30 41 1 19 38
M  V30 42 1 21 39
M  V30 43 1 24 40
M  V30 44 1 24 41
M  V30 45 1 25 42
M  V30 46 1 28 43
M  V30 47 1 28 44
M  V30 48 1 28 45
M  V30 END BOND
M  V30 END CTAB
M  END
>  <Dataset>  (161) 
ChEMBL_Kinases

>  <Ligand_Instance>  (161) 
nan

>  <PDB_ID>  (161) 
nan

>  <Standardized_SMILES>  (161) 
COc1ccc(Nc2ncc3c(n2)-c2ccc(I)cc2NC(=O)C3)cc1OC

>  <Name>  (161) 
nan

>  <Pocket>  (161) 
nan

>  <ATP_Site>  (161) 
nan

>  <Peripheral>  (161) 
nan

>  <Num_H_Atoms_ProtBoundConf>  (161) 
nan

>  <Num_Resolved_Atoms>  (161) 
nan

>  <Num_Not_Resolved_Atoms>  (161) 
nan

$$$$
CHEMBL1945802
     RDKit          3D

  0  0  0  0  0  0  0  0  0  0999 V3000
M  V30 BEGIN CTAB
M  V30 COUNTS 58 61 0 0 0
M  V30 BEGIN ATOM
M  V30 1 C -0.119191 2.527501 3.689764 0
M  V30 2 O 0.435275 1.374104 3.093718 0
M  V30 3 C 1.072293 1.333618 1.872198 0
M  V30 4 C 2.442568 1.520664 1.634932 0
M  V30 5 C 3.138799 1.769943 2.927749 0
M  V30 6 C 3.368473 0.510328 3.728494 0
M  V30 7 C 4.223483 -0.471634 3.011162 0
M  V30 8 N 3.745205 -0.952116 1.757493 0
M  V30 9 C 4.771786 -1.874113 1.242378 0
M  V30 10 C 2.528356 -1.720398 1.816035 0
M  V30 11 C 2.972140 1.458045 0.364792 0
M  V30 12 C 2.106022 1.203599 -0.674944 0
M  V30 13 C 0.759833 1.013905 -0.489601 0
M  V30 14 C 0.228411 1.077348 0.790827 0
M  V30 15 N -1.190350 0.885174 0.972909 0
M  V30 16 C -2.045491 0.598418 -0.138679 0
M  V30 17 N -2.657810 1.440040 -0.996327 0
M  V30 18 C -3.425986 0.915236 -1.968048 0
M  V30 19 C -3.643299 -0.456231 -2.162085 0
M  V30 20 C -2.978894 -1.248968 -1.239698 0
M  V30 21 N -2.211309 -0.726311 -0.268661 0
M  V30 22 C -3.062268 -2.712278 -1.241455 0
M  V30 23 C -2.639666 -3.193848 -0.004007 0
M  V30 24 C -2.609862 -4.528278 0.295052 0
M  V30 25 C -3.017211 -5.411199 -0.678511 0
M  V30 26 Cl -2.992174 -7.141919 -0.327396 0
M  V30 27 C -3.439221 -4.955225 -1.910454 0
M  V30 28 C -3.471977 -3.609968 -2.219494 0
M  V30 29 N -3.928502 -3.285737 -3.530301 0
M  V30 30 C -4.292030 -1.982906 -4.012729 0
M  V30 31 S -4.457936 -1.975733 -5.658145 0
M  V30 32 C -4.528039 -0.715951 -3.303437 0
M  V30 33 H -1.165624 2.277285 3.981106 0
M  V30 34 H 0.469603 2.763680 4.602450 0
M  V30 35 H -0.101777 3.385212 2.978935 0
M  V30 36 H 4.132212 2.210960 2.708262 0
M  V30 37 H 2.599504 2.525484 3.534536 0
M  V30 38 H 3.945827 0.831564 4.636514 0
M  V30 39 H 2.418586 0.077695 4.105974 0
M  V30 40 H 4.501887 -1.344608 3.626478 0
M  V30 41 H 5.206383 0.041960 2.786650 0
M  V30 42 H 5.427319 -1.340938 0.515678 0
M  V30 43 H 5.434170 -2.216977 2.061474 0
M  V30 44 H 4.313141 -2.745725 0.778500 0
M  V30 45 H 2.018440 -1.585001 2.790845 0
M  V30 46 H 2.652337 -2.793915 1.558123 0
M  V30 47 H 1.800739 -1.341072 1.043793 0
M  V30 48 H 4.039372 1.621193 0.335369 0
M  V30 49 H 2.575548 1.162644 -1.666751 0
M  V30 50 H 0.144009 0.818543 -1.355358 0
M  V30 51 H -1.576129 0.957830 1.922392 0
M  V30 52 H -3.901781 1.626279 -2.638430 0
M  V30 53 H -2.317392 -2.499950 0.766256 0
M  V30 54 H -2.275103 -4.875108 1.270463 0
M  V30 55 H -3.752899 -5.637774 -2.660538 0
M  V30 56 H -3.980876 -4.133943 -4.155795 0
M  V30 57 H -5.578502 -0.621623 -2.987035 0
M  V30 58 H -4.365816 0.133343 -4.026156 0
M  V30 END ATOM
M  V30 BEGIN BOND
M  V30 1 1 1 2
M  V30 2 1 2 3
M  V30 3 2 3 4
M  V30 4 1 4 5
M  V30 5 1 5 6
M  V30 6 1 6 7
M  V30 7 1 7 8
M  V30 8 1 8 9
M  V30 9 1 8 10
M  V30 10 1 4 11
M  V30 11 2 11 12
M  V30 12 1 12 13
M  V30 13 2 13 14
M  V30 14 1 14 15
M  V30 15 1 15 16
M  V30 16 2 16 17
M  V30 17 1 17 18
M  V30 18 2 18 19
M  V30 19 1 19 20
M  V30 20 2 20 21
M  V30 21 1 20 22
M  V30 22 2 22 23
M  V30 23 1 23 24
M  V30 24 2 24 25
M  V30 25 1 25 26
M  V30 26 1 25 27
M  V30 27 2 27 28
M  V30 28 1 28 29
M  V30 29 1 29 30
M  V30 30 2 30 31
M  V30 31 1 30 32
M  V30 32 1 14 3
M  V30 33 1 21 16
M  V30 34 1 28 22
M  V30 35 1 32 19
M  V30 36 1 1 33
M  V30 37 1 1 34
M  V30 38 1 1 35
M  V30 39 1 5 36
M  V30 40 1 5 37
M  V30 41 1 6 38
M  V30 42 1 6 39
M  V30 43 1 7 40
M  V30 44 1 7 41
M  V30 45 1 9 42
M  V30 46 1 9 43
M  V30 47 1 9 44
M  V30 48 1 10 45
M  V30 49 1 10 46
M  V30 50 1 10 47
M  V30 51 1 11 48
M  V30 52 1 12 49
M  V30 53 1 13 50
M  V30 54 1 15 51
M  V30 55 1 18 52
M  V30 56 1 23 53
M  V30 57 1 24 54
M  V30 58 1 27 55
M  V30 59 1 29 56
M  V30 60 1 32 57
M  V30 61 1 32 58
M  V30 END BOND
M  V30 END CTAB
M  END
>  <Dataset>  (162) 
ChEMBL_Kinases

>  <Ligand_Instance>  (162) 
nan

>  <PDB_ID>  (162) 
nan

>  <Standardized_SMILES>  (162) 
COc1c(CCCN(C)C)cccc1Nc1ncc2c(n1)-c1ccc(Cl)cc1NC(=S)C2

>  <Name>  (162) 
nan

>  <Pocket>  (162) 
nan

>  <ATP_Site>  (162) 
nan

>  <Peripheral>  (162) 
nan

>  <Num_H_Atoms_ProtBoundConf>  (162) 
nan

>  <Num_Resolved_Atoms>  (162) 
nan

>  <Num_Not_Resolved_Atoms>  (162) 
nan

$$$$
CHEMBL1945803
     RDKit          3D

  0  0  0  0  0  0  0  0  0  0999 V3000
M  V30 BEGIN CTAB
M  V30 COUNTS 53 56 0 0 0
M  V30 BEGIN ATOM
M  V30 1 C 1.536368 -1.307289 2.627176 0
M  V30 2 N 2.498285 -0.877743 1.626877 0
M  V30 3 C 3.473805 -1.929898 1.416353 0
M  V30 4 C 3.083711 0.383442 1.989327 0
M  V30 5 C 4.060863 0.791235 0.908436 0
M  V30 6 C 3.370593 0.938332 -0.417227 0
M  V30 7 C 2.305990 1.954235 -0.421782 0
M  V30 8 C 2.589315 3.263493 -0.752968 0
M  V30 9 N 1.613065 4.196647 -0.759063 0
M  V30 10 C 0.336390 3.908665 -0.449328 0
M  V30 11 C -0.026148 2.614213 -0.105835 0
M  V30 12 N -1.361441 2.249091 0.223588 0
M  V30 13 C -1.809948 0.994711 0.653200 0
M  V30 14 N -1.873127 0.903234 1.984266 0
M  V30 15 C -2.280694 -0.231652 2.621632 0
M  V30 16 C -2.650548 -1.351292 1.903182 0
M  V30 17 C -2.576808 -1.233233 0.530364 0
M  V30 18 N -2.166108 -0.086959 -0.088614 0
M  V30 19 C -2.886571 -2.222488 -0.495149 0
M  V30 20 C -3.187392 -1.675493 -1.721519 0
M  V30 21 C -3.494364 -2.507719 -2.777386 0
M  V30 22 C -3.502077 -3.887042 -2.612544 0
M  V30 23 Cl -3.892354 -4.937896 -3.956181 0
M  V30 24 C -3.196766 -4.439141 -1.368560 0
M  V30 25 C -2.886779 -3.605381 -0.301365 0
M  V30 26 N -2.600345 -4.348428 0.896536 0
M  V30 27 C -2.513185 -3.795014 2.223008 0
M  V30 28 S -1.687422 -4.752667 3.277665 0
M  V30 29 C -3.071624 -2.511039 2.692438 0
M  V30 30 C 0.983079 1.676311 -0.105041 0
M  V30 31 H 0.525019 -1.058426 2.219602 0
M  V30 32 H 1.654349 -2.375904 2.817582 0
M  V30 33 H 1.705936 -0.715272 3.544183 0
M  V30 34 H 4.418832 -1.688570 1.910086 0
M  V30 35 H 3.123775 -2.903416 1.819877 0
M  V30 36 H 3.658884 -2.013224 0.330297 0
M  V30 37 H 3.555941 0.369744 2.988976 0
M  V30 38 H 2.249673 1.126485 2.082190 0
M  V30 39 H 4.809958 -0.020201 0.818886 0
M  V30 40 H 4.628721 1.703425 1.180270 0
M  V30 41 H 4.147895 1.286840 -1.159866 0
M  V30 42 H 2.964430 -0.006517 -0.777300 0
M  V30 43 H 3.574700 3.601392 -1.016390 0
M  V30 44 H -0.408246 4.679330 -0.466136 0
M  V30 45 H -2.111928 2.982821 0.143263 0
M  V30 46 H -2.330524 -0.299144 3.701529 0
M  V30 47 H -3.167157 -0.588218 -1.796853 0
M  V30 48 H -3.730169 -2.098706 -3.735628 0
M  V30 49 H -3.191924 -5.525533 -1.194590 0
M  V30 50 H -2.442670 -5.391538 0.773288 0
M  V30 51 H -2.740400 -2.341428 3.737740 0
M  V30 52 H -4.195041 -2.591244 2.744855 0
M  V30 53 H 0.698249 0.680088 0.160259 0
M  V30 END ATOM
M  V30 BEGIN BOND
M  V30 1 1 1 2
M  V30 2 1 2 3
M  V30 3 1 2 4
M  V30 4 1 4 5
M  V30 5 1 5 6
M  V30 6 1 6 7
M  V30 7 2 7 8
M  V30 8 1 8 9
M  V30 9 2 9 10
M  V30 10 1 10 11
M  V30 11 1 11 12
M  V30 12 1 12 13
M  V30 13 2 13 14
M  V30 14 1 14 15
M  V30 15 2 15 16
M  V30 16 1 16 17
M  V30 17 2 17 18
M  V30 18 1 17 19
M  V30 19 2 19 20
M  V30 20 1 20 21
M  V30 21 2 21 22
M  V30 22 1 22 23
M  V30 23 1 22 24
M  V30 24 2 24 25
M  V30 25 1 25 26
M  V30 26 1 26 27
M  V30 27 2 27 28
M  V30 28 1 27 29
M  V30 29 2 11 30
M  V30 30 1 30 7
M  V30 31 1 18 13
M  V30 32 1 25 19
M  V30 33 1 29 16
M  V30 34 1 1 31
M  V30 35 1 1 32
M  V30 36 1 1 33
M  V30 37 1 3 34
M  V30 38 1 3 35
M  V30 39 1 3 36
M  V30 40 1 4 37
M  V30 41 1 4 38
M  V30 42 1 5 39
M  V30 43 1 5 40
M  V30 44 1 6 41
M  V30 45 1 6 42
M  V30 46 1 8 43
M  V30 47 1 10 44
M  V30 48 1 12 45
M  V30 49 1 15 46
M  V30 50 1 20 47
M  V30 51 1 21 48
M  V30 52 1 24 49
M  V30 53 1 26 50
M  V30 54 1 29 51
M  V30 55 1 29 52
M  V30 56 1 30 53
M  V30 END BOND
M  V30 END CTAB
M  END
>  <Dataset>  (163) 
ChEMBL_Kinases

>  <Ligand_Instance>  (163) 
nan

>  <PDB_ID>  (163) 
nan

>  <Standardized_SMILES>  (163) 
CN(C)CCCc1cncc(Nc2ncc3c(n2)-c2ccc(Cl)cc2NC(=S)C3)c1

>  <Name>  (163) 
nan

>  <Pocket>  (163) 
nan

>  <ATP_Site>  (163) 
nan

>  <Peripheral>  (163) 
nan

>  <Num_H_Atoms_ProtBoundConf>  (163) 
nan

>  <Num_Resolved_Atoms>  (163) 
nan

>  <Num_Not_Resolved_Atoms>  (163) 
nan

$$$$
CHEMBL1945804
     RDKit          3D

  0  0  0  0  0  0  0  0  0  0999 V3000
M  V30 BEGIN CTAB
M  V30 COUNTS 56 59 0 0 0
M  V30 BEGIN ATOM
M  V30 1 C -1.995355 2.830159 3.425622 0
M  V30 2 C -0.884421 1.895991 3.108629 0
M  V30 3 N 0.261441 1.919221 3.811203 0
M  V30 4 C 1.277718 1.062676 3.520629 0
M  V30 5 C 1.200499 0.125932 2.499000 0
M  V30 6 C 2.256885 -0.818722 2.148625 0
M  V30 7 C 3.241981 -0.319459 1.117253 0
M  V30 8 C 3.978589 0.909518 1.528135 0
M  V30 9 N 4.925459 1.355036 0.498823 0
M  V30 10 C 5.569955 2.552731 1.002196 0
M  V30 11 C 4.173445 1.720452 -0.684498 0
M  V30 12 C -0.004902 0.156826 1.817189 0
M  V30 13 C -1.092730 1.001001 2.052820 0
M  V30 14 N -2.261935 0.905204 1.272721 0
M  V30 15 C -2.336865 -0.031617 0.211057 0
M  V30 16 N -1.979933 0.520816 -0.981711 0
M  V30 17 C -1.983748 -0.215502 -2.116820 0
M  V30 18 C -2.343898 -1.547758 -2.131175 0
M  V30 19 C -2.699499 -2.075509 -0.905965 0
M  V30 20 N -2.701571 -1.346692 0.250594 0
M  V30 21 C -3.120105 -3.432857 -0.573940 0
M  V30 22 C -3.866406 -3.553829 0.580733 0
M  V30 23 C -4.292602 -4.823632 0.946591 0
M  V30 24 C -3.986981 -5.935519 0.190078 0
M  V30 25 Cl -4.552483 -7.520383 0.700559 0
M  V30 26 C -3.230304 -5.800755 -0.977541 0
M  V30 27 C -2.795219 -4.546822 -1.361614 0
M  V30 28 N -2.039188 -4.638137 -2.582344 0
M  V30 29 C -1.674504 -3.541126 -3.444572 0
M  V30 30 S -0.448018 -3.861202 -4.495397 0
M  V30 31 C -2.287286 -2.183748 -3.471884 0
M  V30 32 H -2.313447 3.338901 2.512608 0
M  V30 33 H -2.836838 2.181653 3.802664 0
M  V30 34 H -1.658464 3.529232 4.210612 0
M  V30 35 H 2.186193 1.108250 4.106008 0
M  V30 36 H 1.803748 -1.776991 1.857046 0
M  V30 37 H 2.868509 -1.051124 3.061986 0
M  V30 38 H 3.998195 -1.092607 0.880055 0
M  V30 39 H 2.659803 -0.185344 0.183901 0
M  V30 40 H 4.616364 0.730924 2.424213 0
M  V30 41 H 3.359352 1.778441 1.781803 0
M  V30 42 H 5.368804 2.754109 2.067008 0
M  V30 43 H 6.686679 2.511361 0.882969 0
M  V30 44 H 5.245863 3.464378 0.441921 0
M  V30 45 H 4.808026 2.274480 -1.407465 0
M  V30 46 H 3.716688 0.863428 -1.205892 0
M  V30 47 H 3.368697 2.407209 -0.365168 0
M  V30 48 H -0.124759 -0.559905 0.998479 0
M  V30 49 H -3.046019 1.570464 1.543797 0
M  V30 50 H -1.698571 0.235532 -3.060607 0
M  V30 51 H -4.055062 -2.628347 1.106948 0
M  V30 52 H -4.870671 -4.885925 1.849428 0
M  V30 53 H -3.001930 -6.683165 -1.554160 0
M  V30 54 H -1.712108 -5.580706 -2.894096 0
M  V30 55 H -1.729294 -1.560774 -4.177035 0
M  V30 56 H -3.324273 -2.311631 -3.879175 0
M  V30 END ATOM
M  V30 BEGIN BOND
M  V30 1 1 1 2
M  V30 2 2 2 3
M  V30 3 1 3 4
M  V30 4 2 4 5
M  V30 5 1 5 6
M  V30 6 1 6 7
M  V30 7 1 7 8
M  V30 8 1 8 9
M  V30 9 1 9 10
M  V30 10 1 9 11
M  V30 11 1 5 12
M  V30 12 2 12 13
M  V30 13 1 13 14
M  V30 14 1 14 15
M  V30 15 2 15 16
M  V30 16 1 16 17
M  V30 17 2 17 18
M  V30 18 1 18 19
M  V30 19 2 19 20
M  V30 20 1 19 21
M  V30 21 2 21 22
M  V30 22 1 22 23
M  V30 23 2 23 24
M  V30 24 1 24 25
M  V30 25 1 24 26
M  V30 26 2 26 27
M  V30 27 1 27 28
M  V30 28 1 28 29
M  V30 29 2 29 30
M  V30 30 1 29 31
M  V30 31 1 13 2
M  V30 32 1 20 15
M  V30 33 1 27 21
M  V30 34 1 31 18
M  V30 35 1 1 32
M  V30 36 1 1 33
M  V30 37 1 1 34
M  V30 38 1 4 35
M  V30 39 1 6 36
M  V30 40 1 6 37
M  V30 41 1 7 38
M  V30 42 1 7 39
M  V30 43 1 8 40
M  V30 44 1 8 41
M  V30 45 1 10 42
M  V30 46 1 10 43
M  V30 47 1 10 44
M  V30 48 1 11 45
M  V30 49 1 11 46
M  V30 50 1 11 47
M  V30 51 1 12 48
M  V30 52 1 14 49
M  V30 53 1 17 50
M  V30 54 1 22 51
M  V30 55 1 23 52
M  V30 56 1 26 53
M  V30 57 1 28 54
M  V30 58 1 31 55
M  V30 59 1 31 56
M  V30 END BOND
M  V30 END CTAB
M  END
>  <Dataset>  (164) 
ChEMBL_Kinases

>  <Ligand_Instance>  (164) 
nan

>  <PDB_ID>  (164) 
nan

>  <Standardized_SMILES>  (164) 
Cc1ncc(CCCN(C)C)cc1Nc1ncc2c(n1)-c1ccc(Cl)cc1NC(=S)C2

>  <Name>  (164) 
nan

>  <Pocket>  (164) 
nan

>  <ATP_Site>  (164) 
nan

>  <Peripheral>  (164) 
nan

>  <Num_H_Atoms_ProtBoundConf>  (164) 
nan

>  <Num_Resolved_Atoms>  (164) 
nan

>  <Num_Not_Resolved_Atoms>  (164) 
nan

$$$$
CHEMBL1945805
     RDKit          3D

  0  0  0  0  0  0  0  0  0  0999 V3000
M  V30 BEGIN CTAB
M  V30 COUNTS 59 62 0 0 0
M  V30 BEGIN ATOM
M  V30 1 C -0.023309 -1.142135 5.569108 0
M  V30 2 C 0.702638 -0.314287 4.580908 0
M  V30 3 N 1.974629 0.001038 4.909331 0
M  V30 4 C 2.747508 0.744938 4.106959 0
M  V30 5 C 2.296213 1.240254 2.889799 0
M  V30 6 C 3.227879 2.057446 2.118692 0
M  V30 7 C 4.122587 1.338102 1.170913 0
M  V30 8 C 3.443047 0.561978 0.099373 0
M  V30 9 N 2.598717 -0.474419 0.702843 0
M  V30 10 C 1.887679 -1.202569 -0.347056 0
M  V30 11 C 3.515309 -1.480388 1.274367 0
M  V30 12 C 0.999614 0.920782 2.550213 0
M  V30 13 C 0.213354 0.156058 3.381103 0
M  V30 14 N -1.115383 -0.145685 3.041590 0
M  V30 15 C -1.655923 0.260176 1.808277 0
M  V30 16 N -2.095196 1.477229 1.431555 0
M  V30 17 C -2.603240 1.697028 0.206151 0
M  V30 18 C -2.704305 0.673105 -0.745777 0
M  V30 19 C -2.246916 -0.559332 -0.327943 0
M  V30 20 N -1.741861 -0.757053 0.902372 0
M  V30 21 C -2.289783 -1.742190 -1.173710 0
M  V30 22 C -1.954780 -2.868128 -0.471642 0
M  V30 23 C -1.914048 -4.142194 -0.995605 0
M  V30 24 C -2.241636 -4.298344 -2.350991 0
M  V30 25 C -2.221009 -5.645113 -2.976364 0
M  V30 26 F -3.546409 -6.091393 -3.021258 0
M  V30 27 F -1.659141 -5.582413 -4.236348 0
M  V30 28 F -1.499991 -6.547387 -2.231035 0
M  V30 29 C -2.585140 -3.176884 -3.088595 0
M  V30 30 C -2.608814 -1.906217 -2.503682 0
M  V30 31 N -2.990309 -0.924449 -3.463869 0
M  V30 32 C -3.157246 0.462548 -3.176657 0
M  V30 33 S -3.202903 1.367236 -4.560777 0
M  V30 34 C -3.297816 1.279567 -1.954259 0
M  V30 35 H 0.403166 -2.185780 5.546238 0
M  V30 36 H -1.099871 -1.200338 5.426717 0
M  V30 37 H 0.236451 -0.786679 6.601867 0
M  V30 38 H 3.771643 0.950415 4.454882 0
M  V30 39 H 2.682292 2.894625 1.583457 0
M  V30 40 H 3.896447 2.629950 2.826630 0
M  V30 41 H 4.848054 0.730883 1.759166 0
M  V30 42 H 4.762231 2.123395 0.668792 0
M  V30 43 H 4.186395 -0.016399 -0.521825 0
M  V30 44 H 2.888542 1.166853 -0.624394 0
M  V30 45 H 1.924496 -2.296535 -0.204756 0
M  V30 46 H 0.822118 -0.882803 -0.353763 0
M  V30 47 H 2.354634 -0.988989 -1.349139 0
M  V30 48 H 4.287237 -1.680398 0.487188 0
M  V30 49 H 4.008585 -1.124532 2.187401 0
M  V30 50 H 2.915700 -2.381312 1.485849 0
M  V30 51 H 0.642601 1.300034 1.613333 0
M  V30 52 H -1.810139 -0.663560 3.611875 0
M  V30 53 H -2.928620 2.707630 -0.002852 0
M  V30 54 H -1.699035 -2.752247 0.586799 0
M  V30 55 H -1.647362 -5.031121 -0.427676 0
M  V30 56 H -2.842282 -3.282630 -4.144444 0
M  V30 57 H -3.146283 -1.288665 -4.425569 0
M  V30 58 H -2.803033 2.273025 -2.150346 0
M  V30 59 H -4.359119 1.533334 -1.743868 0
M  V30 END ATOM
M  V30 BEGIN BOND
M  V30 1 1 1 2
M  V30 2 2 2 3
M  V30 3 1 3 4
M  V30 4 2 4 5
M  V30 5 1 5 6
M  V30 6 1 6 7
M  V30 7 1 7 8
M  V30 8 1 8 9
M  V30 9 1 9 10
M  V30 10 1 9 11
M  V30 11 1 5 12
M  V30 12 2 12 13
M  V30 13 1 13 14
M  V30 14 1 14 15
M  V30 15 2 15 16
M  V30 16 1 16 17
M  V30 17 2 17 18
M  V30 18 1 18 19
M  V30 19 2 19 20
M  V30 20 1 19 21
M  V30 21 2 21 22
M  V30 22 1 22 23
M  V30 23 2 23 24
M  V30 24 1 24 25
M  V30 25 1 25 26
M  V30 26 1 25 27
M  V30 27 1 25 28
M  V30 28 1 24 29
M  V30 29 2 29 30
M  V30 30 1 30 31
M  V30 31 1 31 32
M  V30 32 2 32 33
M  V30 33 1 32 34
M  V30 34 1 13 2
M  V30 35 1 20 15
M  V30 36 1 30 21
M  V30 37 1 34 18
M  V30 38 1 1 35
M  V30 39 1 1 36
M  V30 40 1 1 37
M  V30 41 1 4 38
M  V30 42 1 6 39
M  V30 43 1 6 40
M  V30 44 1 7 41
M  V30 45 1 7 42
M  V30 46 1 8 43
M  V30 47 1 8 44
M  V30 48 1 10 45
M  V30 49 1 10 46
M  V30 50 1 10 47
M  V30 51 1 11 48
M  V30 52 1 11 49
M  V30 53 1 11 50
M  V30 54 1 12 51
M  V30 55 1 14 52
M  V30 56 1 17 53
M  V30 57 1 22 54
M  V30 58 1 23 55
M  V30 59 1 29 56
M  V30 60 1 31 57
M  V30 61 1 34 58
M  V30 62 1 34 59
M  V30 END BOND
M  V30 END CTAB
M  END
>  <Dataset>  (165) 
ChEMBL_Kinases

>  <Ligand_Instance>  (165) 
nan

>  <PDB_ID>  (165) 
nan

>  <Standardized_SMILES>  (165) 
Cc1ncc(CCCN(C)C)cc1Nc1ncc2c(n1)-c1ccc(C(F)(F)F)cc1NC(=S)C2

>  <Name>  (165) 
nan

>  <Pocket>  (165) 
nan

>  <ATP_Site>  (165) 
nan

>  <Peripheral>  (165) 
nan

>  <Num_H_Atoms_ProtBoundConf>  (165) 
nan

>  <Num_Resolved_Atoms>  (165) 
nan

>  <Num_Not_Resolved_Atoms>  (165) 
nan

$$$$
CHEMBL1945839
     RDKit          3D

  0  0  0  0  0  0  0  0  0  0999 V3000
M  V30 BEGIN CTAB
M  V30 COUNTS 57 61 0 0 0
M  V30 BEGIN ATOM
M  V30 1 C 0.499512 -3.469489 1.893152 0
M  V30 2 C 0.587201 -3.581755 0.364737 0
M  V30 3 N -0.097028 -2.489600 -0.289527 0
M  V30 4 C 0.633628 -1.357924 -0.541795 0
M  V30 5 O 1.862670 -1.314048 -0.197476 0
M  V30 6 C 0.135980 -0.226341 -1.156352 0
M  V30 7 C 0.995964 0.930861 -1.380902 0
M  V30 8 C 1.009157 1.853354 -0.354572 0
M  V30 9 C 1.791000 2.982889 -0.469993 0
M  V30 10 C 1.968528 4.086558 0.466827 0
M  V30 11 O 2.696936 5.101629 0.320817 0
M  V30 12 N 1.239453 4.033745 1.706476 0
M  V30 13 C 1.346059 5.079672 2.703774 0
M  V30 14 C 0.119115 5.539021 3.423218 0
M  V30 15 C 1.172309 4.792872 4.150745 0
M  V30 16 C 2.543023 3.139073 -1.639839 0
M  V30 17 C 2.527600 2.215004 -2.664000 0
M  V30 18 F 3.244049 2.347536 -3.797036 0
M  V30 19 C 1.747262 1.108215 -2.525377 0
M  V30 20 C 1.691160 0.076794 -3.599109 0
M  V30 21 C -1.189334 -0.239256 -1.542032 0
M  V30 22 C -1.934548 -1.374879 -1.292666 0
M  V30 23 N -3.215372 -1.749875 -1.517084 0
M  V30 24 N -3.395516 -2.997050 -1.056169 0
M  V30 25 C -2.212693 -3.428680 -0.528195 0
M  V30 26 C -2.277081 -4.776234 0.006850 0
M  V30 27 C -2.589826 -4.821299 1.365731 0
M  V30 28 C -2.846261 -3.694686 2.299240 0
M  V30 29 C -2.706662 -6.037655 2.013693 0
M  V30 30 C -2.520439 -7.239846 1.346825 0
M  V30 31 C -2.212514 -7.201883 0.008031 0
M  V30 32 C -2.092118 -6.000841 -0.652789 0
M  V30 33 F -1.793652 -5.840970 -1.964771 0
M  V30 34 N -1.350636 -2.419555 -0.688683 0
M  V30 35 H 0.102397 -4.403593 2.333951 0
M  V30 36 H 1.517707 -3.342363 2.317139 0
M  V30 37 H -0.155678 -2.637968 2.212348 0
M  V30 38 H 1.675980 -3.520586 0.066048 0
M  V30 39 H 0.154856 -4.541340 0.093850 0
M  V30 40 H 0.462843 1.811546 0.576897 0
M  V30 41 H 0.590551 3.269907 1.996197 0
M  V30 42 H 2.032390 5.898081 2.411203 0
M  V30 43 H -0.865421 5.083024 3.204097 0
M  V30 44 H 0.016950 6.614273 3.677689 0
M  V30 45 H 1.821409 5.310934 4.895373 0
M  V30 46 H 1.063060 3.718505 4.394459 0
M  V30 47 H 3.197848 4.000493 -1.832752 0
M  V30 48 H 2.707167 -0.237802 -3.915591 0
M  V30 49 H 1.176711 -0.833909 -3.280897 0
M  V30 50 H 1.197162 0.475591 -4.508389 0
M  V30 51 H -1.637251 0.607609 -2.023982 0
M  V30 52 H -3.845928 -3.870190 2.753611 0
M  V30 53 H -2.808260 -2.744035 1.725345 0
M  V30 54 H -2.135970 -3.697371 3.155969 0
M  V30 55 H -2.945353 -6.196933 3.066629 0
M  V30 56 H -2.595933 -8.222043 1.788728 0
M  V30 57 H -2.042150 -8.080943 -0.628576 0
M  V30 END ATOM
M  V30 BEGIN BOND
M  V30 1 1 1 2
M  V30 2 1 2 3
M  V30 3 1 3 4
M  V30 4 2 4 5
M  V30 5 1 4 6
M  V30 6 1 6 7
M  V30 7 2 7 8
M  V30 8 1 8 9
M  V30 9 1 9 10
M  V30 10 2 10 11
M  V30 11 1 10 12
M  V30 12 1 12 13
M  V30 13 1 13 14
M  V30 14 1 14 15
M  V30 15 2 9 16
M  V30 16 1 16 17
M  V30 17 1 17 18
M  V30 18 2 17 19
M  V30 19 1 19 20
M  V30 20 2 6 21
M  V30 21 1 21 22
M  V30 22 2 22 23
M  V30 23 1 23 24
M  V30 24 2 24 25
M  V30 25 1 25 26
M  V30 26 2 26 27
M  V30 27 1 27 28
M  V30 28 1 27 29
M  V30 29 2 29 30
M  V30 30 1 30 31
M  V30 31 2 31 32
M  V30 32 1 32 33
M  V30 33 1 25 34
M  V30 34 1 34 3
M  V30 35 1 19 7
M  V30 36 1 34 22
M  V30 37 1 15 13
M  V30 38 1 32 26
M  V30 39 1 1 35
M  V30 40 1 1 36
M  V30 41 1 1 37
M  V30 42 1 2 38
M  V30 43 1 2 39
M  V30 44 1 8 40
M  V30 45 1 12 41
M  V30 46 1 13 42
M  V30 47 1 14 43
M  V30 48 1 14 44
M  V30 49 1 15 45
M  V30 50 1 15 46
M  V30 51 1 16 47
M  V30 52 1 20 48
M  V30 53 1 20 49
M  V30 54 1 20 50
M  V30 55 1 21 51
M  V30 56 1 28 52
M  V30 57 1 28 53
M  V30 58 1 28 54
M  V30 59 1 29 55
M  V30 60 1 30 56
M  V30 61 1 31 57
M  V30 END BOND
M  V30 END CTAB
M  END
>  <Dataset>  (166) 
ChEMBL_Kinases

>  <Ligand_Instance>  (166) 
nan

>  <PDB_ID>  (166) 
nan

>  <Standardized_SMILES>  (166) 
CCn1c(=O)c(-c2cc(C(=O)NC3CC3)cc(F)c2C)cc2nnc(-c3c(C)cccc3F)n21

>  <Name>  (166) 
nan

>  <Pocket>  (166) 
nan

>  <ATP_Site>  (166) 
nan

>  <Peripheral>  (166) 
nan

>  <Num_H_Atoms_ProtBoundConf>  (166) 
nan

>  <Num_Resolved_Atoms>  (166) 
nan

>  <Num_Not_Resolved_Atoms>  (166) 
nan

$$$$
CHEMBL194595
     RDKit          3D

  0  0  0  0  0  0  0  0  0  0999 V3000
M  V30 BEGIN CTAB
M  V30 COUNTS 47 50 0 0 0
M  V30 BEGIN ATOM
M  V30 1 C 0.237860 -2.883047 6.846401 0
M  V30 2 C 1.533542 -2.867949 6.047751 0
M  V30 3 C 1.426940 -1.936848 4.888203 0
M  V30 4 N 2.162675 -1.599746 4.002447 0
M  V30 5 C 1.814264 -0.719783 3.054331 0
M  V30 6 C 2.852428 -0.421333 2.039982 0
M  V30 7 C 4.079107 0.133895 2.382809 0
M  V30 8 C 5.004444 0.388891 1.391301 0
M  V30 9 C 4.673707 0.080348 0.086592 0
M  V30 10 C 3.461632 -0.475040 -0.303481 0
M  V30 11 Cl 3.067665 -0.855141 -1.951700 0
M  V30 12 C 2.553140 -0.717990 0.726871 0
M  V30 13 C 0.407384 -0.152369 3.153432 0
M  V30 14 C 0.101044 0.814649 2.064052 0
M  V30 15 C 0.827429 1.953455 1.963401 0
M  V30 16 C 0.446432 2.764524 0.914636 0
M  V30 17 N -0.552656 2.462291 0.064203 0
M  V30 18 C -1.268487 1.326305 0.174148 0
M  V30 19 N -2.342089 0.912750 -0.672648 0
M  V30 20 C -1.864924 0.134149 -1.763977 0
M  V30 21 O -0.650627 -0.139849 -1.937077 0
M  V30 22 C -2.796388 -0.393441 -2.756137 0
M  V30 23 C -2.298496 -1.164463 -3.808598 0
M  V30 24 C -3.078046 -1.713486 -4.802659 0
M  V30 25 C -4.426148 -1.507858 -4.784112 0
M  V30 26 C -4.951489 -0.755155 -3.765167 0
M  V30 27 C -4.156576 -0.209000 -2.772058 0
M  V30 28 C -0.909579 0.493095 1.216153 0
M  V30 29 S -0.184858 -0.977576 4.595099 0
M  V30 30 H 0.381573 -3.473830 7.758654 0
M  V30 31 H -0.583881 -3.335383 6.286979 0
M  V30 32 H 0.038987 -1.823222 7.121919 0
M  V30 33 H 2.382594 -2.539325 6.642978 0
M  V30 34 H 1.712724 -3.919442 5.734875 0
M  V30 35 H 4.280721 0.355099 3.430875 0
M  V30 36 H 5.973598 0.823702 1.630107 0
M  V30 37 H 5.400138 0.278943 -0.703023 0
M  V30 38 H 1.608856 -1.149349 0.433950 0
M  V30 39 H 1.629636 2.213563 2.632335 0
M  V30 40 H 0.964507 3.715675 0.733626 0
M  V30 41 H -3.352017 1.139235 -0.530401 0
M  V30 42 H -1.239897 -1.374423 -3.895494 0
M  V30 43 H -2.658778 -2.304663 -5.601119 0
M  V30 44 H -5.064809 -1.925574 -5.550243 0
M  V30 45 H -6.019643 -0.542140 -3.674758 0
M  V30 46 H -4.576505 0.381878 -1.974375 0
M  V30 47 H -1.457049 -0.439294 1.350515 0
M  V30 END ATOM
M  V30 BEGIN BOND
M  V30 1 1 1 2
M  V30 2 1 2 3
M  V30 3 2 3 4
M  V30 4 1 4 5
M  V30 5 1 5 6
M  V30 6 2 6 7
M  V30 7 1 7 8
M  V30 8 2 8 9
M  V30 9 1 9 10
M  V30 10 1 10 11
M  V30 11 2 10 12
M  V30 12 2 5 13
M  V30 13 1 13 14
M  V30 14 2 14 15
M  V30 15 1 15 16
M  V30 16 2 16 17
M  V30 17 1 17 18
M  V30 18 1 18 19
M  V30 19 1 19 20
M  V30 20 2 20 21
M  V30 21 1 20 22
M  V30 22 2 22 23
M  V30 23 1 23 24
M  V30 24 2 24 25
M  V30 25 1 25 26
M  V30 26 2 26 27
M  V30 27 2 18 28
M  V30 28 1 13 29
M  V30 29 1 29 3
M  V30 30 1 12 6
M  V30 31 1 28 14
M  V30 32 1 27 22
M  V30 33 1 1 30
M  V30 34 1 1 31
M  V30 35 1 1 32
M  V30 36 1 2 33
M  V30 37 1 2 34
M  V30 38 1 7 35
M  V30 39 1 8 36
M  V30 40 1 9 37
M  V30 41 1 12 38
M  V30 42 1 15 39
M  V30 43 1 16 40
M  V30 44 1 19 41
M  V30 45 1 23 42
M  V30 46 1 24 43
M  V30 47 1 25 44
M  V30 48 1 26 45
M  V30 49 1 27 46
M  V30 50 1 28 47
M  V30 END BOND
M  V30 END CTAB
M  END
>  <Dataset>  (167) 
ChEMBL_Kinases

>  <Ligand_Instance>  (167) 
nan

>  <PDB_ID>  (167) 
nan

>  <Standardized_SMILES>  (167) 
CCc1nc(-c2cccc(Cl)c2)c(-c2ccnc(NC(=O)c3ccccc3)c2)s1

>  <Name>  (167) 
nan

>  <Pocket>  (167) 
nan

>  <ATP_Site>  (167) 
nan

>  <Peripheral>  (167) 
nan

>  <Num_H_Atoms_ProtBoundConf>  (167) 
nan

>  <Num_Resolved_Atoms>  (167) 
nan

>  <Num_Not_Resolved_Atoms>  (167) 
nan

$$$$
CHEMBL1946916
     RDKit          3D

  0  0  0  0  0  0  0  0  0  0999 V3000
M  V30 BEGIN CTAB
M  V30 COUNTS 28 31 0 0 0
M  V30 BEGIN ATOM
M  V30 1 O 2.050446 -0.861512 4.268996 0
M  V30 2 C 1.778587 -0.722266 3.046181 0
M  V30 3 O 2.742418 -0.406441 2.212768 0
M  V30 4 C 2.532481 -0.242202 0.906372 0
M  V30 5 C 3.660023 0.087600 0.184716 0
M  V30 6 C 3.472668 0.263482 -1.168267 0
M  V30 7 O 4.558263 0.597151 -1.966043 0
M  V30 8 C 2.216910 0.116394 -1.770637 0
M  V30 9 C 1.171868 -0.215097 -0.936935 0
M  V30 10 C 1.263359 -0.407538 0.404110 0
M  V30 11 C 0.260316 -0.734999 1.263669 0
M  V30 12 C 0.478562 -0.904212 2.612043 0
M  V30 13 N -0.659544 -1.221372 3.239940 0
M  V30 14 C -1.607053 -1.250153 2.260485 0
M  V30 15 C -2.941474 -1.535990 2.447343 0
M  V30 16 C -3.772073 -1.523435 1.347422 0
M  V30 17 C -3.224237 -1.221881 0.094475 0
M  V30 18 C -1.884207 -0.946510 -0.018652 0
M  V30 19 C -1.048460 -0.952060 1.042885 0
M  V30 20 H 4.626456 0.200816 0.648180 0
M  V30 21 H 4.681293 1.574480 -2.214780 0
M  V30 22 H 2.112772 0.262239 -2.829718 0
M  V30 23 H 0.246965 -0.315130 -1.433614 0
M  V30 24 H -0.692138 -1.387417 4.260216 0
M  V30 25 H -3.356000 -1.767345 3.415749 0
M  V30 26 H -4.812884 -1.748350 1.505697 0
M  V30 27 H -3.985005 -1.245563 -0.688475 0
M  V30 28 H -1.664703 -0.745674 -1.031517 0
M  V30 END ATOM
M  V30 BEGIN BOND
M  V30 1 2 1 2
M  V30 2 1 2 3
M  V30 3 1 3 4
M  V30 4 2 4 5
M  V30 5 1 5 6
M  V30 6 1 6 7
M  V30 7 2 6 8
M  V30 8 1 8 9
M  V30 9 2 9 10
M  V30 10 1 10 11
M  V30 11 2 11 12
M  V30 12 1 12 13
M  V30 13 1 13 14
M  V30 14 2 14 15
M  V30 15 1 15 16
M  V30 16 2 16 17
M  V30 17 1 17 18
M  V30 18 2 18 19
M  V30 19 1 12 2
M  V30 20 1 19 14
M  V30 21 1 10 4
M  V30 22 1 19 11
M  V30 23 1 5 20
M  V30 24 1 7 21
M  V30 25 1 8 22
M  V30 26 1 9 23
M  V30 27 1 13 24
M  V30 28 1 15 25
M  V30 29 1 16 26
M  V30 30 1 17 27
M  V30 31 1 18 28
M  V30 END BOND
M  V30 END CTAB
M  END
>  <Dataset>  (168) 
ChEMBL_Kinases

>  <Ligand_Instance>  (168) 
nan

>  <PDB_ID>  (168) 
nan

>  <Standardized_SMILES>  (168) 
O=c1oc2cc(O)ccc2c2c1[nH]c1ccccc12

>  <Name>  (168) 
nan

>  <Pocket>  (168) 
nan

>  <ATP_Site>  (168) 
nan

>  <Peripheral>  (168) 
nan

>  <Num_H_Atoms_ProtBoundConf>  (168) 
nan

>  <Num_Resolved_Atoms>  (168) 
nan

>  <Num_Not_Resolved_Atoms>  (168) 
nan

$$$$
CHEMBL1946918
     RDKit          3D

  0  0  0  0  0  0  0  0  0  0999 V3000
M  V30 BEGIN CTAB
M  V30 COUNTS 29 32 0 0 0
M  V30 BEGIN ATOM
M  V30 1 O 0.219336 2.964173 -1.121418 0
M  V30 2 C 0.574183 1.976514 -0.406231 0
M  V30 3 O 1.715475 2.022809 0.241353 0
M  V30 4 C 2.141136 1.026898 1.002426 0
M  V30 5 C 3.361608 1.254865 1.603423 0
M  V30 6 C 3.835873 0.233795 2.405984 0
M  V30 7 O 5.055842 0.391581 3.042672 0
M  V30 8 C 3.117277 -0.951326 2.591016 0
M  V30 9 C 1.908584 -1.069670 1.940734 0
M  V30 10 C 1.379951 -0.110438 1.137902 0
M  V30 11 C 0.202103 -0.154741 0.467795 0
M  V30 12 C -0.256545 0.869528 -0.327224 0
M  V30 13 N -1.434296 0.576936 -0.869963 0
M  V30 14 C -1.741579 -0.671254 -0.410653 0
M  V30 15 C -2.879968 -1.376603 -0.718577 0
M  V30 16 C -3.032732 -2.629097 -0.166172 0
M  V30 17 O -4.177176 -3.342887 -0.473330 0
M  V30 18 C -2.035821 -3.121932 0.672952 0
M  V30 19 C -0.921033 -2.366070 0.941092 0
M  V30 20 C -0.742841 -1.130276 0.412205 0
M  V30 21 H 3.918334 2.164116 1.464641 0
M  V30 22 H 5.154350 0.006440 3.985876 0
M  V30 23 H 3.525355 -1.720841 3.225648 0
M  V30 24 H 1.414438 -1.962678 2.107994 0
M  V30 25 H -1.964432 1.216329 -1.509669 0
M  V30 26 H -3.644568 -0.994927 -1.364051 0
M  V30 27 H -4.421812 -4.130257 0.130484 0
M  V30 28 H -2.268110 -4.125636 1.051003 0
M  V30 29 H -0.280035 -2.897751 1.590783 0
M  V30 END ATOM
M  V30 BEGIN BOND
M  V30 1 2 1 2
M  V30 2 1 2 3
M  V30 3 1 3 4
M  V30 4 2 4 5
M  V30 5 1 5 6
M  V30 6 1 6 7
M  V30 7 2 6 8
M  V30 8 1 8 9
M  V30 9 2 9 10
M  V30 10 1 10 11
M  V30 11 2 11 12
M  V30 12 1 12 13
M  V30 13 1 13 14
M  V30 14 2 14 15
M  V30 15 1 15 16
M  V30 16 1 16 17
M  V30 17 2 16 18
M  V30 18 1 18 19
M  V30 19 2 19 20
M  V30 20 1 12 2
M  V30 21 1 20 14
M  V30 22 1 10 4
M  V30 23 1 20 11
M  V30 24 1 5 21
M  V30 25 1 7 22
M  V30 26 1 8 23
M  V30 27 1 9 24
M  V30 28 1 13 25
M  V30 29 1 15 26
M  V30 30 1 17 27
M  V30 31 1 18 28
M  V30 32 1 19 29
M  V30 END BOND
M  V30 END CTAB
M  END
>  <Dataset>  (169) 
ChEMBL_Kinases

>  <Ligand_Instance>  (169) 
nan

>  <PDB_ID>  (169) 
nan

>  <Standardized_SMILES>  (169) 
O=c1oc2cc(O)ccc2c2c1[nH]c1cc(O)ccc12

>  <Name>  (169) 
nan

>  <Pocket>  (169) 
nan

>  <ATP_Site>  (169) 
nan

>  <Peripheral>  (169) 
nan

>  <Num_H_Atoms_ProtBoundConf>  (169) 
nan

>  <Num_Resolved_Atoms>  (169) 
nan

>  <Num_Not_Resolved_Atoms>  (169) 
nan

$$$$
CHEMBL1947148
     RDKit          3D

  0  0  0  0  0  0  0  0  0  0999 V3000
M  V30 BEGIN CTAB
M  V30 COUNTS 45 48 0 0 0
M  V30 BEGIN ATOM
M  V30 1 C 0.510267 -6.679705 1.154548 0
M  V30 2 O -0.536655 -6.158675 0.364459 0
M  V30 3 C -0.527664 -4.804222 0.022989 0
M  V30 4 C 0.528571 -4.057867 0.497065 0
M  V30 5 C 0.508340 -2.724964 0.143490 0
M  V30 6 C -0.474285 -2.141189 -0.625401 0
M  V30 7 N -0.467113 -0.765646 -0.966423 0
M  V30 8 C 0.459992 0.213066 -0.521910 0
M  V30 9 N 1.648606 0.304511 -1.185407 0
M  V30 10 C 2.547924 1.250946 -0.775781 0
M  V30 11 C 2.251029 2.087402 0.283459 0
M  V30 12 C 1.039920 1.973036 0.938141 0
M  V30 13 N 0.167253 1.030497 0.515149 0
M  V30 14 C 0.530596 2.767487 2.075530 0
M  V30 15 C -0.837082 2.584006 2.103248 0
M  V30 16 C -1.501642 3.263184 3.109795 0
M  V30 17 C -0.818741 4.072306 4.023281 0
M  V30 18 Cl -1.688635 4.930467 5.300048 0
M  V30 19 C 0.565086 4.188942 3.906230 0
M  V30 20 C 1.258581 3.536936 2.929225 0
M  V30 21 N 2.657667 3.732896 2.915464 0
M  V30 22 C 3.616961 3.323312 1.953831 0
M  V30 23 O 4.816124 3.206398 2.351980 0
M  V30 24 C 3.362854 3.014893 0.527063 0
M  V30 25 C -1.515612 -2.921520 -1.082038 0
M  V30 26 C -1.547941 -4.273028 -0.755624 0
M  V30 27 O -2.521585 -5.159817 -1.139278 0
M  V30 28 C -3.646812 -4.949236 -1.914682 0
M  V30 29 H 0.244211 -7.710778 1.473707 0
M  V30 30 H 1.415933 -6.646702 0.546872 0
M  V30 31 H 0.708996 -6.064251 2.075681 0
M  V30 32 H 1.340775 -4.396438 1.093559 0
M  V30 33 H 1.280782 -2.032655 0.452046 0
M  V30 34 H -1.184941 -0.354849 -1.597857 0
M  V30 35 H 3.504979 1.312910 -1.320560 0
M  V30 36 H -1.369800 1.957461 1.395694 0
M  V30 37 H -2.591510 3.189454 3.227579 0
M  V30 38 H 1.107858 4.807542 4.600297 0
M  V30 39 H 3.024675 4.261598 3.750333 0
M  V30 40 H 4.275402 2.713163 -0.018801 0
M  V30 41 H 3.033605 3.998896 0.078459 0
M  V30 42 H -2.327128 -2.550309 -1.687542 0
M  V30 43 H -3.763101 -3.897188 -2.238893 0
M  V30 44 H -4.609708 -5.237586 -1.405637 0
M  V30 45 H -3.648195 -5.567687 -2.853242 0
M  V30 END ATOM
M  V30 BEGIN BOND
M  V30 1 1 1 2
M  V30 2 1 2 3
M  V30 3 2 3 4
M  V30 4 1 4 5
M  V30 5 2 5 6
M  V30 6 1 6 7
M  V30 7 1 7 8
M  V30 8 2 8 9
M  V30 9 1 9 10
M  V30 10 2 10 11
M  V30 11 1 11 12
M  V30 12 2 12 13
M  V30 13 1 12 14
M  V30 14 2 14 15
M  V30 15 1 15 16
M  V30 16 2 16 17
M  V30 17 1 17 18
M  V30 18 1 17 19
M  V30 19 2 19 20
M  V30 20 1 20 21
M  V30 21 1 21 22
M  V30 22 2 22 23
M  V30 23 1 22 24
M  V30 24 1 6 25
M  V30 25 2 25 26
M  V30 26 1 26 27
M  V30 27 1 27 28
M  V30 28 1 26 3
M  V30 29 1 13 8
M  V30 30 1 20 14
M  V30 31 1 24 11
M  V30 32 1 1 29
M  V30 33 1 1 30
M  V30 34 1 1 31
M  V30 35 1 4 32
M  V30 36 1 5 33
M  V30 37 1 7 34
M  V30 38 1 10 35
M  V30 39 1 15 36
M  V30 40 1 16 37
M  V30 41 1 19 38
M  V30 42 1 21 39
M  V30 43 1 24 40
M  V30 44 1 24 41
M  V30 45 1 25 42
M  V30 46 1 28 43
M  V30 47 1 28 44
M  V30 48 1 28 45
M  V30 END BOND
M  V30 END CTAB
M  END
>  <Dataset>  (170) 
ChEMBL_Kinases

>  <Ligand_Instance>  (170) 
nan

>  <PDB_ID>  (170) 
nan

>  <Standardized_SMILES>  (170) 
COc1ccc(Nc2ncc3c(n2)-c2ccc(Cl)cc2NC(=O)C3)cc1OC

>  <Name>  (170) 
nan

>  <Pocket>  (170) 
nan

>  <ATP_Site>  (170) 
nan

>  <Peripheral>  (170) 
nan

>  <Num_H_Atoms_ProtBoundConf>  (170) 
nan

>  <Num_Resolved_Atoms>  (170) 
nan

>  <Num_Not_Resolved_Atoms>  (170) 
nan

$$$$
CHEMBL1947106
     RDKit          3D

  0  0  0  0  0  0  0  0  0  0999 V3000
M  V30 BEGIN CTAB
M  V30 COUNTS 32 35 0 0 0
M  V30 BEGIN ATOM
M  V30 1 C -1.512342 -2.895708 2.784366 0
M  V30 2 O -0.813605 -2.096302 1.908880 0
M  V30 3 C 0.084691 -2.362801 0.949904 0
M  V30 4 C 0.297003 -3.714969 0.889105 0
M  V30 5 C 1.197040 -4.256740 -0.036390 0
M  V30 6 C 1.849985 -3.381779 -0.870935 0
M  V30 7 C 1.600714 -2.034011 -0.768701 0
M  V30 8 N 2.157799 -1.045402 -1.511862 0
M  V30 9 C 1.627175 0.083536 -1.070373 0
M  V30 10 C 1.830130 1.377434 -1.461231 0
M  V30 11 O 2.640537 1.629384 -2.389730 0
M  V30 12 O 1.177941 2.342120 -0.864184 0
M  V30 13 C 0.322497 2.124615 0.109682 0
M  V30 14 C -0.259631 3.270190 0.605993 0
M  V30 15 C -1.168131 3.094072 1.633202 0
M  V30 16 C -1.463084 1.814889 2.123892 0
M  V30 17 O -2.385182 1.746275 3.152308 0
M  V30 18 C -0.805007 0.764359 1.531376 0
M  V30 19 C 0.087163 0.839443 0.535219 0
M  V30 20 C 0.738002 -0.163661 -0.055393 0
M  V30 21 C 0.720002 -1.498309 0.136205 0
M  V30 22 H -0.824900 -3.493879 3.414204 0
M  V30 23 H -2.214259 -3.547485 2.222557 0
M  V30 24 H -2.107739 -2.261426 3.476644 0
M  V30 25 H -0.151270 -4.524560 1.488932 0
M  V30 26 H 1.419833 -5.293054 -0.149410 0
M  V30 27 H 2.551477 -3.758374 -1.598143 0
M  V30 28 H 2.872747 -1.127024 -2.291893 0
M  V30 29 H -0.041168 4.254562 0.237806 0
M  V30 30 H -1.649167 3.964024 2.053188 0
M  V30 31 H -2.989667 0.930295 3.259502 0
M  V30 32 H -1.091700 -0.124011 1.962654 0
M  V30 END ATOM
M  V30 BEGIN BOND
M  V30 1 1 1 2
M  V30 2 1 2 3
M  V30 3 2 3 4
M  V30 4 1 4 5
M  V30 5 2 5 6
M  V30 6 1 6 7
M  V30 7 1 7 8
M  V30 8 1 8 9
M  V30 9 1 9 10
M  V30 10 2 10 11
M  V30 11 1 10 12
M  V30 12 1 12 13
M  V30 13 2 13 14
M  V30 14 1 14 15
M  V30 15 2 15 16
M  V30 16 1 16 17
M  V30 17 1 16 18
M  V30 18 2 18 19
M  V30 19 1 19 20
M  V30 20 1 20 21
M  V30 21 1 21 3
M  V30 22 2 21 7
M  V30 23 2 20 9
M  V30 24 1 19 13
M  V30 25 1 1 22
M  V30 26 1 1 23
M  V30 27 1 1 24
M  V30 28 1 4 25
M  V30 29 1 5 26
M  V30 30 1 6 27
M  V30 31 1 8 28
M  V30 32 1 14 29
M  V30 33 1 15 30
M  V30 34 1 17 31
M  V30 35 1 18 32
M  V30 END BOND
M  V30 END CTAB
M  END
>  <Dataset>  (171) 
ChEMBL_Kinases

>  <Ligand_Instance>  (171) 
nan

>  <PDB_ID>  (171) 
nan

>  <Standardized_SMILES>  (171) 
COc1cccc2[nH]c3c(=O)oc4ccc(O)cc4c3c12

>  <Name>  (171) 
nan

>  <Pocket>  (171) 
nan

>  <ATP_Site>  (171) 
nan

>  <Peripheral>  (171) 
nan

>  <Num_H_Atoms_ProtBoundConf>  (171) 
nan

>  <Num_Resolved_Atoms>  (171) 
nan

>  <Num_Not_Resolved_Atoms>  (171) 
nan

$$$$
CHEMBL1947107
     RDKit          3D

  0  0  0  0  0  0  0  0  0  0999 V3000
M  V30 BEGIN CTAB
M  V30 COUNTS 31 34 0 0 0
M  V30 BEGIN ATOM
M  V30 1 C -0.926195 -1.338419 2.835564 0
M  V30 2 C -0.583923 -2.174777 1.715624 0
M  V30 3 C -0.933983 -3.493196 1.916472 0
M  V30 4 C -0.731043 -4.521564 1.020338 0
M  V30 5 C -0.132316 -4.208275 -0.167677 0
M  V30 6 C 0.216252 -2.903345 -0.371075 0
M  V30 7 N 0.820075 -2.438480 -1.504614 0
M  V30 8 C 0.977643 -1.124834 -1.281824 0
M  V30 9 C 1.525788 -0.194770 -2.089872 0
M  V30 10 O 1.976952 -0.499248 -3.220379 0
M  V30 11 O 1.575573 1.032454 -1.666196 0
M  V30 12 C 1.110029 1.404247 -0.474563 0
M  V30 13 C 1.285907 2.774411 -0.267507 0
M  V30 14 C 0.832911 3.247441 0.940598 0
M  V30 15 C 0.246482 2.361661 1.852698 0
M  V30 16 O -0.176315 2.934369 3.037397 0
M  V30 17 C 0.171509 1.059282 1.451852 0
M  V30 18 C 0.552626 0.454567 0.345424 0
M  V30 19 C 0.478969 -0.816958 -0.044783 0
M  V30 20 C 0.000787 -1.900581 0.541650 0
M  V30 21 H -1.417030 -1.985414 3.636910 0
M  V30 22 H -1.776947 -0.626001 2.670143 0
M  V30 23 H -0.074497 -0.954410 3.453686 0
M  V30 24 H -1.425175 -3.904716 2.823991 0
M  V30 25 H -1.008768 -5.542473 1.190569 0
M  V30 26 H 0.042254 -4.984549 -0.891415 0
M  V30 27 H 1.104241 -2.961737 -2.360794 0
M  V30 28 H 1.735668 3.435131 -0.975182 0
M  V30 29 H 0.945075 4.290223 1.146203 0
M  V30 30 H -1.000440 2.509487 3.474032 0
M  V30 31 H -0.257476 0.546164 2.178193 0
M  V30 END ATOM
M  V30 BEGIN BOND
M  V30 1 1 1 2
M  V30 2 2 2 3
M  V30 3 1 3 4
M  V30 4 2 4 5
M  V30 5 1 5 6
M  V30 6 1 6 7
M  V30 7 1 7 8
M  V30 8 1 8 9
M  V30 9 2 9 10
M  V30 10 1 9 11
M  V30 11 1 11 12
M  V30 12 2 12 13
M  V30 13 1 13 14
M  V30 14 2 14 15
M  V30 15 1 15 16
M  V30 16 1 15 17
M  V30 17 2 17 18
M  V30 18 1 18 19
M  V30 19 1 19 20
M  V30 20 1 20 2
M  V30 21 2 20 6
M  V30 22 2 19 8
M  V30 23 1 18 12
M  V30 24 1 1 21
M  V30 25 1 1 22
M  V30 26 1 1 23
M  V30 27 1 3 24
M  V30 28 1 4 25
M  V30 29 1 5 26
M  V30 30 1 7 27
M  V30 31 1 13 28
M  V30 32 1 14 29
M  V30 33 1 16 30
M  V30 34 1 17 31
M  V30 END BOND
M  V30 END CTAB
M  END
>  <Dataset>  (172) 
ChEMBL_Kinases

>  <Ligand_Instance>  (172) 
nan

>  <PDB_ID>  (172) 
nan

>  <Standardized_SMILES>  (172) 
Cc1cccc2[nH]c3c(=O)oc4ccc(O)cc4c3c12

>  <Name>  (172) 
nan

>  <Pocket>  (172) 
nan

>  <ATP_Site>  (172) 
nan

>  <Peripheral>  (172) 
nan

>  <Num_H_Atoms_ProtBoundConf>  (172) 
nan

>  <Num_Resolved_Atoms>  (172) 
nan

>  <Num_Not_Resolved_Atoms>  (172) 
nan

$$$$
CHEMBL1947108
     RDKit          3D

  0  0  0  0  0  0  0  0  0  0999 V3000
M  V30 BEGIN CTAB
M  V30 COUNTS 31 34 0 0 0
M  V30 BEGIN ATOM
M  V30 1 O 3.574021 -0.219910 3.258510 0
M  V30 2 C 2.725531 -0.710636 2.490835 0
M  V30 3 O 2.759308 -1.967895 2.149887 0
M  V30 4 C 1.862606 -2.514517 1.319367 0
M  V30 5 C 2.136325 -3.842093 1.077023 0
M  V30 6 C 1.306986 -4.480360 0.177665 0
M  V30 7 C 0.262286 -3.762441 -0.428523 0
M  V30 8 O -0.569098 -4.387805 -1.343361 0
M  V30 9 C 0.193362 -2.462198 -0.015685 0
M  V30 10 C 0.872867 -1.698419 0.831632 0
M  V30 11 C 0.775572 -0.404218 1.155291 0
M  V30 12 C 1.738032 0.070222 1.991040 0
M  V30 13 N 1.537244 1.392033 2.129394 0
M  V30 14 C 0.446110 1.679479 1.388349 0
M  V30 15 C -0.110984 2.918455 1.236954 0
M  V30 16 C -1.227124 3.022937 0.455046 0
M  V30 17 C -1.724485 1.831528 -0.128101 0
M  V30 18 C -1.151519 0.542987 0.027540 0
M  V30 19 C -2.156690 -0.408574 -0.346928 0
M  V30 20 F -2.871034 -0.020550 -1.498225 0
M  V30 21 F -3.313723 0.123612 0.580892 0
M  V30 22 F -2.384825 -1.648450 0.069671 0
M  V30 23 C -0.046546 0.553855 0.789698 0
M  V30 24 H 2.936946 -4.387586 1.541038 0
M  V30 25 H 1.487717 -5.521715 -0.033831 0
M  V30 26 H -1.554843 -4.181162 -1.296306 0
M  V30 27 H -0.463082 -1.944968 -0.657912 0
M  V30 28 H 2.126864 2.055445 2.707320 0
M  V30 29 H 0.284236 3.801209 1.697736 0
M  V30 30 H -1.672185 3.978986 0.313309 0
M  V30 31 H -2.625238 2.068435 -0.723863 0
M  V30 END ATOM
M  V30 BEGIN BOND
M  V30 1 2 1 2
M  V30 2 1 2 3
M  V30 3 1 3 4
M  V30 4 2 4 5
M  V30 5 1 5 6
M  V30 6 2 6 7
M  V30 7 1 7 8
M  V30 8 1 7 9
M  V30 9 2 9 10
M  V30 10 1 10 11
M  V30 11 2 11 12
M  V30 12 1 12 13
M  V30 13 1 13 14
M  V30 14 2 14 15
M  V30 15 1 15 16
M  V30 16 2 16 17
M  V30 17 1 17 18
M  V30 18 1 18 19
M  V30 19 1 19 20
M  V30 20 1 19 21
M  V30 21 1 19 22
M  V30 22 2 18 23
M  V30 23 1 12 2
M  V30 24 1 23 14
M  V30 25 1 10 4
M  V30 26 1 23 11
M  V30 27 1 5 24
M  V30 28 1 6 25
M  V30 29 1 8 26
M  V30 30 1 9 27
M  V30 31 1 13 28
M  V30 32 1 15 29
M  V30 33 1 16 30
M  V30 34 1 17 31
M  V30 END BOND
M  V30 END CTAB
M  END
>  <Dataset>  (173) 
ChEMBL_Kinases

>  <Ligand_Instance>  (173) 
nan

>  <PDB_ID>  (173) 
nan

>  <Standardized_SMILES>  (173) 
O=c1oc2ccc(O)cc2c2c1[nH]c1cccc(C(F)(F)F)c12

>  <Name>  (173) 
nan

>  <Pocket>  (173) 
nan

>  <ATP_Site>  (173) 
nan

>  <Peripheral>  (173) 
nan

>  <Num_H_Atoms_ProtBoundConf>  (173) 
nan

>  <Num_Resolved_Atoms>  (173) 
nan

>  <Num_Not_Resolved_Atoms>  (173) 
nan

$$$$
CHEMBL1947111
     RDKit          3D

  0  0  0  0  0  0  0  0  0  0999 V3000
M  V30 BEGIN CTAB
M  V30 COUNTS 30 33 0 0 0
M  V30 BEGIN ATOM
M  V30 1 O 0.162871 2.787183 3.154230 0
M  V30 2 C 0.450468 1.666319 2.652317 0
M  V30 3 O 1.417036 0.945849 3.129145 0
M  V30 4 C 1.739681 -0.239433 2.617325 0
M  V30 5 C 2.794045 -0.862554 3.253074 0
M  V30 6 C 3.155203 -2.090469 2.750363 0
M  V30 7 O 4.207111 -2.781425 3.335426 0
M  V30 8 C 2.488562 -2.654147 1.668274 0
M  V30 9 O 2.905884 -3.896664 1.212632 0
M  V30 10 C 1.449859 -1.942160 1.111652 0
M  V30 11 C 1.037138 -0.738619 1.544317 0
M  V30 12 C 0.020997 0.016584 1.041460 0
M  V30 13 C -0.308160 1.242274 1.575314 0
M  V30 14 N -1.340268 1.782795 0.903653 0
M  V30 15 C -1.655495 0.872875 -0.064955 0
M  V30 16 C -2.663101 1.013484 -0.995582 0
M  V30 17 C -2.844586 -0.005500 -1.904879 0
M  V30 18 C -2.008351 -1.127939 -1.846816 0
M  V30 19 O -2.308130 -2.069309 -2.821971 0
M  V30 20 C -1.025246 -1.193863 -0.888203 0
M  V30 21 C -0.818068 -0.211448 0.021399 0
M  V30 22 H 3.322952 -0.454009 4.084121 0
M  V30 23 H 4.913932 -3.148115 2.704936 0
M  V30 24 H 2.980396 -4.112715 0.214385 0
M  V30 25 H 0.990141 -2.419624 0.302412 0
M  V30 26 H -1.778948 2.714843 1.116962 0
M  V30 27 H -3.298121 1.878573 -1.030632 0
M  V30 28 H -3.635870 0.116429 -2.627534 0
M  V30 29 H -2.644471 -3.001866 -2.627471 0
M  V30 30 H -0.504584 -2.104488 -1.002450 0
M  V30 END ATOM
M  V30 BEGIN BOND
M  V30 1 2 1 2
M  V30 2 1 2 3
M  V30 3 1 3 4
M  V30 4 2 4 5
M  V30 5 1 5 6
M  V30 6 1 6 7
M  V30 7 2 6 8
M  V30 8 1 8 9
M  V30 9 1 8 10
M  V30 10 2 10 11
M  V30 11 1 11 12
M  V30 12 2 12 13
M  V30 13 1 13 14
M  V30 14 1 14 15
M  V30 15 2 15 16
M  V30 16 1 16 17
M  V30 17 2 17 18
M  V30 18 1 18 19
M  V30 19 1 18 20
M  V30 20 2 20 21
M  V30 21 1 13 2
M  V30 22 1 21 15
M  V30 23 1 11 4
M  V30 24 1 21 12
M  V30 25 1 5 22
M  V30 26 1 7 23
M  V30 27 1 9 24
M  V30 28 1 10 25
M  V30 29 1 14 26
M  V30 30 1 16 27
M  V30 31 1 17 28
M  V30 32 1 19 29
M  V30 33 1 20 30
M  V30 END BOND
M  V30 END CTAB
M  END
>  <Dataset>  (174) 
ChEMBL_Kinases

>  <Ligand_Instance>  (174) 
nan

>  <PDB_ID>  (174) 
nan

>  <Standardized_SMILES>  (174) 
O=c1oc2cc(O)c(O)cc2c2c1[nH]c1ccc(O)cc12

>  <Name>  (174) 
nan

>  <Pocket>  (174) 
nan

>  <ATP_Site>  (174) 
nan

>  <Peripheral>  (174) 
nan

>  <Num_H_Atoms_ProtBoundConf>  (174) 
nan

>  <Num_Resolved_Atoms>  (174) 
nan

>  <Num_Not_Resolved_Atoms>  (174) 
nan

$$$$
CHEMBL1947112
     RDKit          3D

  0  0  0  0  0  0  0  0  0  0999 V3000
M  V30 BEGIN CTAB
M  V30 COUNTS 28 31 0 0 0
M  V30 BEGIN ATOM
M  V30 1 O -1.315095 0.530450 4.266766 0
M  V30 2 C -0.534361 0.112169 3.380241 0
M  V30 3 O 0.694928 -0.221614 3.697099 0
M  V30 4 C 1.561718 -0.671285 2.790465 0
M  V30 5 C 2.807548 -0.973788 3.300188 0
M  V30 6 C 3.732967 -1.442766 2.390766 0
M  V30 7 C 3.418914 -1.599203 1.035323 0
M  V30 8 O 4.373984 -2.073705 0.146882 0
M  V30 9 C 2.139593 -1.262241 0.650724 0
M  V30 10 C 1.169043 -0.794256 1.478636 0
M  V30 11 C -0.104897 -0.449309 1.145203 0
M  V30 12 C -0.997262 0.014828 2.084900 0
M  V30 13 N -2.181394 0.285012 1.508983 0
M  V30 14 C -2.012983 -0.019248 0.189199 0
M  V30 15 C -2.977300 0.104554 -0.787183 0
M  V30 16 C -2.646842 -0.246225 -2.078479 0
M  V30 17 C -1.349705 -0.710150 -2.333207 0
M  V30 18 F -1.155364 -1.023417 -3.656636 0
M  V30 19 C -0.436565 -0.808868 -1.311029 0
M  V30 20 C -0.737388 -0.471078 -0.038155 0
M  V30 21 H 3.048955 -0.852630 4.346892 0
M  V30 22 H 4.728434 -1.698004 2.726724 0
M  V30 23 H 4.927937 -1.369953 -0.358388 0
M  V30 24 H 1.954173 -1.397163 -0.373944 0
M  V30 25 H -2.995372 0.642921 2.020999 0
M  V30 26 H -3.972142 0.462805 -0.578921 0
M  V30 27 H -3.403427 -0.148463 -2.841175 0
M  V30 28 H 0.467511 -1.172357 -1.700265 0
M  V30 END ATOM
M  V30 BEGIN BOND
M  V30 1 2 1 2
M  V30 2 1 2 3
M  V30 3 1 3 4
M  V30 4 2 4 5
M  V30 5 1 5 6
M  V30 6 2 6 7
M  V30 7 1 7 8
M  V30 8 1 7 9
M  V30 9 2 9 10
M  V30 10 1 10 11
M  V30 11 2 11 12
M  V30 12 1 12 13
M  V30 13 1 13 14
M  V30 14 2 14 15
M  V30 15 1 15 16
M  V30 16 2 16 17
M  V30 17 1 17 18
M  V30 18 1 17 19
M  V30 19 2 19 20
M  V30 20 1 12 2
M  V30 21 1 20 14
M  V30 22 1 10 4
M  V30 23 1 20 11
M  V30 24 1 5 21
M  V30 25 1 6 22
M  V30 26 1 8 23
M  V30 27 1 9 24
M  V30 28 1 13 25
M  V30 29 1 15 26
M  V30 30 1 16 27
M  V30 31 1 19 28
M  V30 END BOND
M  V30 END CTAB
M  END
>  <Dataset>  (175) 
ChEMBL_Kinases

>  <Ligand_Instance>  (175) 
nan

>  <PDB_ID>  (175) 
nan

>  <Standardized_SMILES>  (175) 
O=c1oc2ccc(O)cc2c2c1[nH]c1ccc(F)cc12

>  <Name>  (175) 
nan

>  <Pocket>  (175) 
nan

>  <ATP_Site>  (175) 
nan

>  <Peripheral>  (175) 
nan

>  <Num_H_Atoms_ProtBoundConf>  (175) 
nan

>  <Num_Resolved_Atoms>  (175) 
nan

>  <Num_Not_Resolved_Atoms>  (175) 
nan

$$$$
CHEMBL1947114
     RDKit          3D

  0  0  0  0  0  0  0  0  0  0999 V3000
M  V30 BEGIN CTAB
M  V30 COUNTS 29 32 0 0 0
M  V30 BEGIN ATOM
M  V30 1 O -1.802259 0.782836 4.003714 0
M  V30 2 C -0.861616 0.610803 3.183914 0
M  V30 3 O 0.265427 1.240431 3.353158 0
M  V30 4 C 1.262929 1.062781 2.490394 0
M  V30 5 C 2.392258 1.788564 2.790712 0
M  V30 6 C 3.467086 1.660081 1.947788 0
M  V30 7 C 3.396952 0.826159 0.842263 0
M  V30 8 O 4.509340 0.708086 -0.009590 0
M  V30 9 C 2.221252 0.141973 0.627987 0
M  V30 10 C 1.126276 0.225316 1.421197 0
M  V30 11 C -0.047714 -0.421759 1.256997 0
M  V30 12 C -1.093399 -0.256137 2.133047 0
M  V30 13 N -2.124640 -0.999524 1.747712 0
M  V30 14 C -1.747056 -1.655216 0.610371 0
M  V30 15 C -2.507947 -2.528755 -0.121778 0
M  V30 16 C -1.955047 -3.091049 -1.239056 0
M  V30 17 O -2.716230 -3.964720 -1.971210 0
M  V30 18 C -0.648836 -2.745212 -1.571827 0
M  V30 19 C 0.068015 -1.864635 -0.802699 0
M  V30 20 C -0.460233 -1.296609 0.307204 0
M  V30 21 H 2.488119 2.449278 3.641658 0
M  V30 22 H 4.364860 2.210740 2.150275 0
M  V30 23 H 4.446681 1.258072 -0.858200 0
M  V30 24 H 2.239738 -0.471942 -0.229318 0
M  V30 25 H -3.013159 -1.018706 2.271766 0
M  V30 26 H -3.509997 -2.775417 0.159192 0
M  V30 27 H -2.762850 -4.943143 -1.786991 0
M  V30 28 H -0.307507 -3.254872 -2.485513 0
M  V30 29 H 1.032455 -1.729825 -1.214474 0
M  V30 END ATOM
M  V30 BEGIN BOND
M  V30 1 2 1 2
M  V30 2 1 2 3
M  V30 3 1 3 4
M  V30 4 2 4 5
M  V30 5 1 5 6
M  V30 6 2 6 7
M  V30 7 1 7 8
M  V30 8 1 7 9
M  V30 9 2 9 10
M  V30 10 1 10 11
M  V30 11 2 11 12
M  V30 12 1 12 13
M  V30 13 1 13 14
M  V30 14 2 14 15
M  V30 15 1 15 16
M  V30 16 1 16 17
M  V30 17 2 16 18
M  V30 18 1 18 19
M  V30 19 2 19 20
M  V30 20 1 12 2
M  V30 21 1 20 14
M  V30 22 1 10 4
M  V30 23 1 20 11
M  V30 24 1 5 21
M  V30 25 1 6 22
M  V30 26 1 8 23
M  V30 27 1 9 24
M  V30 28 1 13 25
M  V30 29 1 15 26
M  V30 30 1 17 27
M  V30 31 1 18 28
M  V30 32 1 19 29
M  V30 END BOND
M  V30 END CTAB
M  END
>  <Dataset>  (176) 
ChEMBL_Kinases

>  <Ligand_Instance>  (176) 
nan

>  <PDB_ID>  (176) 
nan

>  <Standardized_SMILES>  (176) 
O=c1oc2ccc(O)cc2c2c1[nH]c1cc(O)ccc12

>  <Name>  (176) 
nan

>  <Pocket>  (176) 
nan

>  <ATP_Site>  (176) 
nan

>  <Peripheral>  (176) 
nan

>  <Num_H_Atoms_ProtBoundConf>  (176) 
nan

>  <Num_Resolved_Atoms>  (176) 
nan

>  <Num_Not_Resolved_Atoms>  (176) 
nan

$$$$
CHEMBL1947115
     RDKit          3D

  0  0  0  0  0  0  0  0  0  0999 V3000
M  V30 BEGIN CTAB
M  V30 COUNTS 31 34 0 0 0
M  V30 BEGIN ATOM
M  V30 1 C -1.964790 -4.917592 2.122392 0
M  V30 2 C -1.307069 -3.666578 1.669669 0
M  V30 3 C -1.856878 -2.400874 1.903701 0
M  V30 4 C -1.212640 -1.269214 1.466407 0
M  V30 5 C -0.037771 -1.336315 0.801818 0
M  V30 6 C 0.482206 -2.588687 0.583918 0
M  V30 7 C -0.109272 -3.762153 0.993792 0
M  V30 8 N 1.664828 -2.509362 -0.094113 0
M  V30 9 C 1.866922 -1.194795 -0.291029 0
M  V30 10 C 2.869521 -0.491150 -0.905411 0
M  V30 11 O 3.819092 -1.150912 -1.404829 0
M  V30 12 O 2.835427 0.829399 -0.968150 0
M  V30 13 C 1.840180 1.541041 -0.446040 0
M  V30 14 C 1.970123 2.906086 -0.604903 0
M  V30 15 C 0.953056 3.671988 -0.073748 0
M  V30 16 C -0.133896 3.095920 0.580661 0
M  V30 17 O -1.136791 3.900938 1.101318 0
M  V30 18 C -0.151853 1.720962 0.676421 0
M  V30 19 C 0.805139 0.891737 0.183389 0
M  V30 20 C 0.832423 -0.467037 0.252405 0
M  V30 21 H -1.224456 -5.720585 2.186357 0
M  V30 22 H -2.801462 -5.230046 1.447706 0
M  V30 23 H -2.386766 -4.765320 3.158922 0
M  V30 24 H -2.810864 -2.457655 2.450251 0
M  V30 25 H -1.767376 -0.424622 1.729533 0
M  V30 26 H 0.303763 -4.724163 0.818633 0
M  V30 27 H 2.315226 -3.258067 -0.417652 0
M  V30 28 H 2.816071 3.347908 -1.113824 0
M  V30 29 H 0.998328 4.748185 -0.166460 0
M  V30 30 H -1.320863 3.817592 2.094367 0
M  V30 31 H -0.994919 1.339059 1.179964 0
M  V30 END ATOM
M  V30 BEGIN BOND
M  V30 1 1 1 2
M  V30 2 2 2 3
M  V30 3 1 3 4
M  V30 4 2 4 5
M  V30 5 1 5 6
M  V30 6 2 6 7
M  V30 7 1 6 8
M  V30 8 1 8 9
M  V30 9 1 9 10
M  V30 10 2 10 11
M  V30 11 1 10 12
M  V30 12 1 12 13
M  V30 13 2 13 14
M  V30 14 1 14 15
M  V30 15 2 15 16
M  V30 16 1 16 17
M  V30 17 1 16 18
M  V30 18 2 18 19
M  V30 19 1 19 20
M  V30 20 1 7 2
M  V30 21 2 20 9
M  V30 22 1 20 5
M  V30 23 1 19 13
M  V30 24 1 1 21
M  V30 25 1 1 22
M  V30 26 1 1 23
M  V30 27 1 3 24
M  V30 28 1 4 25
M  V30 29 1 7 26
M  V30 30 1 8 27
M  V30 31 1 14 28
M  V30 32 1 15 29
M  V30 33 1 17 30
M  V30 34 1 18 31
M  V30 END BOND
M  V30 END CTAB
M  END
>  <Dataset>  (177) 
ChEMBL_Kinases

>  <Ligand_Instance>  (177) 
nan

>  <PDB_ID>  (177) 
nan

>  <Standardized_SMILES>  (177) 
Cc1ccc2c(c1)[nH]c1c(=O)oc3ccc(O)cc3c12

>  <Name>  (177) 
nan

>  <Pocket>  (177) 
nan

>  <ATP_Site>  (177) 
nan

>  <Peripheral>  (177) 
nan

>  <Num_H_Atoms_ProtBoundConf>  (177) 
nan

>  <Num_Resolved_Atoms>  (177) 
nan

>  <Num_Not_Resolved_Atoms>  (177) 
nan

$$$$
CHEMBL1947117
     RDKit          3D

  0  0  0  0  0  0  0  0  0  0999 V3000
M  V30 BEGIN CTAB
M  V30 COUNTS 31 35 0 0 0
M  V30 BEGIN ATOM
M  V30 1 O 4.174301 -0.001933 2.413053 0
M  V30 2 C 3.308272 -0.605964 1.731435 0
M  V30 3 O 3.569756 -1.729590 1.108248 0
M  V30 4 C 2.664874 -2.383940 0.381310 0
M  V30 5 C 3.129332 -3.547680 -0.197430 0
M  V30 6 C 2.195098 -4.228363 -0.951166 0
M  V30 7 C 0.880434 -3.775629 -1.116476 0
M  V30 8 O -0.000968 -4.517740 -1.891003 0
M  V30 9 C 0.546696 -2.598189 -0.484034 0
M  V30 10 C 1.398026 -1.865811 0.273964 0
M  V30 11 C 1.111059 -0.701181 0.914400 0
M  V30 12 C 2.053101 -0.044529 1.655602 0
M  V30 13 N 1.530670 1.073244 2.185280 0
M  V30 14 C 0.235281 1.103615 1.758530 0
M  V30 15 C -0.683746 2.083682 2.064291 0
M  V30 16 C -1.949559 1.941927 1.538512 0
M  V30 17 C -2.287867 0.851577 0.729863 0
M  V30 18 C -1.306438 -0.074965 0.479552 0
M  V30 19 C -0.043406 0.013684 0.970678 0
M  V30 20 O -3.641513 1.042772 0.385229 0
M  V30 21 C -4.181280 2.093099 1.194433 0
M  V30 22 O -3.040111 2.782072 1.696399 0
M  V30 23 H 4.130750 -3.890340 -0.070115 0
M  V30 24 H 2.500764 -5.148124 -1.429722 0
M  V30 25 H -0.991911 -4.356259 -1.742292 0
M  V30 26 H -0.452639 -2.315726 -0.648837 0
M  V30 27 H 2.039082 1.755942 2.793713 0
M  V30 28 H -0.438830 2.930025 2.685871 0
M  V30 29 H -1.684940 -0.845066 -0.139834 0
M  V30 30 H -4.793468 1.667292 2.039400 0
M  V30 31 H -4.816183 2.767784 0.586607 0
M  V30 END ATOM
M  V30 BEGIN BOND
M  V30 1 2 1 2
M  V30 2 1 2 3
M  V30 3 1 3 4
M  V30 4 2 4 5
M  V30 5 1 5 6
M  V30 6 2 6 7
M  V30 7 1 7 8
M  V30 8 1 7 9
M  V30 9 2 9 10
M  V30 10 1 10 11
M  V30 11 2 11 12
M  V30 12 1 12 13
M  V30 13 1 13 14
M  V30 14 2 14 15
M  V30 15 1 15 16
M  V30 16 2 16 17
M  V30 17 1 17 18
M  V30 18 2 18 19
M  V30 19 1 17 20
M  V30 20 1 20 21
M  V30 21 1 21 22
M  V30 22 1 12 2
M  V30 23 1 19 14
M  V30 24 1 10 4
M  V30 25 1 19 11
M  V30 26 1 22 16
M  V30 27 1 5 23
M  V30 28 1 6 24
M  V30 29 1 8 25
M  V30 30 1 9 26
M  V30 31 1 13 27
M  V30 32 1 15 28
M  V30 33 1 18 29
M  V30 34 1 21 30
M  V30 35 1 21 31
M  V30 END BOND
M  V30 END CTAB
M  END
>  <Dataset>  (178) 
ChEMBL_Kinases

>  <Ligand_Instance>  (178) 
nan

>  <PDB_ID>  (178) 
nan

>  <Standardized_SMILES>  (178) 
O=c1oc2ccc(O)cc2c2c1[nH]c1cc3c(cc12)OCO3

>  <Name>  (178) 
nan

>  <Pocket>  (178) 
nan

>  <ATP_Site>  (178) 
nan

>  <Peripheral>  (178) 
nan

>  <Num_H_Atoms_ProtBoundConf>  (178) 
nan

>  <Num_Resolved_Atoms>  (178) 
nan

>  <Num_Not_Resolved_Atoms>  (178) 
nan

$$$$
CHEMBL1947105
     RDKit          3D

  0  0  0  0  0  0  0  0  0  0999 V3000
M  V30 BEGIN CTAB
M  V30 COUNTS 28 31 0 0 0
M  V30 BEGIN ATOM
M  V30 1 O 1.375248 -1.397252 4.550627 0
M  V30 2 C 1.383133 -0.985680 3.366192 0
M  V30 3 O 2.396491 -0.311463 2.876531 0
M  V30 4 C 2.421808 0.133449 1.620508 0
M  V30 5 C 3.568409 0.821335 1.284339 0
M  V30 6 C 3.624160 1.294076 -0.008414 0
M  V30 7 C 2.581060 1.081861 -0.904280 0
M  V30 8 O 2.697385 1.582658 -2.190732 0
M  V30 9 C 1.483329 0.381807 -0.461889 0
M  V30 10 C 1.356074 -0.110728 0.784703 0
M  V30 11 C 0.305088 -0.810695 1.294619 0
M  V30 12 C 0.277204 -1.271171 2.592136 0
M  V30 13 N -0.868272 -1.929853 2.845149 0
M  V30 14 C -1.567597 -1.875779 1.674075 0
M  V30 15 C -2.813635 -2.422648 1.456429 0
M  V30 16 C -3.396187 -2.285858 0.214370 0
M  V30 17 C -2.685423 -1.591462 -0.772706 0
M  V30 18 C -1.445704 -1.069713 -0.491241 0
M  V30 19 C -0.854997 -1.192104 0.720817 0
M  V30 20 H 4.373052 0.980472 1.988666 0
M  V30 21 H 4.498534 1.840996 -0.329726 0
M  V30 22 H 1.929367 1.807613 -2.793196 0
M  V30 23 H 0.737376 0.255181 -1.175595 0
M  V30 24 H -1.133076 -2.373726 3.750914 0
M  V30 25 H -3.351133 -2.956072 2.227025 0
M  V30 26 H -4.366640 -2.715043 0.054339 0
M  V30 27 H -3.244427 -1.545964 -1.715372 0
M  V30 28 H -1.075022 -0.587223 -1.355677 0
M  V30 END ATOM
M  V30 BEGIN BOND
M  V30 1 2 1 2
M  V30 2 1 2 3
M  V30 3 1 3 4
M  V30 4 2 4 5
M  V30 5 1 5 6
M  V30 6 2 6 7
M  V30 7 1 7 8
M  V30 8 1 7 9
M  V30 9 2 9 10
M  V30 10 1 10 11
M  V30 11 2 11 12
M  V30 12 1 12 13
M  V30 13 1 13 14
M  V30 14 2 14 15
M  V30 15 1 15 16
M  V30 16 2 16 17
M  V30 17 1 17 18
M  V30 18 2 18 19
M  V30 19 1 12 2
M  V30 20 1 19 14
M  V30 21 1 10 4
M  V30 22 1 19 11
M  V30 23 1 5 20
M  V30 24 1 6 21
M  V30 25 1 8 22
M  V30 26 1 9 23
M  V30 27 1 13 24
M  V30 28 1 15 25
M  V30 29 1 16 26
M  V30 30 1 17 27
M  V30 31 1 18 28
M  V30 END BOND
M  V30 END CTAB
M  END
>  <Dataset>  (179) 
ChEMBL_Kinases

>  <Ligand_Instance>  (179) 
nan

>  <PDB_ID>  (179) 
nan

>  <Standardized_SMILES>  (179) 
O=c1oc2ccc(O)cc2c2c1[nH]c1ccccc12

>  <Name>  (179) 
nan

>  <Pocket>  (179) 
nan

>  <ATP_Site>  (179) 
nan

>  <Peripheral>  (179) 
nan

>  <Num_H_Atoms_ProtBoundConf>  (179) 
nan

>  <Num_Resolved_Atoms>  (179) 
nan

>  <Num_Not_Resolved_Atoms>  (179) 
nan

$$$$
CHEMBL1916344
     RDKit          3D

  0  0  0  0  0  0  0  0  0  0999 V3000
M  V30 BEGIN CTAB
M  V30 COUNTS 40 43 0 0 0
M  V30 BEGIN ATOM
M  V30 1 C 0.878102 -3.905785 0.358971 0
M  V30 2 C 1.229354 -3.502426 -1.037321 0
M  V30 3 C 1.961942 -4.317395 -1.878289 0
M  V30 4 C 2.285335 -3.933185 -3.179828 0
M  V30 5 C 1.854392 -2.688476 -3.642117 0
M  V30 6 C 1.117846 -1.855255 -2.813928 0
M  V30 7 C 0.814723 -2.274286 -1.520312 0
M  V30 8 C 0.032651 -1.423771 -0.598158 0
M  V30 9 C 0.710833 -0.539785 0.216421 0
M  V30 10 N 2.046674 -0.431623 0.195150 0
M  V30 11 C 2.642003 0.458001 1.023324 0
M  V30 12 C 1.965036 1.286414 1.913381 0
M  V30 13 C 0.594687 1.130444 1.890393 0
M  V30 14 C -0.224633 1.946059 2.781474 0
M  V30 15 C -0.551936 1.512398 4.070528 0
M  V30 16 C -1.322376 2.243269 4.952752 0
M  V30 17 C -1.781386 3.465302 4.511953 0
M  V30 18 F -2.543210 4.190229 5.381582 0
M  V30 19 C -1.504395 3.967446 3.255007 0
M  V30 20 C -0.727691 3.171976 2.437681 0
M  V30 21 F -0.417672 3.615507 1.176497 0
M  V30 22 C -0.044331 0.236929 1.062559 0
M  V30 23 C -1.422508 0.137140 1.096239 0
M  V30 24 C -2.044013 -0.762044 0.261059 0
M  V30 25 N -1.326569 -1.548166 -0.590803 0 CHG=1 VAL=4
M  V30 26 O -1.955260 -2.457194 -1.435117 0 CHG=-1 VAL=1
M  V30 27 H 1.344608 -4.888863 0.573416 0
M  V30 28 H 1.311924 -3.192070 1.089735 0
M  V30 29 H -0.206766 -3.966493 0.519432 0
M  V30 30 H 2.264396 -5.268896 -1.456377 0
M  V30 31 H 2.861488 -4.597941 -3.811397 0
M  V30 32 H 2.080290 -2.356074 -4.631334 0
M  V30 33 H 0.775120 -0.884317 -3.157831 0
M  V30 34 H 3.717826 0.507651 0.968911 0
M  V30 35 H 2.479505 1.973979 2.548212 0
M  V30 36 H -0.148251 0.529058 4.345872 0
M  V30 37 H -1.504268 1.802514 5.914550 0
M  V30 38 H -1.876630 4.931864 2.930202 0
M  V30 39 H -2.047262 0.742568 1.759280 0
M  V30 40 H -3.116097 -0.903150 0.224058 0
M  V30 END ATOM
M  V30 BEGIN BOND
M  V30 1 1 1 2
M  V30 2 2 2 3
M  V30 3 1 3 4
M  V30 4 2 4 5
M  V30 5 1 5 6
M  V30 6 2 6 7
M  V30 7 1 7 8
M  V30 8 1 8 9
M  V30 9 2 9 10
M  V30 10 1 10 11
M  V30 11 2 11 12
M  V30 12 1 12 13
M  V30 13 1 13 14
M  V30 14 2 14 15
M  V30 15 1 15 16
M  V30 16 2 16 17
M  V30 17 1 17 18
M  V30 18 1 17 19
M  V30 19 2 19 20
M  V30 20 1 20 21
M  V30 21 2 13 22
M  V30 22 1 22 23
M  V30 23 2 23 24
M  V30 24 1 24 25
M  V30 25 1 25 26
M  V30 26 1 7 2
M  V30 27 2 25 8
M  V30 28 1 22 9
M  V30 29 1 20 14
M  V30 30 1 1 27
M  V30 31 1 1 28
M  V30 32 1 1 29
M  V30 33 1 3 30
M  V30 34 1 4 31
M  V30 35 1 5 32
M  V30 36 1 6 33
M  V30 37 1 11 34
M  V30 38 1 12 35
M  V30 39 1 15 36
M  V30 40 1 16 37
M  V30 41 1 19 38
M  V30 42 1 23 39
M  V30 43 1 24 40
M  V30 END BOND
M  V30 END CTAB
M  END
>  <Dataset>  (180) 
ChEMBL_Kinases

>  <Ligand_Instance>  (180) 
nan

>  <PDB_ID>  (180) 
nan

>  <Standardized_SMILES>  (180) 
Cc1ccccc1-c1c2nccc(-c3ccc(F)cc3F)c2cc[n+]1[O-]

>  <Name>  (180) 
nan

>  <Pocket>  (180) 
nan

>  <ATP_Site>  (180) 
nan

>  <Peripheral>  (180) 
nan

>  <Num_H_Atoms_ProtBoundConf>  (180) 
nan

>  <Num_Resolved_Atoms>  (180) 
nan

>  <Num_Not_Resolved_Atoms>  (180) 
nan

$$$$
CHEMBL191598
     RDKit          3D

  0  0  0  0  0  0  0  0  0  0999 V3000
M  V30 BEGIN CTAB
M  V30 COUNTS 50 52 0 0 0
M  V30 BEGIN ATOM
M  V30 1 C 4.233400 -3.116864 1.518234 0
M  V30 2 C 5.208231 -1.942429 1.688276 0
M  V30 3 C 5.217644 -1.568925 3.133513 0
M  V30 4 C 6.576288 -2.439396 1.316244 0
M  V30 5 C 4.765115 -0.810770 0.795851 0
M  V30 6 C 3.674736 -0.761879 -0.079426 0
M  V30 7 C 3.690249 0.510939 -0.673514 0
M  V30 8 N 2.588383 0.635792 -1.593671 0
M  V30 9 C 1.342376 1.117111 -1.086502 0
M  V30 10 O 1.249529 1.420737 0.143696 0
M  V30 11 N 0.156157 1.287106 -1.878935 0
M  V30 12 C -0.961115 1.780923 -1.125114 0
M  V30 13 C -1.341168 3.113847 -0.923984 0
M  V30 14 C -2.457132 3.357432 -0.152554 0
M  V30 15 C -3.220419 2.371251 0.431466 0
M  V30 16 Cl -4.625106 2.770019 1.396747 0
M  V30 17 C -2.877753 1.049415 0.256151 0
M  V30 18 C -3.640679 -0.080580 0.850142 0
M  V30 19 O -4.836509 -0.381091 0.205961 0
M  V30 20 C -5.575160 -1.448643 0.740691 0
M  V30 21 C -6.770064 -1.855820 0.209383 0
M  V30 22 C -7.524074 -2.898464 0.703248 0
M  V30 23 C -7.048919 -3.586577 1.812331 0
M  V30 24 N -5.866991 -3.200320 2.356133 0
M  V30 25 C -5.155932 -2.185521 1.856812 0
M  V30 26 C -1.744504 0.803720 -0.527161 0
M  V30 27 N 4.748185 1.163024 -0.157595 0
M  V30 28 N 5.367082 0.383116 0.697361 0
M  V30 29 H 3.200114 -2.684933 1.651119 0
M  V30 30 H 4.431752 -3.876727 2.270120 0
M  V30 31 H 4.324699 -3.576915 0.497432 0
M  V30 32 H 5.017889 -2.504656 3.720564 0
M  V30 33 H 6.151624 -1.084820 3.487062 0
M  V30 34 H 4.308900 -0.943168 3.320126 0
M  V30 35 H 6.579845 -2.814902 0.250503 0
M  V30 36 H 7.336599 -1.630133 1.416607 0
M  V30 37 H 6.787329 -3.294257 1.998575 0
M  V30 38 H 3.055357 -1.675053 -0.128569 0
M  V30 39 H 2.610360 0.404717 -2.613608 0
M  V30 40 H 0.280168 1.027709 -2.882194 0
M  V30 41 H -0.700168 3.820179 -1.409387 0
M  V30 42 H -2.697443 4.418692 -0.035851 0
M  V30 43 H -3.872095 0.127511 1.934733 0
M  V30 44 H -3.008073 -1.004674 0.902158 0
M  V30 45 H -7.084011 -1.256379 -0.661675 0
M  V30 46 H -8.460046 -3.136700 0.200996 0
M  V30 47 H -7.639050 -4.414601 2.211886 0
M  V30 48 H -4.215052 -1.908045 2.321459 0
M  V30 49 H -1.505335 -0.245655 -0.642053 0
M  V30 50 H 4.826311 2.124219 -0.554523 0
M  V30 END ATOM
M  V30 BEGIN BOND
M  V30 1 1 1 2
M  V30 2 1 2 3
M  V30 3 1 2 4
M  V30 4 1 2 5
M  V30 5 1 5 6
M  V30 6 2 6 7
M  V30 7 1 7 8
M  V30 8 1 8 9
M  V30 9 2 9 10
M  V30 10 1 9 11
M  V30 11 1 11 12
M  V30 12 2 12 13
M  V30 13 1 13 14
M  V30 14 2 14 15
M  V30 15 1 15 16
M  V30 16 1 15 17
M  V30 17 1 17 18
M  V30 18 1 18 19
M  V30 19 1 19 20
M  V30 20 2 20 21
M  V30 21 1 21 22
M  V30 22 2 22 23
M  V30 23 1 23 24
M  V30 24 2 24 25
M  V30 25 2 17 26
M  V30 26 1 7 27
M  V30 27 1 27 28
M  V30 28 2 28 5
M  V30 29 1 26 12
M  V30 30 1 25 20
M  V30 31 1 1 29
M  V30 32 1 1 30
M  V30 33 1 1 31
M  V30 34 1 3 32
M  V30 35 1 3 33
M  V30 36 1 3 34
M  V30 37 1 4 35
M  V30 38 1 4 36
M  V30 39 1 4 37
M  V30 40 1 6 38
M  V30 41 1 8 39
M  V30 42 1 11 40
M  V30 43 1 13 41
M  V30 44 1 14 42
M  V30 45 1 18 43
M  V30 46 1 18 44
M  V30 47 1 21 45
M  V30 48 1 22 46
M  V30 49 1 23 47
M  V30 50 1 25 48
M  V30 51 1 26 49
M  V30 52 1 27 50
M  V30 END BOND
M  V30 END CTAB
M  END
>  <Dataset>  (181) 
ChEMBL_Kinases

>  <Ligand_Instance>  (181) 
nan

>  <PDB_ID>  (181) 
nan

>  <Standardized_SMILES>  (181) 
CC(C)(C)c1cc(NC(=O)Nc2ccc(Cl)c(COc3cccnc3)c2)[nH]n1

>  <Name>  (181) 
nan

>  <Pocket>  (181) 
nan

>  <ATP_Site>  (181) 
nan

>  <Peripheral>  (181) 
nan

>  <Num_H_Atoms_ProtBoundConf>  (181) 
nan

>  <Num_Resolved_Atoms>  (181) 
nan

>  <Num_Not_Resolved_Atoms>  (181) 
nan

$$$$
CHEMBL191581
     RDKit          3D

  0  0  0  0  0  0  0  0  0  0999 V3000
M  V30 BEGIN CTAB
M  V30 COUNTS 41 44 0 0 0
M  V30 BEGIN ATOM
M  V30 1 N 3.036809 3.213326 2.830287 0
M  V30 2 C 2.508258 2.523649 2.060242 0
M  V30 3 C 1.837395 1.679307 1.112994 0
M  V30 4 C 2.468818 1.214973 0.043292 0
M  V30 5 N 2.001313 0.389821 -0.985783 0
M  V30 6 C 2.919301 0.067341 -1.973896 0
M  V30 7 C 2.752883 -0.731800 -3.115819 0
M  V30 8 C 3.816204 -0.921977 -3.971289 0
M  V30 9 C 5.056857 -0.367212 -3.773660 0
M  V30 10 C 5.250601 0.421935 -2.661557 0
M  V30 11 C 4.179619 0.603085 -1.816199 0
M  V30 12 S 4.184450 1.593541 -0.300197 0
M  V30 13 C 0.441518 1.342069 1.355276 0
M  V30 14 C -0.381388 2.308178 1.907540 0
M  V30 15 C -1.716087 2.058268 2.166793 0
M  V30 16 N -2.189784 0.830396 1.859786 0
M  V30 17 C -1.424701 -0.127913 1.325201 0
M  V30 18 N -1.888150 -1.425475 0.991301 0
M  V30 19 C -3.253424 -1.852835 1.212287 0
M  V30 20 C -3.545746 -1.791028 2.718375 0
M  V30 21 C -2.613101 -2.687828 3.453469 0
M  V30 22 C -1.371299 -2.322866 3.959982 0
M  V30 23 N -0.854274 -3.421252 4.549036 0
M  V30 24 C -1.751099 -4.412655 4.403280 0
M  V30 25 N -2.843501 -4.001775 3.736434 0
M  V30 26 N -0.146527 0.195173 1.106320 0
M  V30 27 H 1.000235 0.062686 -0.961071 0
M  V30 28 H 1.792045 -1.209528 -3.342308 0
M  V30 29 H 3.661479 -1.547209 -4.852541 0
M  V30 30 H 5.872746 -0.537298 -4.466812 0
M  V30 31 H 6.212852 0.864969 -2.488397 0
M  V30 32 H -0.047221 3.311738 2.172408 0
M  V30 33 H -2.391355 2.804971 2.604154 0
M  V30 34 H -1.241259 -2.122147 0.567650 0
M  V30 35 H -3.457314 -2.849486 0.813132 0
M  V30 36 H -3.912231 -1.145627 0.667691 0
M  V30 37 H -4.582596 -2.162257 2.844092 0
M  V30 38 H -3.428681 -0.759286 3.100298 0
M  V30 39 H -0.875119 -1.352534 3.913296 0
M  V30 40 H 0.079903 -3.429827 5.015722 0
M  V30 41 H -1.605594 -5.401663 4.774271 0
M  V30 END ATOM
M  V30 BEGIN BOND
M  V30 1 3 1 2
M  V30 2 1 2 3
M  V30 3 2 3 4
M  V30 4 1 4 5
M  V30 5 1 5 6
M  V30 6 2 6 7
M  V30 7 1 7 8
M  V30 8 2 8 9
M  V30 9 1 9 10
M  V30 10 2 10 11
M  V30 11 1 11 12
M  V30 12 1 3 13
M  V30 13 2 13 14
M  V30 14 1 14 15
M  V30 15 2 15 16
M  V30 16 1 16 17
M  V30 17 1 17 18
M  V30 18 1 18 19
M  V30 19 1 19 20
M  V30 20 1 20 21
M  V30 21 2 21 22
M  V30 22 1 22 23
M  V30 23 1 23 24
M  V30 24 2 24 25
M  V30 25 2 17 26
M  V30 26 1 12 4
M  V30 27 1 26 13
M  V30 28 1 11 6
M  V30 29 1 25 21
M  V30 30 1 5 27
M  V30 31 1 7 28
M  V30 32 1 8 29
M  V30 33 1 9 30
M  V30 34 1 10 31
M  V30 35 1 14 32
M  V30 36 1 15 33
M  V30 37 1 18 34
M  V30 38 1 19 35
M  V30 39 1 19 36
M  V30 40 1 20 37
M  V30 41 1 20 38
M  V30 42 1 22 39
M  V30 43 1 23 40
M  V30 44 1 24 41
M  V30 END BOND
M  V30 END CTAB
M  END
>  <Dataset>  (182) 
ChEMBL_Kinases

>  <Ligand_Instance>  (182) 
nan

>  <PDB_ID>  (182) 
nan

>  <Standardized_SMILES>  (182) 
N#C/C(=C1/Nc2ccccc2S1)c1ccnc(NCCc2c[nH]cn2)n1

>  <Name>  (182) 
nan

>  <Pocket>  (182) 
nan

>  <ATP_Site>  (182) 
nan

>  <Peripheral>  (182) 
nan

>  <Num_H_Atoms_ProtBoundConf>  (182) 
nan

>  <Num_Resolved_Atoms>  (182) 
nan

>  <Num_Not_Resolved_Atoms>  (182) 
nan

$$$$
CHEMBL191553
     RDKit          3D

  0  0  0  0  0  0  0  0  0  0999 V3000
M  V30 BEGIN CTAB
M  V30 COUNTS 47 50 0 0 0
M  V30 BEGIN ATOM
M  V30 1 C 0.041220 -5.525460 3.966292 0
M  V30 2 C 0.097029 -4.209748 3.267412 0
M  V30 3 O -0.592319 -3.214715 3.586939 0
M  V30 4 N 0.988363 -4.104797 2.183051 0
M  V30 5 C 1.410590 -3.139998 1.226513 0
M  V30 6 C 0.694754 -3.102595 0.032953 0
M  V30 7 C 1.109324 -2.168301 -0.891396 0
M  V30 8 C 2.159831 -1.293151 -0.712618 0
M  V30 9 C 2.465459 -0.373952 -1.825195 0
M  V30 10 N 1.770414 0.884586 -1.779241 0
M  V30 11 C 1.690028 1.990928 -0.927332 0
M  V30 12 N 2.701507 2.900655 -1.059214 0
M  V30 13 N 2.532881 3.925843 -0.206339 0
M  V30 14 C 1.393922 3.687246 0.496975 0
M  V30 15 C 0.651734 4.289058 1.484019 0
M  V30 16 C -0.505288 3.706663 1.953629 0
M  V30 17 N -0.970576 2.526250 1.476536 0
M  V30 18 C -0.275291 1.890866 0.501149 0
M  V30 19 O -0.740043 0.665784 -0.010010 0
M  V30 20 C -1.937361 0.234487 0.600609 0
M  V30 21 C -2.054286 -0.590693 1.686136 0
M  V30 22 C -3.326674 -0.898850 2.142402 0
M  V30 23 C -4.422652 -0.367151 1.491313 0
M  V30 24 C -4.303606 0.466894 0.393349 0
M  V30 25 C -3.040162 0.764802 -0.048908 0
M  V30 26 C 0.873357 2.494919 0.053534 0
M  V30 27 C 2.842397 -1.360159 0.479924 0
M  V30 28 C 2.466987 -2.279272 1.440263 0
M  V30 29 H -1.026015 -5.672010 4.270450 0
M  V30 30 H 0.667267 -5.535175 4.887049 0
M  V30 31 H 0.303641 -6.354255 3.288550 0
M  V30 32 H 1.585581 -4.934972 1.891253 0
M  V30 33 H -0.134282 -3.772281 -0.146058 0
M  V30 34 H 0.545349 -2.152117 -1.811598 0
M  V30 35 H 3.571738 -0.186349 -1.808457 0
M  V30 36 H 2.283522 -0.844148 -2.825103 0
M  V30 37 H 1.107665 1.146965 -2.559973 0
M  V30 38 H 3.562987 3.007822 -1.642048 0
M  V30 39 H 1.009600 5.235004 1.877157 0
M  V30 40 H -1.109560 4.153261 2.725869 0
M  V30 41 H -1.114789 -0.943211 2.109716 0
M  V30 42 H -3.396799 -1.551100 3.001566 0
M  V30 43 H -5.428595 -0.597905 1.839966 0
M  V30 44 H -5.208883 0.849009 -0.068128 0
M  V30 45 H -3.010961 1.427557 -0.918684 0
M  V30 46 H 3.665960 -0.674835 0.623176 0
M  V30 47 H 2.995120 -2.345669 2.384146 0
M  V30 END ATOM
M  V30 BEGIN BOND
M  V30 1 1 1 2
M  V30 2 2 2 3
M  V30 3 1 2 4
M  V30 4 1 4 5
M  V30 5 2 5 6
M  V30 6 1 6 7
M  V30 7 2 7 8
M  V30 8 1 8 9
M  V30 9 1 9 10
M  V30 10 1 10 11
M  V30 11 1 11 12
M  V30 12 1 12 13
M  V30 13 2 13 14
M  V30 14 1 14 15
M  V30 15 2 15 16
M  V30 16 1 16 17
M  V30 17 2 17 18
M  V30 18 1 18 19
M  V30 19 1 19 20
M  V30 20 2 20 21
M  V30 21 1 21 22
M  V30 22 2 22 23
M  V30 23 1 23 24
M  V30 24 2 24 25
M  V30 25 1 18 26
M  V30 26 1 8 27
M  V30 27 2 27 28
M  V30 28 1 28 5
M  V30 29 2 26 11
M  V30 30 1 26 14
M  V30 31 1 25 20
M  V30 32 1 1 29
M  V30 33 1 1 30
M  V30 34 1 1 31
M  V30 35 1 4 32
M  V30 36 1 6 33
M  V30 37 1 7 34
M  V30 38 1 9 35
M  V30 39 1 9 36
M  V30 40 1 10 37
M  V30 41 1 12 38
M  V30 42 1 15 39
M  V30 43 1 16 40
M  V30 44 1 21 41
M  V30 45 1 22 42
M  V30 46 1 23 43
M  V30 47 1 24 44
M  V30 48 1 25 45
M  V30 49 1 27 46
M  V30 50 1 28 47
M  V30 END BOND
M  V30 END CTAB
M  END
>  <Dataset>  (183) 
ChEMBL_Kinases

>  <Ligand_Instance>  (183) 
nan

>  <PDB_ID>  (183) 
nan

>  <Standardized_SMILES>  (183) 
CC(=O)Nc1ccc(CNc2[nH]nc3ccnc(Oc4ccccc4)c23)cc1

>  <Name>  (183) 
nan

>  <Pocket>  (183) 
nan

>  <ATP_Site>  (183) 
nan

>  <Peripheral>  (183) 
nan

>  <Num_H_Atoms_ProtBoundConf>  (183) 
nan

>  <Num_Resolved_Atoms>  (183) 
nan

>  <Num_Not_Resolved_Atoms>  (183) 
nan

$$$$
CHEMBL1915474
     RDKit          3D

  0  0  0  0  0  0  0  0  0  0999 V3000
M  V30 BEGIN CTAB
M  V30 COUNTS 53 57 0 0 0
M  V30 BEGIN ATOM
M  V30 1 O 3.271955 -4.804031 2.076366 0
M  V30 2 C 2.256227 -4.053495 1.888135 0
M  V30 3 N 2.243716 -2.783261 2.477826 0
M  V30 4 C 3.243498 -2.168899 3.295046 0
M  V30 5 C 2.851195 -0.789610 3.729313 0
M  V30 6 N 2.643919 0.106038 2.616553 0
M  V30 7 C 1.767608 0.032008 1.504508 0
M  V30 8 N 2.116543 -0.459502 0.281887 0
M  V30 9 C 1.220065 -0.507050 -0.716093 0
M  V30 10 C -0.056329 -0.045198 -0.464748 0
M  V30 11 C -0.432325 0.457351 0.766562 0
M  V30 12 C -1.810768 0.906572 0.901652 0
M  V30 13 C -2.227707 1.952711 0.114570 0
M  V30 14 C -1.537001 2.748148 -0.878786 0
M  V30 15 C -0.460493 3.538787 -0.529906 0
M  V30 16 C 0.134864 4.263783 -1.558227 0
M  V30 17 C -0.287515 4.229297 -2.866045 0
M  V30 18 C -1.370033 3.431966 -3.209988 0
M  V30 19 O -1.866270 3.333454 -4.502405 0
M  V30 20 C -1.959929 2.713852 -2.191348 0
M  V30 21 N -3.516688 2.180929 0.412102 0
M  V30 22 C -3.882876 1.321050 1.336655 0
M  V30 23 S -5.253828 0.733295 2.406811 0
M  V30 24 C -4.221589 -0.626292 3.237486 0
M  V30 25 C -2.925081 -0.472823 2.590567 0
M  V30 26 N -2.815257 0.484523 1.678299 0
M  V30 27 N 0.534407 0.469644 1.719195 0
M  V30 28 C 1.194574 -4.611836 1.061135 0
M  V30 29 C 1.305104 -5.878021 0.563725 0
M  V30 30 C 0.327679 -6.470299 -0.237051 0
M  V30 31 C -0.826819 -5.746889 -0.555784 0
M  V30 32 C -0.942738 -4.477949 -0.060189 0
M  V30 33 C 0.051525 -3.939294 0.726547 0
M  V30 34 H 1.377105 -2.254334 2.276631 0
M  V30 35 H 3.387223 -2.761036 4.244242 0
M  V30 36 H 4.211306 -2.115590 2.729498 0
M  V30 37 H 1.935311 -0.897135 4.355179 0
M  V30 38 H 3.636638 -0.374047 4.374978 0
M  V30 39 H 3.163734 1.016530 2.468920 0
M  V30 40 H 1.498128 -0.899900 -1.693315 0
M  V30 41 H -0.760872 -0.086978 -1.263421 0
M  V30 42 H -0.115490 3.578903 0.492038 0
M  V30 43 H 0.979160 4.882020 -1.275967 0
M  V30 44 H 0.202698 4.808569 -3.635894 0
M  V30 45 H -2.233950 2.455028 -4.857398 0
M  V30 46 H -2.802932 2.088753 -2.440038 0
M  V30 47 H -4.577531 -1.271278 3.962269 0
M  V30 48 H -2.215070 -1.184426 2.958415 0
M  V30 49 H 2.160901 -6.494985 0.763861 0
M  V30 50 H 0.441439 -7.476115 -0.617049 0
M  V30 51 H -1.551013 -6.253494 -1.180059 0
M  V30 52 H -1.811448 -3.909213 -0.289785 0
M  V30 53 H -0.108904 -2.934213 1.080130 0
M  V30 END ATOM
M  V30 BEGIN BOND
M  V30 1 2 1 2
M  V30 2 1 2 3
M  V30 3 1 3 4
M  V30 4 1 4 5
M  V30 5 1 5 6
M  V30 6 1 6 7
M  V30 7 2 7 8
M  V30 8 1 8 9
M  V30 9 2 9 10
M  V30 10 1 10 11
M  V30 11 1 11 12
M  V30 12 2 12 13
M  V30 13 1 13 14
M  V30 14 2 14 15
M  V30 15 1 15 16
M  V30 16 2 16 17
M  V30 17 1 17 18
M  V30 18 1 18 19
M  V30 19 2 18 20
M  V30 20 1 13 21
M  V30 21 2 21 22
M  V30 22 1 22 23
M  V30 23 1 23 24
M  V30 24 2 24 25
M  V30 25 1 25 26
M  V30 26 2 11 27
M  V30 27 1 2 28
M  V30 28 2 28 29
M  V30 29 1 29 30
M  V30 30 2 30 31
M  V30 31 1 31 32
M  V30 32 2 32 33
M  V30 33 1 27 7
M  V30 34 1 33 28
M  V30 35 1 26 12
M  V30 36 1 20 14
M  V30 37 1 26 22
M  V30 38 1 3 34
M  V30 39 1 4 35
M  V30 40 1 4 36
M  V30 41 1 5 37
M  V30 42 1 5 38
M  V30 43 1 6 39
M  V30 44 1 9 40
M  V30 45 1 10 41
M  V30 46 1 15 42
M  V30 47 1 16 43
M  V30 48 1 17 44
M  V30 49 1 19 45
M  V30 50 1 20 46
M  V30 51 1 24 47
M  V30 52 1 25 48
M  V30 53 1 29 49
M  V30 54 1 30 50
M  V30 55 1 31 51
M  V30 56 1 32 52
M  V30 57 1 33 53
M  V30 END BOND
M  V30 END CTAB
M  END
>  <Dataset>  (184) 
ChEMBL_Kinases

>  <Ligand_Instance>  (184) 
nan

>  <PDB_ID>  (184) 
nan

>  <Standardized_SMILES>  (184) 
O=C(NCCNc1nccc(-c2c(-c3cccc(O)c3)nc3sccn23)n1)c1ccccc1

>  <Name>  (184) 
nan

>  <Pocket>  (184) 
nan

>  <ATP_Site>  (184) 
nan

>  <Peripheral>  (184) 
nan

>  <Num_H_Atoms_ProtBoundConf>  (184) 
nan

>  <Num_Resolved_Atoms>  (184) 
nan

>  <Num_Not_Resolved_Atoms>  (184) 
nan

$$$$
CHEMBL191543
     RDKit          3D

  0  0  0  0  0  0  0  0  0  0999 V3000
M  V30 BEGIN CTAB
M  V30 COUNTS 56 58 0 0 0
M  V30 BEGIN ATOM
M  V30 1 C 0.141240 -1.204160 1.862940 0
M  V30 2 C 1.576817 -1.106356 2.247983 0
M  V30 3 C 2.525095 -2.025891 1.633499 0
M  V30 4 N 2.827528 -2.035299 0.252201 0
M  V30 5 C 4.007616 -1.304390 -0.066300 0
M  V30 6 C 3.928870 -0.012790 -0.726432 0
M  V30 7 C 3.105965 1.114273 -0.261143 0
M  V30 8 N 1.684414 0.808363 -0.418298 0
M  V30 9 C 0.597568 1.698404 -0.245734 0
M  V30 10 N 0.750560 2.790446 -1.027172 0
M  V30 11 C -0.124635 3.798119 -1.095113 0
M  V30 12 C -1.281216 3.810790 -0.356717 0
M  V30 13 C -1.455817 2.683305 0.461789 0
M  V30 14 C -2.579153 2.378221 1.381477 0
M  V30 15 C -3.132478 3.419131 2.219852 0
M  V30 16 N -3.589890 4.248276 2.897464 0
M  V30 17 C -3.079005 1.146524 1.436943 0
M  V30 18 N -2.751264 -0.033994 0.755929 0
M  V30 19 C -3.488385 -1.161125 1.055666 0
M  V30 20 C -3.320426 -2.438938 0.483808 0
M  V30 21 C -4.172004 -3.442953 0.921340 0
M  V30 22 C -5.153691 -3.263840 1.865928 0
M  V30 23 C -5.319582 -2.006314 2.430057 0
M  V30 24 C -4.471995 -1.007329 1.993427 0
M  V30 25 S -4.445340 0.704755 2.542371 0
M  V30 26 N -0.511359 1.739723 0.443470 0
M  V30 27 C 2.193434 -2.769032 -0.783789 0
M  V30 28 O 2.350054 -2.904320 -2.031197 0
M  V30 29 C 1.090900 -3.706381 -0.987092 0
M  V30 30 C 0.994399 -4.162625 -2.419906 0
M  V30 31 H -0.004720 -1.408653 0.807875 0
M  V30 32 H -0.427928 -0.319047 2.214985 0
M  V30 33 H -0.287025 -2.082925 2.416424 0
M  V30 34 H 1.631348 -1.277921 3.369088 0
M  V30 35 H 1.918141 -0.034483 2.175651 0
M  V30 36 H 3.490002 -1.976016 2.234476 0
M  V30 37 H 2.136711 -3.099262 1.885866 0
M  V30 38 H 4.748329 -1.316459 0.799633 0
M  V30 39 H 4.573509 -2.002910 -0.799002 0
M  V30 40 H 3.611056 -0.241882 -1.819921 0
M  V30 41 H 5.002852 0.379489 -0.940539 0
M  V30 42 H 3.299443 1.993808 -0.944215 0
M  V30 43 H 3.328335 1.462373 0.777226 0
M  V30 44 H 1.107044 -0.013765 -0.673792 0
M  V30 45 H -0.019418 4.685773 -1.725371 0
M  V30 46 H -2.085183 4.505356 -0.276874 0
M  V30 47 H -1.955843 0.016887 0.046501 0
M  V30 48 H -2.577905 -2.687696 -0.261289 0
M  V30 49 H -4.061395 -4.449920 0.485443 0
M  V30 50 H -5.773857 -4.107834 2.146891 0
M  V30 51 H -6.077271 -1.840985 3.168125 0
M  V30 52 H 1.199562 -4.619657 -0.365135 0
M  V30 53 H 0.114030 -3.191098 -0.770780 0
M  V30 54 H 1.937363 -4.687093 -2.738299 0
M  V30 55 H 0.732085 -3.342465 -3.110530 0
M  V30 56 H 0.166018 -4.904070 -2.446845 0
M  V30 END ATOM
M  V30 BEGIN BOND
M  V30 1 1 1 2
M  V30 2 1 2 3
M  V30 3 1 3 4
M  V30 4 1 4 5
M  V30 5 1 5 6
M  V30 6 1 6 7
M  V30 7 1 7 8
M  V30 8 1 8 9
M  V30 9 2 9 10
M  V30 10 1 10 11
M  V30 11 2 11 12
M  V30 12 1 12 13
M  V30 13 1 13 14
M  V30 14 1 14 15
M  V30 15 3 15 16
M  V30 16 2 14 17
M  V30 17 1 17 18
M  V30 18 1 18 19
M  V30 19 2 19 20
M  V30 20 1 20 21
M  V30 21 2 21 22
M  V30 22 1 22 23
M  V30 23 2 23 24
M  V30 24 1 24 25
M  V30 25 2 13 26
M  V30 26 1 4 27
M  V30 27 2 27 28
M  V30 28 1 27 29
M  V30 29 1 29 30
M  V30 30 1 26 9
M  V30 31 1 25 17
M  V30 32 1 24 19
M  V30 33 1 1 31
M  V30 34 1 1 32
M  V30 35 1 1 33
M  V30 36 1 2 34
M  V30 37 1 2 35
M  V30 38 1 3 36
M  V30 39 1 3 37
M  V30 40 1 5 38
M  V30 41 1 5 39
M  V30 42 1 6 40
M  V30 43 1 6 41
M  V30 44 1 7 42
M  V30 45 1 7 43
M  V30 46 1 8 44
M  V30 47 1 11 45
M  V30 48 1 12 46
M  V30 49 1 18 47
M  V30 50 1 20 48
M  V30 51 1 21 49
M  V30 52 1 22 50
M  V30 53 1 23 51
M  V30 54 1 29 52
M  V30 55 1 29 53
M  V30 56 1 30 54
M  V30 57 1 30 55
M  V30 58 1 30 56
M  V30 END BOND
M  V30 END CTAB
M  END
>  <Dataset>  (185) 
ChEMBL_Kinases

>  <Ligand_Instance>  (185) 
nan

>  <PDB_ID>  (185) 
nan

>  <Standardized_SMILES>  (185) 
CCCN(CCCNc1nccc(/C(C#N)=C2\Nc3ccccc3S2)n1)C(=O)CC

>  <Name>  (185) 
nan

>  <Pocket>  (185) 
nan

>  <ATP_Site>  (185) 
nan

>  <Peripheral>  (185) 
nan

>  <Num_H_Atoms_ProtBoundConf>  (185) 
nan

>  <Num_Resolved_Atoms>  (185) 
nan

>  <Num_Not_Resolved_Atoms>  (185) 
nan

$$$$
CHEMBL191536
     RDKit          3D

  0  0  0  0  0  0  0  0  0  0999 V3000
M  V30 BEGIN CTAB
M  V30 COUNTS 45 48 0 0 0
M  V30 BEGIN ATOM
M  V30 1 C 0.440984 -4.591869 1.393097 0
M  V30 2 O 0.481930 -3.526035 0.488652 0
M  V30 3 C -0.208819 -3.824678 -0.682079 0
M  V30 4 C 0.764780 -3.856929 -1.815972 0
M  V30 5 C 0.757915 -2.550294 -2.575077 0
M  V30 6 N 0.361980 -1.493685 -1.664757 0
M  V30 7 C 1.323383 -0.506546 -1.281704 0
M  V30 8 N 2.569928 -0.641351 -1.761944 0
M  V30 9 C 3.550735 0.257214 -1.454299 0
M  V30 10 C 3.148824 1.303637 -0.615461 0
M  V30 11 C 1.864376 1.441309 -0.121530 0
M  V30 12 C 1.594889 2.590779 0.738349 0
M  V30 13 C 2.246704 3.827976 0.406648 0
M  V30 14 N 2.792258 4.839437 0.150955 0
M  V30 15 C 0.783222 2.491555 1.779032 0
M  V30 16 N 0.049180 1.400838 2.285032 0
M  V30 17 C -0.719558 1.665808 3.398958 0
M  V30 18 C -1.540188 0.791562 4.099527 0
M  V30 19 C -2.244467 1.238956 5.197561 0
M  V30 20 C -2.190603 2.532870 5.664133 0
M  V30 21 C -1.382565 3.402894 4.978665 0
M  V30 22 C -0.686910 2.936311 3.884166 0
M  V30 23 S 0.436499 3.893698 2.838809 0
M  V30 24 N 0.929550 0.508166 -0.466489 0
M  V30 25 C -1.007472 -1.495566 -1.189585 0
M  V30 26 C -1.394677 -2.929561 -0.901536 0
M  V30 27 H 1.012360 -4.264858 2.289860 0
M  V30 28 H 0.931927 -5.501259 0.997644 0
M  V30 29 H -0.586833 -4.815495 1.712345 0
M  V30 30 H -0.620110 -4.861529 -0.586630 0
M  V30 31 H 0.599902 -4.716428 -2.500860 0
M  V30 32 H 1.811210 -3.981672 -1.426181 0
M  V30 33 H -0.026971 -2.676418 -3.379762 0
M  V30 34 H 1.719929 -2.348705 -3.090047 0
M  V30 35 H 4.570318 0.200217 -1.810569 0
M  V30 36 H 3.916631 2.033621 -0.357204 0
M  V30 37 H 0.149946 0.481732 1.774367 0
M  V30 38 H -1.669927 -0.259187 3.832187 0
M  V30 39 H -2.904050 0.573031 5.776588 0
M  V30 40 H -2.730168 2.908017 6.518432 0
M  V30 41 H -1.312991 4.424677 5.311899 0
M  V30 42 H -1.156332 -0.820978 -0.329272 0
M  V30 43 H -1.648657 -1.120660 -2.037072 0
M  V30 44 H -2.011066 -2.997014 0.037227 0
M  V30 45 H -1.938164 -3.336590 -1.785958 0
M  V30 END ATOM
M  V30 BEGIN BOND
M  V30 1 1 1 2
M  V30 2 1 2 3
M  V30 3 1 3 4
M  V30 4 1 4 5
M  V30 5 1 5 6
M  V30 6 1 6 7
M  V30 7 2 7 8
M  V30 8 1 8 9
M  V30 9 2 9 10
M  V30 10 1 10 11
M  V30 11 1 11 12
M  V30 12 1 12 13
M  V30 13 3 13 14
M  V30 14 2 12 15
M  V30 15 1 15 16
M  V30 16 1 16 17
M  V30 17 2 17 18
M  V30 18 1 18 19
M  V30 19 2 19 20
M  V30 20 1 20 21
M  V30 21 2 21 22
M  V30 22 1 22 23
M  V30 23 2 11 24
M  V30 24 1 6 25
M  V30 25 1 25 26
M  V30 26 1 26 3
M  V30 27 1 24 7
M  V30 28 1 23 15
M  V30 29 1 22 17
M  V30 30 1 1 27
M  V30 31 1 1 28
M  V30 32 1 1 29
M  V30 33 1 3 30
M  V30 34 1 4 31
M  V30 35 1 4 32
M  V30 36 1 5 33
M  V30 37 1 5 34
M  V30 38 1 9 35
M  V30 39 1 10 36
M  V30 40 1 16 37
M  V30 41 1 18 38
M  V30 42 1 19 39
M  V30 43 1 20 40
M  V30 44 1 21 41
M  V30 45 1 25 42
M  V30 46 1 25 43
M  V30 47 1 26 44
M  V30 48 1 26 45
M  V30 END BOND
M  V30 END CTAB
M  END
>  <Dataset>  (186) 
ChEMBL_Kinases

>  <Ligand_Instance>  (186) 
nan

>  <PDB_ID>  (186) 
nan

>  <Standardized_SMILES>  (186) 
COC1CCN(c2nccc(/C(C#N)=C3\Nc4ccccc4S3)n2)CC1

>  <Name>  (186) 
nan

>  <Pocket>  (186) 
nan

>  <ATP_Site>  (186) 
nan

>  <Peripheral>  (186) 
nan

>  <Num_H_Atoms_ProtBoundConf>  (186) 
nan

>  <Num_Resolved_Atoms>  (186) 
nan

>  <Num_Not_Resolved_Atoms>  (186) 
nan

$$$$
CHEMBL191465
     RDKit          3D

  0  0  0  0  0  0  0  0  0  0999 V3000
M  V30 BEGIN CTAB
M  V30 COUNTS 38 40 0 0 0
M  V30 BEGIN ATOM
M  V30 1 N 4.269939 0.410303 3.332553 0
M  V30 2 C 3.492839 0.240755 2.467050 0
M  V30 3 C 2.549360 0.011902 1.408803 0
M  V30 4 C 2.692364 -0.960653 0.522254 0
M  V30 5 N 1.913177 -1.357849 -0.569100 0
M  V30 6 C 2.390319 -2.465515 -1.280775 0
M  V30 7 C 1.761180 -3.028880 -2.404566 0
M  V30 8 C 2.404272 -4.138831 -2.968480 0
M  V30 9 C 3.577262 -4.667612 -2.477686 0
M  V30 10 C 4.178998 -4.100385 -1.374229 0
M  V30 11 C 3.544786 -3.009536 -0.821867 0
M  V30 12 S 4.092989 -2.071496 0.601001 0
M  V30 13 C 1.386496 0.885238 1.318097 0
M  V30 14 C 1.457842 2.246500 1.603270 0
M  V30 15 C 0.398991 3.127826 1.543275 0
M  V30 16 N -0.815130 2.640663 1.178055 0
M  V30 17 C -0.907617 1.349699 0.902275 0
M  V30 18 N -2.086169 0.645173 0.503686 0
M  V30 19 C -2.998399 0.000248 1.419553 0
M  V30 20 C -3.555374 1.035427 2.385411 0
M  V30 21 C -4.516479 0.377680 3.356883 0
M  V30 22 O -4.994356 1.367247 4.216445 0
M  V30 23 N 0.131407 0.541199 0.972467 0
M  V30 24 H 1.046192 -0.789370 -0.753275 0
M  V30 25 H 0.846071 -2.679281 -2.852574 0
M  V30 26 H 2.007668 -4.646574 -3.831260 0
M  V30 27 H 4.051906 -5.528156 -2.932958 0
M  V30 28 H 5.090677 -4.506011 -0.986955 0
M  V30 29 H 2.412779 2.699206 1.903834 0
M  V30 30 H 0.529038 4.176604 1.777358 0
M  V30 31 H -2.108581 0.716310 -0.527954 0
M  V30 32 H -2.464945 -0.799538 1.971979 0
M  V30 33 H -3.802344 -0.456567 0.814044 0
M  V30 34 H -4.085946 1.772397 1.784863 0
M  V30 35 H -2.741787 1.530147 2.916557 0
M  V30 36 H -4.021975 -0.412774 3.947426 0
M  V30 37 H -5.341138 -0.034367 2.723235 0
M  V30 38 H -4.311593 2.057740 4.293485 0
M  V30 END ATOM
M  V30 BEGIN BOND
M  V30 1 3 1 2
M  V30 2 1 2 3
M  V30 3 2 3 4
M  V30 4 1 4 5
M  V30 5 1 5 6
M  V30 6 2 6 7
M  V30 7 1 7 8
M  V30 8 2 8 9
M  V30 9 1 9 10
M  V30 10 2 10 11
M  V30 11 1 11 12
M  V30 12 1 3 13
M  V30 13 2 13 14
M  V30 14 1 14 15
M  V30 15 2 15 16
M  V30 16 1 16 17
M  V30 17 1 17 18
M  V30 18 1 18 19
M  V30 19 1 19 20
M  V30 20 1 20 21
M  V30 21 1 21 22
M  V30 22 2 17 23
M  V30 23 1 12 4
M  V30 24 1 23 13
M  V30 25 1 11 6
M  V30 26 1 5 24
M  V30 27 1 7 25
M  V30 28 1 8 26
M  V30 29 1 9 27
M  V30 30 1 10 28
M  V30 31 1 14 29
M  V30 32 1 15 30
M  V30 33 1 18 31
M  V30 34 1 19 32
M  V30 35 1 19 33
M  V30 36 1 20 34
M  V30 37 1 20 35
M  V30 38 1 21 36
M  V30 39 1 21 37
M  V30 40 1 22 38
M  V30 END BOND
M  V30 END CTAB
M  END
>  <Dataset>  (187) 
ChEMBL_Kinases

>  <Ligand_Instance>  (187) 
nan

>  <PDB_ID>  (187) 
nan

>  <Standardized_SMILES>  (187) 
N#C/C(=C1/Nc2ccccc2S1)c1ccnc(NCCCO)n1

>  <Name>  (187) 
nan

>  <Pocket>  (187) 
nan

>  <ATP_Site>  (187) 
nan

>  <Peripheral>  (187) 
nan

>  <Num_H_Atoms_ProtBoundConf>  (187) 
nan

>  <Num_Resolved_Atoms>  (187) 
nan

>  <Num_Not_Resolved_Atoms>  (187) 
nan

$$$$
CHEMBL1914478
     RDKit          3D

  0  0  0  0  0  0  0  0  0  0999 V3000
M  V30 BEGIN CTAB
M  V30 COUNTS 41 44 0 0 0
M  V30 BEGIN ATOM
M  V30 1 C -3.702722 -1.850268 -1.064180 0
M  V30 2 O -2.310936 -1.697598 -0.941555 0
M  V30 3 C -1.546618 -1.520469 -2.058892 0
M  V30 4 C -1.900657 -1.456931 -3.390233 0
M  V30 5 C -0.949261 -1.268676 -4.371722 0
M  V30 6 C 0.393547 -1.134442 -4.087387 0
M  V30 7 C 0.761089 -1.196969 -2.748866 0
M  V30 8 C -0.187580 -1.385922 -1.754468 0
M  V30 9 C 0.374451 -1.428246 -0.384823 0
M  V30 10 C 0.464573 -0.218651 0.280680 0
M  V30 11 N 0.070251 0.947114 -0.263753 0
M  V30 12 C 0.188667 2.084472 0.445024 0
M  V30 13 C 0.705710 2.106771 1.727429 0
M  V30 14 C 1.118409 0.913500 2.307066 0
M  V30 15 C 1.684683 0.762702 3.647342 0
M  V30 16 C 3.043388 0.851060 3.856044 0
M  V30 17 C 3.525666 0.702251 5.133649 0
M  V30 18 C 2.653241 0.468899 6.179416 0
M  V30 19 F 3.126919 0.320227 7.451085 0
M  V30 20 C 1.300710 0.387215 5.929772 0
M  V30 21 C 0.776979 0.530432 4.665147 0
M  V30 22 F -0.559403 0.450770 4.411544 0
M  V30 23 C 0.991103 -0.249872 1.566845 0
M  V30 24 C 1.383904 -1.471650 2.087018 0
M  V30 25 C 1.285793 -2.670547 1.405745 0
M  V30 26 N 0.767691 -2.596673 0.155989 0 CHG=1 VAL=4
M  V30 27 O 0.640428 -3.752723 -0.581415 0 CHG=-1 VAL=1
M  V30 28 H -4.099778 -2.411208 -0.184569 0
M  V30 29 H -4.254293 -0.876773 -1.066794 0
M  V30 30 H -3.897335 -2.461392 -1.965411 0
M  V30 31 H -2.964604 -1.568824 -3.545143 0
M  V30 32 H -1.318954 -1.231342 -5.393465 0
M  V30 33 H 1.118109 -0.988774 -4.864075 0
M  V30 34 H 1.817241 -1.090612 -2.535142 0
M  V30 35 H -0.129349 3.032446 0.008796 0
M  V30 36 H 0.822093 2.995575 2.340089 0
M  V30 37 H 3.733612 1.033225 3.045032 0
M  V30 38 H 4.576140 0.756161 5.391217 0
M  V30 39 H 0.639928 0.204550 6.761388 0
M  V30 40 H 1.797295 -1.522223 3.087267 0
M  V30 41 H 1.612704 -3.592634 1.873392 0
M  V30 END ATOM
M  V30 BEGIN BOND
M  V30 1 1 1 2
M  V30 2 1 2 3
M  V30 3 2 3 4
M  V30 4 1 4 5
M  V30 5 2 5 6
M  V30 6 1 6 7
M  V30 7 2 7 8
M  V30 8 1 8 9
M  V30 9 1 9 10
M  V30 10 2 10 11
M  V30 11 1 11 12
M  V30 12 2 12 13
M  V30 13 1 13 14
M  V30 14 1 14 15
M  V30 15 2 15 16
M  V30 16 1 16 17
M  V30 17 2 17 18
M  V30 18 1 18 19
M  V30 19 1 18 20
M  V30 20 2 20 21
M  V30 21 1 21 22
M  V30 22 2 14 23
M  V30 23 1 23 24
M  V30 24 2 24 25
M  V30 25 1 25 26
M  V30 26 1 26 27
M  V30 27 1 8 3
M  V30 28 2 26 9
M  V30 29 1 23 10
M  V30 30 1 21 15
M  V30 31 1 1 28
M  V30 32 1 1 29
M  V30 33 1 1 30
M  V30 34 1 4 31
M  V30 35 1 5 32
M  V30 36 1 6 33
M  V30 37 1 7 34
M  V30 38 1 12 35
M  V30 39 1 13 36
M  V30 40 1 16 37
M  V30 41 1 17 38
M  V30 42 1 20 39
M  V30 43 1 24 40
M  V30 44 1 25 41
M  V30 END BOND
M  V30 END CTAB
M  END
>  <Dataset>  (188) 
ChEMBL_Kinases

>  <Ligand_Instance>  (188) 
nan

>  <PDB_ID>  (188) 
nan

>  <Standardized_SMILES>  (188) 
COc1ccccc1-c1c2nccc(-c3ccc(F)cc3F)c2cc[n+]1[O-]

>  <Name>  (188) 
nan

>  <Pocket>  (188) 
nan

>  <ATP_Site>  (188) 
nan

>  <Peripheral>  (188) 
nan

>  <Num_H_Atoms_ProtBoundConf>  (188) 
nan

>  <Num_Resolved_Atoms>  (188) 
nan

>  <Num_Not_Resolved_Atoms>  (188) 
nan

$$$$
CHEMBL191376
     RDKit          3D

  0  0  0  0  0  0  0  0  0  0999 V3000
M  V30 BEGIN CTAB
M  V30 COUNTS 50 53 0 0 0
M  V30 BEGIN ATOM
M  V30 1 N 5.832381 0.801190 2.904295 0
M  V30 2 C 4.766149 0.892070 2.415750 0
M  V30 3 C 3.456257 0.979858 1.824279 0
M  V30 4 C 3.253724 0.879201 0.516215 0
M  V30 5 N 2.094973 0.934775 -0.265802 0
M  V30 6 C 2.295162 0.751178 -1.639743 0
M  V30 7 C 1.244878 0.764639 -2.576459 0
M  V30 8 C 1.618256 0.554266 -3.912192 0
M  V30 9 C 2.920275 0.349474 -4.267971 0
M  V30 10 C 3.954284 0.335763 -3.349228 0
M  V30 11 C 3.564470 0.545083 -2.046474 0
M  V30 12 S 4.630395 0.607036 -0.596675 0
M  V30 13 C 2.289333 1.170785 2.697102 0
M  V30 14 C 2.311136 2.043491 3.765532 0
M  V30 15 C 1.183566 2.180480 4.573377 0
M  V30 16 N 0.079253 1.466706 4.314727 0
M  V30 17 C 0.032584 0.594896 3.262191 0
M  V30 18 N -1.035120 -0.252021 2.819682 0
M  V30 19 C -0.923504 -1.488007 3.549322 0
M  V30 20 C -1.948991 -2.535113 3.174374 0
M  V30 21 C -1.857235 -2.922981 1.742860 0
M  V30 22 N -2.062272 -1.978788 0.742921 0
M  V30 23 C -3.345247 -1.427879 0.506352 0
M  V30 24 C -4.243927 -2.522650 0.009300 0
M  V30 25 O -3.658204 -3.141464 -1.082463 0
M  V30 26 C -2.536923 -2.540028 -1.582565 0
M  V30 27 C -1.471690 -2.302676 -0.530010 0
M  V30 28 N 1.136894 0.515442 2.538102 0
M  V30 29 H 1.203003 1.109816 0.261894 0
M  V30 30 H 0.203106 0.923037 -2.352767 0
M  V30 31 H 0.911914 0.542500 -4.727679 0
M  V30 32 H 3.210214 0.184037 -5.314646 0
M  V30 33 H 4.974328 0.171639 -3.629286 0
M  V30 34 H 3.194483 2.629683 3.993914 0
M  V30 35 H 1.128241 2.842809 5.426721 0
M  V30 36 H -1.609401 0.238357 2.097967 0
M  V30 37 H 0.064554 -1.951881 3.254467 0
M  V30 38 H -0.940450 -1.285015 4.644620 0
M  V30 39 H -1.694560 -3.431283 3.799498 0
M  V30 40 H -2.943489 -2.210857 3.506373 0
M  V30 41 H -0.812303 -3.335419 1.585580 0
M  V30 42 H -2.501974 -3.811600 1.560603 0
M  V30 43 H -3.222492 -0.732529 -0.377251 0
M  V30 44 H -3.777016 -0.785845 1.276496 0
M  V30 45 H -5.264034 -2.178064 -0.266875 0
M  V30 46 H -4.325511 -3.323474 0.792452 0
M  V30 47 H -2.088499 -3.249933 -2.326330 0
M  V30 48 H -2.721934 -1.613397 -2.159618 0
M  V30 49 H -0.862536 -1.447889 -0.901873 0
M  V30 50 H -0.804982 -3.180854 -0.481793 0
M  V30 END ATOM
M  V30 BEGIN BOND
M  V30 1 3 1 2
M  V30 2 1 2 3
M  V30 3 2 3 4
M  V30 4 1 4 5
M  V30 5 1 5 6
M  V30 6 2 6 7
M  V30 7 1 7 8
M  V30 8 2 8 9
M  V30 9 1 9 10
M  V30 10 2 10 11
M  V30 11 1 11 12
M  V30 12 1 3 13
M  V30 13 2 13 14
M  V30 14 1 14 15
M  V30 15 2 15 16
M  V30 16 1 16 17
M  V30 17 1 17 18
M  V30 18 1 18 19
M  V30 19 1 19 20
M  V30 20 1 20 21
M  V30 21 1 21 22
M  V30 22 1 22 23
M  V30 23 1 23 24
M  V30 24 1 24 25
M  V30 25 1 25 26
M  V30 26 1 26 27
M  V30 27 2 17 28
M  V30 28 1 12 4
M  V30 29 1 28 13
M  V30 30 1 11 6
M  V30 31 1 27 22
M  V30 32 1 5 29
M  V30 33 1 7 30
M  V30 34 1 8 31
M  V30 35 1 9 32
M  V30 36 1 10 33
M  V30 37 1 14 34
M  V30 38 1 15 35
M  V30 39 1 18 36
M  V30 40 1 19 37
M  V30 41 1 19 38
M  V30 42 1 20 39
M  V30 43 1 20 40
M  V30 44 1 21 41
M  V30 45 1 21 42
M  V30 46 1 23 43
M  V30 47 1 23 44
M  V30 48 1 24 45
M  V30 49 1 24 46
M  V30 50 1 26 47
M  V30 51 1 26 48
M  V30 52 1 27 49
M  V30 53 1 27 50
M  V30 END BOND
M  V30 END CTAB
M  END
>  <Dataset>  (189) 
ChEMBL_Kinases

>  <Ligand_Instance>  (189) 
nan

>  <PDB_ID>  (189) 
nan

>  <Standardized_SMILES>  (189) 
N#C/C(=C1/Nc2ccccc2S1)c1ccnc(NCCCN2CCOCC2)n1

>  <Name>  (189) 
nan

>  <Pocket>  (189) 
nan

>  <ATP_Site>  (189) 
nan

>  <Peripheral>  (189) 
nan

>  <Num_H_Atoms_ProtBoundConf>  (189) 
nan

>  <Num_Resolved_Atoms>  (189) 
nan

>  <Num_Not_Resolved_Atoms>  (189) 
nan

$$$$
CHEMBL191308
     RDKit          3D

  0  0  0  0  0  0  0  0  0  0999 V3000
M  V30 BEGIN CTAB
M  V30 COUNTS 51 54 0 0 0
M  V30 BEGIN ATOM
M  V30 1 O 0.748862 -4.070669 3.447802 0
M  V30 2 C 1.622427 -3.931753 2.355072 0
M  V30 3 C 0.857855 -3.967917 1.031080 0
M  V30 4 N 1.819371 -3.819168 -0.024264 0
M  V30 5 C 2.368789 -2.474022 0.022803 0
M  V30 6 C 2.574781 -1.986788 -1.394082 0
M  V30 7 C 1.151010 -1.716117 -1.933531 0
M  V30 8 C 0.542102 -0.711639 -1.013709 0
M  V30 9 C 1.206955 0.395820 -0.534407 0
M  V30 10 C 0.303003 1.064547 0.266533 0
M  V30 11 C 0.444554 2.289092 1.050164 0
M  V30 12 C -0.137541 3.535639 0.998844 0
M  V30 13 C 0.226471 4.481662 1.926465 0
M  V30 14 N 1.140082 4.260746 2.907799 0
M  V30 15 C 1.722353 3.042515 2.973352 0
M  V30 16 C 1.392835 2.038971 2.057096 0
M  V30 17 C -0.904311 0.395274 0.291446 0
M  V30 18 C -2.208345 0.603650 0.924777 0
M  V30 19 C -3.020978 1.633315 0.471119 0
M  V30 20 C -4.253802 1.883549 1.024783 0
M  V30 21 C -4.700112 1.083934 2.068396 0
M  V30 22 F -5.904234 1.262960 2.671067 0
M  V30 23 C -3.854583 0.057643 2.497437 0
M  V30 24 C -2.604825 -0.218627 1.957414 0
M  V30 25 N -0.697963 -0.688839 -0.512878 0
M  V30 26 C 0.473693 -3.034518 -1.944242 0
M  V30 27 C 1.308375 -4.146468 -1.318343 0
M  V30 28 H 0.530365 -3.137829 3.765152 0
M  V30 29 H 2.379419 -4.750153 2.373378 0
M  V30 30 H 2.149347 -2.953756 2.439305 0
M  V30 31 H 0.365037 -4.962736 0.993602 0
M  V30 32 H 0.087559 -3.178004 1.078631 0
M  V30 33 H 3.305104 -2.414197 0.610948 0
M  V30 34 H 1.633015 -1.824758 0.508725 0
M  V30 35 H 3.052485 -0.986967 -1.334737 0
M  V30 36 H 3.106014 -2.697646 -2.033507 0
M  V30 37 H 1.308755 -1.295421 -2.952555 0
M  V30 38 H 2.211599 0.761547 -0.684981 0
M  V30 39 H -0.824410 3.579304 0.193437 0
M  V30 40 H -0.278248 5.427862 1.812689 0
M  V30 41 H 2.428789 2.954473 3.776539 0
M  V30 42 H 1.962999 1.145189 2.278022 0
M  V30 43 H -2.768511 2.300025 -0.324866 0
M  V30 44 H -4.954755 2.660140 0.738699 0
M  V30 45 H -4.230233 -0.560009 3.323439 0
M  V30 46 H -1.995988 -1.024863 2.331427 0
M  V30 47 H -1.381764 -1.425115 -0.737556 0
M  V30 48 H 0.322000 -3.365773 -3.004727 0
M  V30 49 H -0.510588 -3.090680 -1.461821 0
M  V30 50 H 2.109323 -4.511239 -2.012254 0
M  V30 51 H 0.623565 -5.038892 -1.220320 0
M  V30 END ATOM
M  V30 BEGIN BOND
M  V30 1 1 1 2
M  V30 2 1 2 3
M  V30 3 1 3 4
M  V30 4 1 4 5
M  V30 5 1 5 6
M  V30 6 1 6 7
M  V30 7 1 7 8
M  V30 8 2 8 9
M  V30 9 1 9 10
M  V30 10 1 10 11
M  V30 11 2 11 12
M  V30 12 1 12 13
M  V30 13 2 13 14
M  V30 14 1 14 15
M  V30 15 2 15 16
M  V30 16 2 10 17
M  V30 17 1 17 18
M  V30 18 2 18 19
M  V30 19 1 19 20
M  V30 20 2 20 21
M  V30 21 1 21 22
M  V30 22 1 21 23
M  V30 23 2 23 24
M  V30 24 1 17 25
M  V30 25 1 7 26
M  V30 26 1 26 27
M  V30 27 1 27 4
M  V30 28 1 25 8
M  V30 29 1 16 11
M  V30 30 1 24 18
M  V30 31 1 1 28
M  V30 32 1 2 29
M  V30 33 1 2 30
M  V30 34 1 3 31
M  V30 35 1 3 32
M  V30 36 1 5 33
M  V30 37 1 5 34
M  V30 38 1 6 35
M  V30 39 1 6 36
M  V30 40 1 7 37
M  V30 41 1 9 38
M  V30 42 1 12 39
M  V30 43 1 13 40
M  V30 44 1 15 41
M  V30 45 1 16 42
M  V30 46 1 19 43
M  V30 47 1 20 44
M  V30 48 1 23 45
M  V30 49 1 24 46
M  V30 50 1 25 47
M  V30 51 1 26 48
M  V30 52 1 26 49
M  V30 53 1 27 50
M  V30 54 1 27 51
M  V30 END BOND
M  V30 END CTAB
M  END
>  <Dataset>  (190) 
ChEMBL_Kinases

>  <Ligand_Instance>  (190) 
nan

>  <PDB_ID>  (190) 
nan

>  <Standardized_SMILES>  (190) 
OCCN1CCC(c2cc(-c3ccncc3)c(-c3ccc(F)cc3)[nH]2)CC1

>  <Name>  (190) 
nan

>  <Pocket>  (190) 
nan

>  <ATP_Site>  (190) 
nan

>  <Peripheral>  (190) 
nan

>  <Num_H_Atoms_ProtBoundConf>  (190) 
nan

>  <Num_Resolved_Atoms>  (190) 
nan

>  <Num_Not_Resolved_Atoms>  (190) 
nan

$$$$
CHEMBL191269
     RDKit          3D

  0  0  0  0  0  0  0  0  0  0999 V3000
M  V30 BEGIN CTAB
M  V30 COUNTS 38 40 0 0 0
M  V30 BEGIN ATOM
M  V30 1 C 0.549220 -4.395477 1.810387 0
M  V30 2 O 1.809716 -4.749959 1.367633 0
M  V30 3 C 2.636451 -3.688012 1.092353 0
M  V30 4 C 2.095332 -2.771534 0.030485 0
M  V30 5 N 3.001229 -1.642646 -0.245689 0
M  V30 6 C 2.370323 -0.838247 -1.242145 0
M  V30 7 N 2.491582 -0.983249 -2.590411 0
M  V30 8 C 1.837139 -0.150125 -3.430943 0
M  V30 9 C 1.058395 0.830934 -2.849656 0
M  V30 10 C 0.932467 0.981030 -1.471088 0
M  V30 11 C 0.096651 2.039510 -0.906602 0
M  V30 12 C 0.058147 3.317187 -1.569045 0
M  V30 13 N 0.037508 4.359616 -2.115188 0
M  V30 14 C -0.619937 1.855607 0.189346 0
M  V30 15 N -0.742976 0.701613 1.008019 0
M  V30 16 C -1.566232 0.834918 2.122589 0
M  V30 17 C -1.866767 -0.119064 3.104466 0
M  V30 18 C -2.706516 0.236272 4.134658 0
M  V30 19 C -3.287854 1.474641 4.284950 0
M  V30 20 C -2.998581 2.417687 3.325343 0
M  V30 21 C -2.170234 2.075939 2.303955 0
M  V30 22 S -1.650434 3.127645 0.923523 0
M  V30 23 N 1.601898 0.129965 -0.721450 0
M  V30 24 H 0.615598 -3.793640 2.748650 0
M  V30 25 H -0.039846 -5.329521 1.988687 0
M  V30 26 H 0.020447 -3.867932 0.999521 0
M  V30 27 H 3.613887 -4.127008 0.762467 0
M  V30 28 H 2.855793 -3.094371 2.020391 0
M  V30 29 H 1.179985 -2.289380 0.470376 0
M  V30 30 H 1.784364 -3.288659 -0.876213 0
M  V30 31 H 3.941935 -1.493317 0.230849 0
M  V30 32 H 1.949874 -0.286598 -4.495800 0
M  V30 33 H 0.532224 1.500779 -3.546809 0
M  V30 34 H -0.223707 -0.161795 0.738184 0
M  V30 35 H -1.449830 -1.135146 3.069426 0
M  V30 36 H -2.909436 -0.550712 4.878701 0
M  V30 37 H -3.933088 1.655912 5.132003 0
M  V30 38 H -3.430004 3.396004 3.406256 0
M  V30 END ATOM
M  V30 BEGIN BOND
M  V30 1 1 1 2
M  V30 2 1 2 3
M  V30 3 1 3 4
M  V30 4 1 4 5
M  V30 5 1 5 6
M  V30 6 2 6 7
M  V30 7 1 7 8
M  V30 8 2 8 9
M  V30 9 1 9 10
M  V30 10 1 10 11
M  V30 11 1 11 12
M  V30 12 3 12 13
M  V30 13 2 11 14
M  V30 14 1 14 15
M  V30 15 1 15 16
M  V30 16 2 16 17
M  V30 17 1 17 18
M  V30 18 2 18 19
M  V30 19 1 19 20
M  V30 20 2 20 21
M  V30 21 1 21 22
M  V30 22 2 10 23
M  V30 23 1 23 6
M  V30 24 1 22 14
M  V30 25 1 21 16
M  V30 26 1 1 24
M  V30 27 1 1 25
M  V30 28 1 1 26
M  V30 29 1 3 27
M  V30 30 1 3 28
M  V30 31 1 4 29
M  V30 32 1 4 30
M  V30 33 1 5 31
M  V30 34 1 8 32
M  V30 35 1 9 33
M  V30 36 1 15 34
M  V30 37 1 17 35
M  V30 38 1 18 36
M  V30 39 1 19 37
M  V30 40 1 20 38
M  V30 END BOND
M  V30 END CTAB
M  END
>  <Dataset>  (191) 
ChEMBL_Kinases

>  <Ligand_Instance>  (191) 
nan

>  <PDB_ID>  (191) 
nan

>  <Standardized_SMILES>  (191) 
COCCNc1nccc(/C(C#N)=C2\Nc3ccccc3S2)n1

>  <Name>  (191) 
nan

>  <Pocket>  (191) 
nan

>  <ATP_Site>  (191) 
nan

>  <Peripheral>  (191) 
nan

>  <Num_H_Atoms_ProtBoundConf>  (191) 
nan

>  <Num_Resolved_Atoms>  (191) 
nan

>  <Num_Not_Resolved_Atoms>  (191) 
nan

$$$$
CHEMBL191252
     RDKit          3D

  0  0  0  0  0  0  0  0  0  0999 V3000
M  V30 BEGIN CTAB
M  V30 COUNTS 52 55 0 0 0
M  V30 BEGIN ATOM
M  V30 1 N -0.584376 -3.823762 4.033027 0
M  V30 2 C 0.361098 -3.986258 2.953712 0
M  V30 3 C -0.225084 -3.542814 1.606481 0
M  V30 4 N 0.772582 -3.737265 0.609636 0
M  V30 5 C 1.899520 -2.854493 0.743577 0
M  V30 6 C 2.738506 -2.791385 -0.490693 0
M  V30 7 C 1.774736 -2.225744 -1.564167 0
M  V30 8 C 1.113004 -1.011093 -0.977682 0
M  V30 9 C 1.717214 0.199131 -0.708775 0
M  V30 10 C 0.701712 0.986640 -0.206377 0
M  V30 11 C 0.762787 2.372170 0.250914 0
M  V30 12 C 0.481781 3.574742 -0.377566 0
M  V30 13 C 0.627654 4.743997 0.330475 0
M  V30 14 N 1.030968 4.796029 1.611339 0
M  V30 15 C 1.315837 3.625850 2.258915 0
M  V30 16 C 1.184206 2.420076 1.586653 0
M  V30 17 C -0.473874 0.266095 -0.178057 0
M  V30 18 C -1.807949 0.705715 0.279669 0
M  V30 19 C -2.758614 1.105306 -0.661028 0
M  V30 20 C -4.014692 1.510698 -0.195212 0
M  V30 21 C -4.226338 1.485434 1.179844 0
M  V30 22 F -5.444669 1.872427 1.625460 0
M  V30 23 C -3.267887 1.085221 2.091673 0
M  V30 24 C -2.034423 0.687634 1.636501 0
M  V30 25 N -0.192744 -0.966835 -0.659728 0
M  V30 26 C 0.800849 -3.292061 -1.846110 0
M  V30 27 C 0.373488 -4.115938 -0.678063 0
M  V30 28 H -0.027877 -3.723849 4.912200 0
M  V30 29 H -1.109677 -2.926536 3.896454 0
M  V30 30 H 1.268391 -3.388796 3.199109 0
M  V30 31 H 0.603987 -5.086401 2.930863 0
M  V30 32 H -0.368835 -2.429049 1.719116 0
M  V30 33 H -1.181867 -3.999147 1.404829 0
M  V30 34 H 2.515594 -3.081393 1.634247 0
M  V30 35 H 1.472962 -1.831958 0.923744 0
M  V30 36 H 3.022142 -3.786874 -0.832606 0
M  V30 37 H 3.556993 -2.079064 -0.343899 0
M  V30 38 H 2.440566 -1.890606 -2.354508 0
M  V30 39 H 2.736798 0.481256 -0.848309 0
M  V30 40 H 0.171367 3.405590 -1.390701 0
M  V30 41 H 0.386308 5.638483 -0.235554 0
M  V30 42 H 1.641894 3.697675 3.297774 0
M  V30 43 H 1.447512 1.560466 2.229490 0
M  V30 44 H -2.548362 1.108669 -1.723869 0
M  V30 45 H -4.762065 1.820163 -0.897071 0
M  V30 46 H -3.435967 1.066772 3.160096 0
M  V30 47 H -1.265571 0.373511 2.312591 0
M  V30 48 H -0.905114 -1.745653 -0.758070 0
M  V30 49 H -0.083857 -2.820950 -2.369839 0
M  V30 50 H 1.225882 -3.977100 -2.621146 0
M  V30 51 H 0.680138 -5.197107 -0.817593 0
M  V30 52 H -0.742293 -4.174166 -0.698078 0
M  V30 END ATOM
M  V30 BEGIN BOND
M  V30 1 1 1 2
M  V30 2 1 2 3
M  V30 3 1 3 4
M  V30 4 1 4 5
M  V30 5 1 5 6
M  V30 6 1 6 7
M  V30 7 1 7 8
M  V30 8 2 8 9
M  V30 9 1 9 10
M  V30 10 1 10 11
M  V30 11 2 11 12
M  V30 12 1 12 13
M  V30 13 2 13 14
M  V30 14 1 14 15
M  V30 15 2 15 16
M  V30 16 2 10 17
M  V30 17 1 17 18
M  V30 18 2 18 19
M  V30 19 1 19 20
M  V30 20 2 20 21
M  V30 21 1 21 22
M  V30 22 1 21 23
M  V30 23 2 23 24
M  V30 24 1 17 25
M  V30 25 1 7 26
M  V30 26 1 26 27
M  V30 27 1 27 4
M  V30 28 1 25 8
M  V30 29 1 16 11
M  V30 30 1 24 18
M  V30 31 1 1 28
M  V30 32 1 1 29
M  V30 33 1 2 30
M  V30 34 1 2 31
M  V30 35 1 3 32
M  V30 36 1 3 33
M  V30 37 1 5 34
M  V30 38 1 5 35
M  V30 39 1 6 36
M  V30 40 1 6 37
M  V30 41 1 7 38
M  V30 42 1 9 39
M  V30 43 1 12 40
M  V30 44 1 13 41
M  V30 45 1 15 42
M  V30 46 1 16 43
M  V30 47 1 19 44
M  V30 48 1 20 45
M  V30 49 1 23 46
M  V30 50 1 24 47
M  V30 51 1 25 48
M  V30 52 1 26 49
M  V30 53 1 26 50
M  V30 54 1 27 51
M  V30 55 1 27 52
M  V30 END BOND
M  V30 END CTAB
M  END
>  <Dataset>  (192) 
ChEMBL_Kinases

>  <Ligand_Instance>  (192) 
nan

>  <PDB_ID>  (192) 
nan

>  <Standardized_SMILES>  (192) 
NCCN1CCC(c2cc(-c3ccncc3)c(-c3ccc(F)cc3)[nH]2)CC1

>  <Name>  (192) 
nan

>  <Pocket>  (192) 
nan

>  <ATP_Site>  (192) 
nan

>  <Peripheral>  (192) 
nan

>  <Num_H_Atoms_ProtBoundConf>  (192) 
nan

>  <Num_Resolved_Atoms>  (192) 
nan

>  <Num_Not_Resolved_Atoms>  (192) 
nan

$$$$
CHEMBL191248
     RDKit          3D

  0  0  0  0  0  0  0  0  0  0999 V3000
M  V30 BEGIN CTAB
M  V30 COUNTS 49 52 0 0 0
M  V30 BEGIN ATOM
M  V30 1 C -0.233421 -4.161616 1.789361 0
M  V30 2 O 0.130630 -3.098109 0.969482 0
M  V30 3 C 1.334313 -2.486915 0.815258 0
M  V30 4 C 2.566695 -2.695872 1.362573 0
M  V30 5 C 3.650013 -1.908767 1.036483 0
M  V30 6 C 3.530898 -0.871721 0.136880 0
M  V30 7 O 4.568976 -0.027710 -0.246271 0
M  V30 8 C 5.864449 -0.264459 0.332192 0
M  V30 9 C 2.335782 -0.581398 -0.471578 0
M  V30 10 C 1.888506 0.568640 -1.319707 0
M  V30 11 N 0.741320 1.199099 -0.639004 0
M  V30 12 C 0.587968 1.700809 0.666776 0
M  V30 13 N 1.535870 2.446138 1.217395 0
M  V30 14 N 1.095319 2.718066 2.433522 0
M  V30 15 C -0.098557 2.155066 2.634214 0
M  V30 16 C -0.885879 2.194124 3.753649 0
M  V30 17 C -2.090296 1.531917 3.737973 0
M  V30 18 C -2.440790 0.856977 2.589222 0
M  V30 19 C -1.688549 0.768592 1.406410 0
M  V30 20 O -1.995647 0.116092 0.269279 0
M  V30 21 C -3.055824 -0.607076 -0.138896 0
M  V30 22 C -4.411345 -0.536303 -0.021620 0
M  V30 23 C -5.360228 -1.413808 -0.535245 0
M  V30 24 C -4.837939 -2.496504 -1.255979 0
M  V30 25 F -5.801115 -3.339712 -1.755549 0
M  V30 26 C -3.475380 -2.628631 -1.411823 0
M  V30 27 C -2.562429 -1.708214 -0.869661 0
M  V30 28 C -0.506841 1.465459 1.518872 0
M  V30 29 C 1.277908 -1.415538 -0.098957 0
M  V30 30 H -0.051088 -5.143611 1.319755 0
M  V30 31 H -1.331004 -4.025780 2.029922 0
M  V30 32 H 0.241662 -4.096549 2.812142 0
M  V30 33 H 2.597602 -3.523640 2.051212 0
M  V30 34 H 4.613588 -2.091515 1.482593 0
M  V30 35 H 6.111353 -1.328812 0.032695 0
M  V30 36 H 6.623610 0.435322 -0.007122 0
M  V30 37 H 5.739130 -0.273055 1.419420 0
M  V30 38 H 1.730077 0.276535 -2.339728 0
M  V30 39 H 2.769825 1.278487 -1.288496 0
M  V30 40 H -0.131363 1.299703 -1.237513 0
M  V30 41 H 2.437463 2.767562 0.817564 0
M  V30 42 H -0.606097 2.723487 4.649501 0
M  V30 43 H -2.717236 1.563056 4.616630 0
M  V30 44 H -3.399724 0.313871 2.568518 0
M  V30 45 H -4.695607 0.350824 0.563388 0
M  V30 46 H -6.401564 -1.244088 -0.369089 0
M  V30 47 H -3.310900 -3.541221 -1.999072 0
M  V30 48 H -1.613023 -2.147498 -1.202060 0
M  V30 49 H 0.321792 -1.179154 -0.579910 0
M  V30 END ATOM
M  V30 BEGIN BOND
M  V30 1 1 1 2
M  V30 2 1 2 3
M  V30 3 2 3 4
M  V30 4 1 4 5
M  V30 5 2 5 6
M  V30 6 1 6 7
M  V30 7 1 7 8
M  V30 8 1 6 9
M  V30 9 1 9 10
M  V30 10 1 10 11
M  V30 11 1 11 12
M  V30 12 1 12 13
M  V30 13 1 13 14
M  V30 14 2 14 15
M  V30 15 1 15 16
M  V30 16 2 16 17
M  V30 17 1 17 18
M  V30 18 2 18 19
M  V30 19 1 19 20
M  V30 20 1 20 21
M  V30 21 2 21 22
M  V30 22 1 22 23
M  V30 23 2 23 24
M  V30 24 1 24 25
M  V30 25 1 24 26
M  V30 26 2 26 27
M  V30 27 1 19 28
M  V30 28 2 9 29
M  V30 29 1 29 3
M  V30 30 2 28 12
M  V30 31 1 28 15
M  V30 32 1 27 21
M  V30 33 1 1 30
M  V30 34 1 1 31
M  V30 35 1 1 32
M  V30 36 1 4 33
M  V30 37 1 5 34
M  V30 38 1 8 35
M  V30 39 1 8 36
M  V30 40 1 8 37
M  V30 41 1 10 38
M  V30 42 1 10 39
M  V30 43 1 11 40
M  V30 44 1 13 41
M  V30 45 1 16 42
M  V30 46 1 17 43
M  V30 47 1 18 44
M  V30 48 1 22 45
M  V30 49 1 23 46
M  V30 50 1 26 47
M  V30 51 1 27 48
M  V30 52 1 29 49
M  V30 END BOND
M  V30 END CTAB
M  END
>  <Dataset>  (193) 
ChEMBL_Kinases

>  <Ligand_Instance>  (193) 
nan

>  <PDB_ID>  (193) 
nan

>  <Standardized_SMILES>  (193) 
COc1ccc(OC)c(CNc2[nH]nc3cccc(Oc4ccc(F)cc4)c23)c1

>  <Name>  (193) 
nan

>  <Pocket>  (193) 
nan

>  <ATP_Site>  (193) 
nan

>  <Peripheral>  (193) 
nan

>  <Num_H_Atoms_ProtBoundConf>  (193) 
nan

>  <Num_Resolved_Atoms>  (193) 
nan

>  <Num_Not_Resolved_Atoms>  (193) 
nan

$$$$
CHEMBL191204
     RDKit          3D

  0  0  0  0  0  0  0  0  0  0999 V3000
M  V30 BEGIN CTAB
M  V30 COUNTS 30 32 0 0 0
M  V30 BEGIN ATOM
M  V30 1 N -1.622903 -1.801012 4.093396 0
M  V30 2 C -1.166564 -1.342857 3.118073 0
M  V30 3 C -0.578188 -0.774075 1.917747 0
M  V30 4 C 0.720274 -0.865744 1.713886 0
M  V30 5 N 1.517123 -0.400694 0.637730 0
M  V30 6 C 2.889484 -0.622221 0.751642 0
M  V30 7 C 3.840857 -0.235196 -0.178214 0
M  V30 8 C 5.186019 -0.521177 0.096068 0
M  V30 9 C 5.526467 -1.168381 1.258902 0
M  V30 10 C 4.588005 -1.566311 2.205155 0
M  V30 11 C 3.305923 -1.268560 1.897068 0
M  V30 12 S 1.845654 -1.648975 2.863656 0
M  V30 13 C -1.460101 -0.081905 0.988767 0
M  V30 14 C -1.365235 1.146332 0.351560 0
M  V30 15 C -2.361918 1.545604 -0.515788 0
M  V30 16 N -3.421790 0.749114 -0.743916 0
M  V30 17 C -3.518021 -0.437255 -0.130847 0
M  V30 18 N -4.665378 -1.272516 -0.405856 0
M  V30 19 N -4.727880 -2.508121 0.297712 0
M  V30 20 N -2.558886 -0.825932 0.706649 0
M  V30 21 H 1.014362 0.060480 -0.155394 0
M  V30 22 H 3.649451 0.273083 -1.113271 0
M  V30 23 H 5.980871 -0.248340 -0.583671 0
M  V30 24 H 6.585820 -1.380442 1.456050 0
M  V30 25 H 4.921043 -2.066618 3.095833 0
M  V30 26 H -0.471378 1.680329 0.637291 0
M  V30 27 H -2.136128 2.522671 -0.927316 0
M  V30 28 H -5.385095 -0.960245 -1.089970 0
M  V30 29 H -3.795085 -2.755690 0.667663 0
M  V30 30 H -5.133927 -3.242487 -0.327700 0
M  V30 END ATOM
M  V30 BEGIN BOND
M  V30 1 3 1 2
M  V30 2 1 2 3
M  V30 3 2 3 4
M  V30 4 1 4 5
M  V30 5 1 5 6
M  V30 6 2 6 7
M  V30 7 1 7 8
M  V30 8 2 8 9
M  V30 9 1 9 10
M  V30 10 2 10 11
M  V30 11 1 11 12
M  V30 12 1 3 13
M  V30 13 2 13 14
M  V30 14 1 14 15
M  V30 15 2 15 16
M  V30 16 1 16 17
M  V30 17 1 17 18
M  V30 18 1 18 19
M  V30 19 2 17 20
M  V30 20 1 12 4
M  V30 21 1 20 13
M  V30 22 1 11 6
M  V30 23 1 5 21
M  V30 24 1 7 22
M  V30 25 1 8 23
M  V30 26 1 9 24
M  V30 27 1 10 25
M  V30 28 1 14 26
M  V30 29 1 15 27
M  V30 30 1 18 28
M  V30 31 1 19 29
M  V30 32 1 19 30
M  V30 END BOND
M  V30 END CTAB
M  END
>  <Dataset>  (194) 
ChEMBL_Kinases

>  <Ligand_Instance>  (194) 
nan

>  <PDB_ID>  (194) 
nan

>  <Standardized_SMILES>  (194) 
N#C/C(=C1/Nc2ccccc2S1)c1ccnc(NN)n1

>  <Name>  (194) 
nan

>  <Pocket>  (194) 
nan

>  <ATP_Site>  (194) 
nan

>  <Peripheral>  (194) 
nan

>  <Num_H_Atoms_ProtBoundConf>  (194) 
nan

>  <Num_Resolved_Atoms>  (194) 
nan

>  <Num_Not_Resolved_Atoms>  (194) 
nan

$$$$
CHEMBL1933280
     RDKit          3D

  0  0  0  0  0  0  0  0  0  0999 V3000
M  V30 BEGIN CTAB
M  V30 COUNTS 50 54 0 0 0
M  V30 BEGIN ATOM
M  V30 1 C 2.668148 -5.029634 2.262300 0
M  V30 2 C 1.315353 -4.467459 1.936134 0
M  V30 3 N 1.029267 -4.509484 0.516812 0
M  V30 4 C 1.346308 -3.494610 -0.343787 0
M  V30 5 N 1.994993 -2.223462 -0.102930 0
M  V30 6 C 0.939579 -1.284732 0.185614 0
M  V30 7 O -0.199903 -1.810818 0.147803 0
M  V30 8 C 1.198475 0.118014 0.484607 0
M  V30 9 C 2.439781 0.712751 0.572423 0
M  V30 10 C 2.574849 2.076351 0.864652 0
M  V30 11 C 1.409902 2.826375 1.066332 0
M  V30 12 C 1.295094 4.190660 1.364120 0
M  V30 13 C -0.060550 4.357309 1.443577 0
M  V30 14 N -0.758109 3.235833 1.224728 0
M  V30 15 C 0.139047 2.259412 0.985282 0
M  V30 16 C 0.110192 0.924016 0.696201 0
M  V30 17 C -2.188561 2.983724 1.214475 0
M  V30 18 C -2.911160 4.035021 0.411295 0
M  V30 19 C -3.154268 5.307582 1.150964 0
M  V30 20 N -1.998049 6.104703 1.411995 0
M  V30 21 C -0.668005 5.648577 1.739516 0
M  V30 22 O 0.016331 6.504904 2.357131 0
M  V30 23 N 0.967973 -3.783419 -1.609038 0
M  V30 24 C 0.388154 -5.011962 -1.594640 0
M  V30 25 C -0.201552 -5.908232 -2.455110 0
M  V30 26 C -0.712493 -7.130106 -2.096735 0
M  V30 27 C -0.651721 -7.540586 -0.760709 0
M  V30 28 C -0.060594 -6.639683 0.097175 0
M  V30 29 C 0.447896 -5.415824 -0.278880 0
M  V30 30 H 3.253708 -4.310360 2.881398 0
M  V30 31 H 2.525087 -5.914426 2.928875 0
M  V30 32 H 3.226996 -5.372257 1.358291 0
M  V30 33 H 0.494777 -5.057780 2.443758 0
M  V30 34 H 1.284442 -3.408910 2.258835 0
M  V30 35 H 2.978077 -1.892130 -0.098996 0
M  V30 36 H 3.286272 0.060289 0.401215 0
M  V30 37 H 3.555407 2.507950 0.925374 0
M  V30 38 H 2.033499 4.956447 1.505321 0
M  V30 39 H -0.890537 0.508177 0.639136 0
M  V30 40 H -2.529531 3.136216 2.275138 0
M  V30 41 H -2.428628 1.960760 0.922332 0
M  V30 42 H -2.475387 4.196935 -0.573137 0
M  V30 43 H -3.932631 3.598707 0.212532 0
M  V30 44 H -3.830468 5.920524 0.489040 0
M  V30 45 H -3.749773 5.138793 2.064900 0
M  V30 46 H -2.117664 7.144483 1.362737 0
M  V30 47 H -0.249006 -5.583683 -3.504824 0
M  V30 48 H -1.164745 -7.791042 -2.821936 0
M  V30 49 H -1.062512 -8.495168 -0.535085 0
M  V30 50 H -0.022237 -6.980180 1.143055 0
M  V30 END ATOM
M  V30 BEGIN BOND
M  V30 1 1 1 2
M  V30 2 1 2 3
M  V30 3 1 3 4
M  V30 4 1 4 5
M  V30 5 1 5 6
M  V30 6 2 6 7
M  V30 7 1 6 8
M  V30 8 2 8 9
M  V30 9 1 9 10
M  V30 10 2 10 11
M  V30 11 1 11 12
M  V30 12 2 12 13
M  V30 13 1 13 14
M  V30 14 1 14 15
M  V30 15 2 15 16
M  V30 16 1 14 17
M  V30 17 1 17 18
M  V30 18 1 18 19
M  V30 19 1 19 20
M  V30 20 1 20 21
M  V30 21 2 21 22
M  V30 22 2 4 23
M  V30 23 1 23 24
M  V30 24 2 24 25
M  V30 25 1 25 26
M  V30 26 2 26 27
M  V30 27 1 27 28
M  V30 28 2 28 29
M  V30 29 1 29 3
M  V30 30 1 16 8
M  V30 31 1 29 24
M  V30 32 1 15 11
M  V30 33 1 21 13
M  V30 34 1 1 30
M  V30 35 1 1 31
M  V30 36 1 1 32
M  V30 37 1 2 33
M  V30 38 1 2 34
M  V30 39 1 5 35
M  V30 40 1 9 36
M  V30 41 1 10 37
M  V30 42 1 12 38
M  V30 43 1 16 39
M  V30 44 1 17 40
M  V30 45 1 17 41
M  V30 46 1 18 42
M  V30 47 1 18 43
M  V30 48 1 19 44
M  V30 49 1 19 45
M  V30 50 1 20 46
M  V30 51 1 25 47
M  V30 52 1 26 48
M  V30 53 1 27 49
M  V30 54 1 28 50
M  V30 END BOND
M  V30 END CTAB
M  END
>  <Dataset>  (195) 
ChEMBL_Kinases

>  <Ligand_Instance>  (195) 
nan

>  <PDB_ID>  (195) 
nan

>  <Standardized_SMILES>  (195) 
CCn1c(NC(=O)c2ccc3cc4n(c3c2)CCCNC4=O)nc2ccccc21

>  <Name>  (195) 
nan

>  <Pocket>  (195) 
nan

>  <ATP_Site>  (195) 
nan

>  <Peripheral>  (195) 
nan

>  <Num_H_Atoms_ProtBoundConf>  (195) 
nan

>  <Num_Resolved_Atoms>  (195) 
nan

>  <Num_Not_Resolved_Atoms>  (195) 
nan

$$$$
CHEMBL1911196
     RDKit          3D

  0  0  0  0  0  0  0  0  0  0999 V3000
M  V30 BEGIN CTAB
M  V30 COUNTS 51 55 0 0 0
M  V30 BEGIN ATOM
M  V30 1 C 3.258003 -6.605799 1.814446 0
M  V30 2 C 3.922182 -5.304321 1.490487 0
M  V30 3 N 5.242711 -5.009304 1.404510 0
M  V30 4 C 5.382458 -3.698500 1.083871 0
M  V30 5 C 4.100210 -3.207219 0.977994 0
M  V30 6 C 3.820123 -1.807551 0.640160 0
M  V30 7 C 4.813305 -0.873416 0.402160 0
M  V30 8 C 4.476328 0.425212 0.089502 0
M  V30 9 C 3.158982 0.795201 0.013369 0
M  V30 10 C 2.800503 2.212387 -0.325861 0
M  V30 11 C 2.119346 -0.074194 0.236024 0
M  V30 12 C 0.697276 0.246636 0.170798 0
M  V30 13 C -0.003012 0.958877 -0.775776 0
M  V30 14 C -1.359273 1.140625 -0.629184 0
M  V30 15 C -2.043711 0.623571 0.451035 0
M  V30 16 C -1.357677 -0.096843 1.415708 0
M  V30 17 C -0.001619 -0.273414 1.260688 0
M  V30 18 N -2.336329 -0.488792 2.385938 0
M  V30 19 C -3.636002 -0.000755 2.007495 0
M  V30 20 O -4.646432 -0.239233 2.734402 0
M  V30 21 C -3.498632 0.750708 0.720405 0
M  V30 22 C -3.916780 2.157769 0.998593 0
M  V30 23 C -5.417951 2.251023 0.823507 0
M  V30 24 O -6.056436 1.022908 0.900317 0
M  V30 25 C -5.752325 0.212903 -0.182876 0
M  V30 26 C -4.275103 0.108429 -0.396676 0
M  V30 27 C 2.517770 -1.360017 0.544948 0
M  V30 28 N 3.205020 -4.191212 1.227160 0
M  V30 29 H 2.815518 -6.510387 2.843646 0
M  V30 30 H 3.976927 -7.438001 1.842320 0
M  V30 31 H 2.414460 -6.718464 1.130334 0
M  V30 32 H 6.365682 -3.254689 0.965264 0
M  V30 33 H 5.851317 -1.184993 0.467039 0
M  V30 34 H 5.240105 1.178869 -0.102118 0
M  V30 35 H 2.796965 2.288686 -1.428092 0
M  V30 36 H 3.626140 2.876211 0.035953 0
M  V30 37 H 1.838776 2.458591 0.139687 0
M  V30 38 H 0.611509 1.317068 -1.572439 0
M  V30 39 H -1.819000 1.722041 -1.438688 0
M  V30 40 H 0.436131 -0.850969 2.071018 0
M  V30 41 H -2.104839 -1.059259 3.252540 0
M  V30 42 H -3.404475 2.920850 0.375287 0
M  V30 43 H -3.675066 2.436347 2.062738 0
M  V30 44 H -5.627610 2.755175 -0.143327 0
M  V30 45 H -5.834102 2.919964 1.607525 0
M  V30 46 H -6.237379 -0.777965 -0.006851 0
M  V30 47 H -6.221662 0.725069 -1.072135 0
M  V30 48 H -3.934505 0.576581 -1.339058 0
M  V30 49 H -3.996657 -0.980880 -0.399064 0
M  V30 50 H 1.745980 -2.108547 0.735420 0
M  V30 51 H 2.170549 -4.093681 1.214517 0
M  V30 END ATOM
M  V30 BEGIN BOND
M  V30 1 1 1 2
M  V30 2 2 2 3
M  V30 3 1 3 4
M  V30 4 2 4 5
M  V30 5 1 5 6
M  V30 6 2 6 7
M  V30 7 1 7 8
M  V30 8 2 8 9
M  V30 9 1 9 10
M  V30 10 1 9 11
M  V30 11 1 11 12
M  V30 12 2 12 13
M  V30 13 1 13 14
M  V30 14 2 14 15
M  V30 15 1 15 16
M  V30 16 2 16 17
M  V30 17 1 16 18
M  V30 18 1 18 19
M  V30 19 2 19 20
M  V30 20 1 19 21
M  V30 21 1 21 22
M  V30 22 1 22 23
M  V30 23 1 23 24
M  V30 24 1 24 25
M  V30 25 1 25 26
M  V30 26 2 11 27
M  V30 27 1 5 28
M  V30 28 1 28 2
M  V30 29 1 27 6
M  V30 30 1 17 12
M  V30 31 1 26 21
M  V30 32 1 21 15
M  V30 33 1 1 29
M  V30 34 1 1 30
M  V30 35 1 1 31
M  V30 36 1 4 32
M  V30 37 1 7 33
M  V30 38 1 8 34
M  V30 39 1 10 35
M  V30 40 1 10 36
M  V30 41 1 10 37
M  V30 42 1 13 38
M  V30 43 1 14 39
M  V30 44 1 17 40
M  V30 45 1 18 41
M  V30 46 1 22 42
M  V30 47 1 22 43
M  V30 48 1 23 44
M  V30 49 1 23 45
M  V30 50 1 25 46
M  V30 51 1 25 47
M  V30 52 1 26 48
M  V30 53 1 26 49
M  V30 54 1 27 50
M  V30 55 1 28 51
M  V30 END BOND
M  V30 END CTAB
M  END
>  <Dataset>  (196) 
ChEMBL_Kinases

>  <Ligand_Instance>  (196) 
nan

>  <PDB_ID>  (196) 
nan

>  <Standardized_SMILES>  (196) 
Cc1ncc(-c2ccc(C)c(-c3ccc4c(c3)NC(=O)C43CCOCC3)c2)[nH]1

>  <Name>  (196) 
nan

>  <Pocket>  (196) 
nan

>  <ATP_Site>  (196) 
nan

>  <Peripheral>  (196) 
nan

>  <Num_H_Atoms_ProtBoundConf>  (196) 
nan

>  <Num_Resolved_Atoms>  (196) 
nan

>  <Num_Not_Resolved_Atoms>  (196) 
nan

$$$$
CHEMBL1911197
     RDKit          3D

  0  0  0  0  0  0  0  0  0  0999 V3000
M  V30 BEGIN CTAB
M  V30 COUNTS 46 50 0 0 0
M  V30 BEGIN ATOM
M  V30 1 C 2.422261 -2.371170 2.834881 0
M  V30 2 C 2.961375 -1.633490 1.687631 0
M  V30 3 C 4.328157 -1.774187 1.439476 0
M  V30 4 C 4.913095 -1.128734 0.399524 0
M  V30 5 C 4.185620 -0.315652 -0.445185 0
M  V30 6 C 4.848069 0.364210 -1.555277 0
M  V30 7 N 4.318582 1.174095 -2.458799 0
M  V30 8 C 5.325109 1.548449 -3.273937 0
M  V30 9 N 6.464454 0.967187 -2.866692 0
M  V30 10 N 6.173075 0.238654 -1.810054 0
M  V30 11 C 2.826586 -0.151239 -0.230880 0
M  V30 12 C 2.223873 -0.817240 0.841920 0
M  V30 13 C 0.806603 -0.675571 1.105009 0
M  V30 14 C -0.038678 -0.764658 0.010517 0
M  V30 15 C -1.410061 -0.647415 0.121772 0
M  V30 16 C -2.014456 -0.431587 1.354046 0
M  V30 17 C -1.151100 -0.346681 2.428069 0
M  V30 18 C 0.222996 -0.461672 2.334521 0
M  V30 19 N -1.891551 -0.122692 3.646352 0
M  V30 20 C -3.266020 -0.071481 3.279979 0
M  V30 21 O -4.222394 0.111537 4.087195 0
M  V30 22 C -3.398681 -0.265174 1.813103 0
M  V30 23 C -4.271601 -1.461292 1.486705 0
M  V30 24 C -4.781955 -1.147656 0.097801 0
M  V30 25 C -4.790138 0.346390 -0.040956 0
M  V30 26 C -4.156074 0.862622 1.209619 0
M  V30 27 H 2.980288 -3.351629 2.922088 0
M  V30 28 H 2.653531 -1.872270 3.800168 0
M  V30 29 H 1.368535 -2.699111 2.733318 0
M  V30 30 H 4.939773 -2.412316 2.089465 0
M  V30 31 H 5.994135 -1.278839 0.254640 0
M  V30 32 H 5.087382 2.228615 -4.098492 0
M  V30 33 H 6.911513 -0.325471 -1.298131 0
M  V30 34 H 2.246727 0.485128 -0.888687 0
M  V30 35 H 0.372456 -0.934940 -0.997106 0
M  V30 36 H -2.009133 -0.727516 -0.776139 0
M  V30 37 H 0.870347 -0.393259 3.173575 0
M  V30 38 H -1.547292 -0.012383 4.625665 0
M  V30 39 H -3.717920 -2.409391 1.428173 0
M  V30 40 H -5.104751 -1.479440 2.215691 0
M  V30 41 H -4.211786 -1.677837 -0.686228 0
M  V30 42 H -5.832061 -1.536516 -0.004844 0
M  V30 43 H -5.853599 0.716902 -0.119843 0
M  V30 44 H -4.303777 0.697507 -0.975287 0
M  V30 45 H -4.990943 1.107921 1.926477 0
M  V30 46 H -3.592276 1.802825 1.067059 0
M  V30 END ATOM
M  V30 BEGIN BOND
M  V30 1 1 1 2
M  V30 2 2 2 3
M  V30 3 1 3 4
M  V30 4 2 4 5
M  V30 5 1 5 6
M  V30 6 2 6 7
M  V30 7 1 7 8
M  V30 8 2 8 9
M  V30 9 1 9 10
M  V30 10 1 5 11
M  V30 11 2 11 12
M  V30 12 1 12 13
M  V30 13 2 13 14
M  V30 14 1 14 15
M  V30 15 2 15 16
M  V30 16 1 16 17
M  V30 17 2 17 18
M  V30 18 1 17 19
M  V30 19 1 19 20
M  V30 20 2 20 21
M  V30 21 1 20 22
M  V30 22 1 22 23
M  V30 23 1 23 24
M  V30 24 1 24 25
M  V30 25 1 25 26
M  V30 26 1 12 2
M  V30 27 1 18 13
M  V30 28 1 26 22
M  V30 29 1 10 6
M  V30 30 1 22 16
M  V30 31 1 1 27
M  V30 32 1 1 28
M  V30 33 1 1 29
M  V30 34 1 3 30
M  V30 35 1 4 31
M  V30 36 1 8 32
M  V30 37 1 10 33
M  V30 38 1 11 34
M  V30 39 1 14 35
M  V30 40 1 15 36
M  V30 41 1 18 37
M  V30 42 1 19 38
M  V30 43 1 23 39
M  V30 44 1 23 40
M  V30 45 1 24 41
M  V30 46 1 24 42
M  V30 47 1 25 43
M  V30 48 1 25 44
M  V30 49 1 26 45
M  V30 50 1 26 46
M  V30 END BOND
M  V30 END CTAB
M  END
>  <Dataset>  (197) 
ChEMBL_Kinases

>  <Ligand_Instance>  (197) 
nan

>  <PDB_ID>  (197) 
nan

>  <Standardized_SMILES>  (197) 
Cc1ccc(-c2ncn[nH]2)cc1-c1ccc2c(c1)NC(=O)C21CCCC1

>  <Name>  (197) 
nan

>  <Pocket>  (197) 
nan

>  <ATP_Site>  (197) 
nan

>  <Peripheral>  (197) 
nan

>  <Num_H_Atoms_ProtBoundConf>  (197) 
nan

>  <Num_Resolved_Atoms>  (197) 
nan

>  <Num_Not_Resolved_Atoms>  (197) 
nan

$$$$
CHEMBL1911198
     RDKit          3D

  0  0  0  0  0  0  0  0  0  0999 V3000
M  V30 BEGIN CTAB
M  V30 COUNTS 53 58 0 0 0
M  V30 BEGIN ATOM
M  V30 1 C -1.297292 -1.866470 4.386053 0
M  V30 2 C -0.205356 -0.986147 3.961096 0
M  V30 3 C 0.632350 -0.346565 4.848970 0
M  V30 4 C 1.639576 0.469289 4.379511 0
M  V30 5 C 1.840176 0.669918 3.034725 0
M  V30 6 C 2.905435 1.533029 2.531873 0
M  V30 7 N 3.771454 2.198033 3.327197 0
M  V30 8 N 4.632052 2.905537 2.586099 0
M  V30 9 C 4.324674 2.700330 1.291576 0
M  V30 10 C 5.037330 3.302799 0.134523 0
M  V30 11 C 6.451944 3.726437 0.265786 0
M  V30 12 C 5.402166 4.784653 0.317755 0
M  V30 13 N 3.272210 1.862997 1.282065 0
M  V30 14 C 0.985353 0.015731 2.178532 0
M  V30 15 C -0.048666 -0.820028 2.600356 0
M  V30 16 C -0.848393 -1.425669 1.537702 0
M  V30 17 C -1.232392 -2.750233 1.470171 0
M  V30 18 C -1.992006 -3.181472 0.401872 0
M  V30 19 C -2.408484 -2.376039 -0.628817 0
M  V30 20 C -2.014377 -1.042761 -0.548339 0
M  V30 21 C -1.251690 -0.567711 0.506329 0
M  V30 22 N -2.500802 -0.302652 -1.664065 0
M  V30 23 C -3.219247 -1.254697 -2.440423 0
M  V30 24 O -3.830511 -1.094728 -3.511686 0
M  V30 25 C -3.214560 -2.626113 -1.852058 0
M  V30 26 C -4.581597 -3.128774 -1.548349 0
M  V30 27 C -4.726152 -4.379641 -2.418307 0
M  V30 28 C -3.284298 -4.872923 -2.535553 0
M  V30 29 C -2.547314 -3.582388 -2.812297 0
M  V30 30 H -1.713358 -1.488178 5.366208 0
M  V30 31 H -2.147148 -1.882147 3.668873 0
M  V30 32 H -0.967391 -2.899495 4.621618 0
M  V30 33 H 0.478507 -0.501213 5.905952 0
M  V30 34 H 2.319879 0.989700 5.067493 0
M  V30 35 H 4.637574 3.015239 -0.862676 0
M  V30 36 H 6.984528 3.434837 1.213214 0
M  V30 37 H 7.050280 3.734068 -0.681322 0
M  V30 38 H 5.255203 5.450925 -0.543256 0
M  V30 39 H 5.257564 5.227561 1.338927 0
M  V30 40 H 2.791157 1.505951 0.433221 0
M  V30 41 H 1.163788 0.190124 1.115440 0
M  V30 42 H -0.908717 -3.389509 2.275478 0
M  V30 43 H -2.229337 -4.230058 0.459134 0
M  V30 44 H -0.955526 0.492495 0.541867 0
M  V30 45 H -2.394500 0.699587 -1.916264 0
M  V30 46 H -5.385911 -2.397168 -1.725351 0
M  V30 47 H -4.649112 -3.491710 -0.485535 0
M  V30 48 H -5.386782 -5.133312 -1.955898 0
M  V30 49 H -5.032207 -4.064126 -3.427129 0
M  V30 50 H -2.892371 -5.281163 -1.587158 0
M  V30 51 H -3.188162 -5.597087 -3.370678 0
M  V30 52 H -2.732649 -3.289644 -3.858012 0
M  V30 53 H -1.460825 -3.673397 -2.608840 0
M  V30 END ATOM
M  V30 BEGIN BOND
M  V30 1 1 1 2
M  V30 2 2 2 3
M  V30 3 1 3 4
M  V30 4 2 4 5
M  V30 5 1 5 6
M  V30 6 2 6 7
M  V30 7 1 7 8
M  V30 8 2 8 9
M  V30 9 1 9 10
M  V30 10 1 10 11
M  V30 11 1 11 12
M  V30 12 1 9 13
M  V30 13 1 5 14
M  V30 14 2 14 15
M  V30 15 1 15 16
M  V30 16 2 16 17
M  V30 17 1 17 18
M  V30 18 2 18 19
M  V30 19 1 19 20
M  V30 20 2 20 21
M  V30 21 1 20 22
M  V30 22 1 22 23
M  V30 23 2 23 24
M  V30 24 1 23 25
M  V30 25 1 25 26
M  V30 26 1 26 27
M  V30 27 1 27 28
M  V30 28 1 28 29
M  V30 29 1 15 2
M  V30 30 1 21 16
M  V30 31 1 29 25
M  V30 32 1 13 6
M  V30 33 1 25 19
M  V30 34 1 12 10
M  V30 35 1 1 30
M  V30 36 1 1 31
M  V30 37 1 1 32
M  V30 38 1 3 33
M  V30 39 1 4 34
M  V30 40 1 10 35
M  V30 41 1 11 36
M  V30 42 1 11 37
M  V30 43 1 12 38
M  V30 44 1 12 39
M  V30 45 1 13 40
M  V30 46 1 14 41
M  V30 47 1 17 42
M  V30 48 1 18 43
M  V30 49 1 21 44
M  V30 50 1 22 45
M  V30 51 1 26 46
M  V30 52 1 26 47
M  V30 53 1 27 48
M  V30 54 1 27 49
M  V30 55 1 28 50
M  V30 56 1 28 51
M  V30 57 1 29 52
M  V30 58 1 29 53
M  V30 END BOND
M  V30 END CTAB
M  END
>  <Dataset>  (198) 
ChEMBL_Kinases

>  <Ligand_Instance>  (198) 
nan

>  <PDB_ID>  (198) 
nan

>  <Standardized_SMILES>  (198) 
Cc1ccc(-c2nnc(C3CC3)[nH]2)cc1-c1ccc2c(c1)NC(=O)C21CCCC1

>  <Name>  (198) 
nan

>  <Pocket>  (198) 
nan

>  <ATP_Site>  (198) 
nan

>  <Peripheral>  (198) 
nan

>  <Num_H_Atoms_ProtBoundConf>  (198) 
nan

>  <Num_Resolved_Atoms>  (198) 
nan

>  <Num_Not_Resolved_Atoms>  (198) 
nan

$$$$
CHEMBL1911331
     RDKit          3D

  0  0  0  0  0  0  0  0  0  0999 V3000
M  V30 BEGIN CTAB
M  V30 COUNTS 45 48 0 0 0
M  V30 BEGIN ATOM
M  V30 1 C 0.784012 -7.027284 0.941852 0
M  V30 2 C 0.931575 -6.018371 -0.130685 0
M  V30 3 N 1.180533 -6.354742 -1.412828 0
M  V30 4 N 1.248748 -5.208830 -2.084358 0
M  V30 5 C 1.050683 -4.174101 -1.262721 0
M  V30 6 C 1.051820 -2.745391 -1.638405 0
M  V30 7 C 1.267025 -2.318159 -2.932517 0
M  V30 8 C 1.251858 -0.964468 -3.199521 0
M  V30 9 C 1.025038 -0.054854 -2.187534 0
M  V30 10 C 1.017586 1.376843 -2.546978 0
M  V30 11 C 0.804876 -0.428850 -0.878929 0
M  V30 12 C 0.566003 0.497106 0.223851 0
M  V30 13 C 1.231057 1.649760 0.582372 0
M  V30 14 C 0.810946 2.371333 1.679078 0
M  V30 15 C -0.271000 1.945861 2.419285 0
M  V30 16 C -0.967590 0.788453 2.089584 0
M  V30 17 C -0.531285 0.072031 0.980555 0
M  V30 18 N -2.016920 0.639421 3.048182 0
M  V30 19 C -1.995713 1.700564 3.994558 0
M  V30 20 O -2.780305 1.848210 4.947850 0
M  V30 21 C -0.857991 2.590489 3.619840 0
M  V30 22 C -1.409445 3.961374 3.357039 0
M  V30 23 C 0.104692 2.613739 4.778232 0
M  V30 24 C 0.829623 -1.796660 -0.661499 0
M  V30 25 N 0.846100 -4.673205 -0.008538 0
M  V30 26 H 0.127648 -6.616232 1.720936 0
M  V30 27 H 0.440747 -8.002220 0.550705 0
M  V30 28 H 1.796947 -7.195391 1.406642 0
M  V30 29 H 1.442134 -3.054624 -3.704887 0
M  V30 30 H 1.422970 -0.648323 -4.222432 0
M  V30 31 H 0.402989 1.911493 -1.794196 0
M  V30 32 H 0.633941 1.531504 -3.579586 0
M  V30 33 H 2.072504 1.747620 -2.452683 0
M  V30 34 H 2.054216 1.872902 -0.067495 0
M  V30 35 H 1.388674 3.261860 1.889192 0
M  V30 36 H -1.139045 -0.810577 0.809009 0
M  V30 37 H -2.710765 -0.141749 3.059008 0
M  V30 38 H -0.626509 4.737452 3.253742 0
M  V30 39 H -2.002713 4.246927 4.249887 0
M  V30 40 H -2.103566 3.928766 2.508354 0
M  V30 41 H 0.368769 3.659081 5.077447 0
M  V30 42 H 1.048081 2.111922 4.425841 0
M  V30 43 H -0.281150 2.058482 5.645964 0
M  V30 44 H 0.660361 -2.140000 0.358221 0
M  V30 45 H 0.660673 -4.122165 0.868712 0
M  V30 END ATOM
M  V30 BEGIN BOND
M  V30 1 1 1 2
M  V30 2 2 2 3
M  V30 3 1 3 4
M  V30 4 2 4 5
M  V30 5 1 5 6
M  V30 6 2 6 7
M  V30 7 1 7 8
M  V30 8 2 8 9
M  V30 9 1 9 10
M  V30 10 1 9 11
M  V30 11 1 11 12
M  V30 12 2 12 13
M  V30 13 1 13 14
M  V30 14 2 14 15
M  V30 15 1 15 16
M  V30 16 2 16 17
M  V30 17 1 16 18
M  V30 18 1 18 19
M  V30 19 2 19 20
M  V30 20 1 19 21
M  V30 21 1 21 22
M  V30 22 1 21 23
M  V30 23 2 11 24
M  V30 24 1 5 25
M  V30 25 1 25 2
M  V30 26 1 24 6
M  V30 27 1 17 12
M  V30 28 1 21 15
M  V30 29 1 1 26
M  V30 30 1 1 27
M  V30 31 1 1 28
M  V30 32 1 7 29
M  V30 33 1 8 30
M  V30 34 1 10 31
M  V30 35 1 10 32
M  V30 36 1 10 33
M  V30 37 1 13 34
M  V30 38 1 14 35
M  V30 39 1 17 36
M  V30 40 1 18 37
M  V30 41 1 22 38
M  V30 42 1 22 39
M  V30 43 1 22 40
M  V30 44 1 23 41
M  V30 45 1 23 42
M  V30 46 1 23 43
M  V30 47 1 24 44
M  V30 48 1 25 45
M  V30 END BOND
M  V30 END CTAB
M  END
>  <Dataset>  (199) 
ChEMBL_Kinases

>  <Ligand_Instance>  (199) 
nan

>  <PDB_ID>  (199) 
nan

>  <Standardized_SMILES>  (199) 
Cc1nnc(-c2ccc(C)c(-c3ccc4c(c3)NC(=O)C4(C)C)c2)[nH]1

>  <Name>  (199) 
nan

>  <Pocket>  (199) 
nan

>  <ATP_Site>  (199) 
nan

>  <Peripheral>  (199) 
nan

>  <Num_H_Atoms_ProtBoundConf>  (199) 
nan

>  <Num_Resolved_Atoms>  (199) 
nan

>  <Num_Not_Resolved_Atoms>  (199) 
nan

$$$$
CHEMBL1911332
     RDKit          3D

  0  0  0  0  0  0  0  0  0  0999 V3000
M  V30 BEGIN CTAB
M  V30 COUNTS 52 56 0 0 0
M  V30 BEGIN ATOM
M  V30 1 C 0.048474 -2.436835 7.717667 0
M  V30 2 C 0.870615 -1.434077 6.979790 0
M  V30 3 N 1.840504 -0.655114 7.519751 0
M  V30 4 N 2.374694 0.124583 6.592892 0
M  V30 5 C 1.770745 -0.125751 5.437201 0
M  V30 6 C 2.069264 0.528553 4.155682 0
M  V30 7 C 3.059409 1.501634 4.087071 0
M  V30 8 C 3.343354 2.119263 2.884053 0
M  V30 9 C 2.642496 1.768738 1.750301 0
M  V30 10 C 2.899026 2.390476 0.427432 0
M  V30 11 C 1.654808 0.807279 1.787018 0
M  V30 12 C 0.833126 0.337251 0.677582 0
M  V30 13 C 0.204800 1.123872 -0.244510 0
M  V30 14 C -0.555878 0.580997 -1.268140 0
M  V30 15 C -0.670958 -0.793689 -1.342674 0
M  V30 16 C -0.060254 -1.641946 -0.441516 0
M  V30 17 C 0.679121 -1.027571 0.548151 0
M  V30 18 N -0.413394 -2.956329 -0.859199 0
M  V30 19 C -1.252083 -2.891216 -2.035174 0
M  V30 20 O -1.563766 -4.057008 -2.423635 0
M  V30 21 C -1.465876 -1.484891 -2.392596 0
M  V30 22 C -2.932688 -1.158260 -2.272253 0
M  V30 23 C -3.678625 -2.105710 -3.177682 0
M  V30 24 C -3.178426 -2.102348 -4.576481 0
M  V30 25 F -3.584755 -3.309073 -5.157001 0
M  V30 26 F -3.816851 -1.067910 -5.244032 0
M  V30 27 C -1.713897 -2.000751 -4.773971 0
M  V30 28 C -1.011272 -1.119279 -3.778530 0
M  V30 29 C 1.383277 0.196580 3.007448 0
M  V30 30 N 0.843046 -1.090111 5.686313 0
M  V30 31 H 0.339249 -3.469027 7.416513 0
M  V30 32 H -1.012122 -2.300038 7.418293 0
M  V30 33 H 0.183948 -2.272283 8.804949 0
M  V30 34 H 3.630550 1.803384 4.954446 0
M  V30 35 H 4.112445 2.877318 2.823335 0
M  V30 36 H 2.651299 1.721686 -0.413525 0
M  V30 37 H 3.988175 2.627773 0.328720 0
M  V30 38 H 2.332059 3.360282 0.397397 0
M  V30 39 H 0.316883 2.188459 -0.152394 0
M  V30 40 H -1.007992 1.296764 -1.941104 0
M  V30 41 H 1.170226 -1.696276 1.272351 0
M  V30 42 H -0.007615 -3.729079 -0.247365 0
M  V30 43 H -3.266942 -1.297768 -1.225732 0
M  V30 44 H -3.115941 -0.092629 -2.541195 0
M  V30 45 H -4.746796 -1.783643 -3.190644 0
M  V30 46 H -3.654536 -3.114482 -2.680325 0
M  V30 47 H -1.528177 -1.532693 -5.776243 0
M  V30 48 H -1.263307 -3.017514 -4.844812 0
M  V30 49 H 0.075990 -1.336977 -3.843671 0
M  V30 50 H -1.275864 -0.074202 -3.960905 0
M  V30 51 H 0.628255 -0.562793 3.120606 0
M  V30 52 H 0.196517 -1.514161 4.994036 0
M  V30 END ATOM
M  V30 BEGIN BOND
M  V30 1 1 1 2
M  V30 2 2 2 3
M  V30 3 1 3 4
M  V30 4 2 4 5
M  V30 5 1 5 6
M  V30 6 2 6 7
M  V30 7 1 7 8
M  V30 8 2 8 9
M  V30 9 1 9 10
M  V30 10 1 9 11
M  V30 11 1 11 12
M  V30 12 2 12 13
M  V30 13 1 13 14
M  V30 14 2 14 15
M  V30 15 1 15 16
M  V30 16 2 16 17
M  V30 17 1 16 18
M  V30 18 1 18 19
M  V30 19 2 19 20
M  V30 20 1 19 21
M  V30 21 1 21 22
M  V30 22 1 22 23
M  V30 23 1 23 24
M  V30 24 1 24 25
M  V30 25 1 24 26
M  V30 26 1 24 27
M  V30 27 1 27 28
M  V30 28 2 11 29
M  V30 29 1 5 30
M  V30 30 1 30 2
M  V30 31 1 29 6
M  V30 32 1 17 12
M  V30 33 1 28 21
M  V30 34 1 21 15
M  V30 35 1 1 31
M  V30 36 1 1 32
M  V30 37 1 1 33
M  V30 38 1 7 34
M  V30 39 1 8 35
M  V30 40 1 10 36
M  V30 41 1 10 37
M  V30 42 1 10 38
M  V30 43 1 13 39
M  V30 44 1 14 40
M  V30 45 1 17 41
M  V30 46 1 18 42
M  V30 47 1 22 43
M  V30 48 1 22 44
M  V30 49 1 23 45
M  V30 50 1 23 46
M  V30 51 1 27 47
M  V30 52 1 27 48
M  V30 53 1 28 49
M  V30 54 1 28 50
M  V30 55 1 29 51
M  V30 56 1 30 52
M  V30 END BOND
M  V30 END CTAB
M  END
>  <Dataset>  (200) 
ChEMBL_Kinases

>  <Ligand_Instance>  (200) 
nan

>  <PDB_ID>  (200) 
nan

>  <Standardized_SMILES>  (200) 
Cc1nnc(-c2ccc(C)c(-c3ccc4c(c3)NC(=O)C43CCC(F)(F)CC3)c2)[nH]1

>  <Name>  (200) 
nan

>  <Pocket>  (200) 
nan

>  <ATP_Site>  (200) 
nan

>  <Peripheral>  (200) 
nan

>  <Num_H_Atoms_ProtBoundConf>  (200) 
nan

>  <Num_Resolved_Atoms>  (200) 
nan

>  <Num_Not_Resolved_Atoms>  (200) 
nan

$$$$
CHEMBL1911333
     RDKit          3D

  0  0  0  0  0  0  0  0  0  0999 V3000
M  V30 BEGIN CTAB
M  V30 COUNTS 57 61 0 0 0
M  V30 BEGIN ATOM
M  V30 1 C 4.528793 -5.232636 3.560046 0
M  V30 2 C 4.907706 -3.850142 3.163854 0
M  V30 3 N 6.080708 -3.226119 3.384010 0
M  V30 4 N 6.050467 -1.995796 2.885115 0
M  V30 5 C 4.859641 -1.786889 2.328261 0
M  V30 6 C 4.398194 -0.569823 1.662887 0
M  V30 7 C 5.221941 0.542040 1.550988 0
M  V30 8 C 4.731176 1.673945 0.907662 0
M  V30 9 C 3.468315 1.714562 0.388668 0
M  V30 10 C 2.910869 2.901023 -0.302690 0
M  V30 11 C 2.620042 0.633568 0.478587 0
M  V30 12 C 1.253441 0.523477 -0.022167 0
M  V30 13 C 0.344627 -0.050885 0.873913 0
M  V30 14 C -1.006388 -0.230165 0.551422 0
M  V30 15 C -1.477694 0.168055 -0.691259 0
M  V30 16 C -0.565726 0.732009 -1.560046 0
M  V30 17 C 0.767879 0.913811 -1.253569 0
M  V30 18 N -1.177597 1.093723 -2.792568 0
M  V30 19 C -2.545390 0.721825 -2.652109 0
M  V30 20 O -3.407067 0.900330 -3.576322 0
M  V30 21 C -2.827527 0.110282 -1.311052 0
M  V30 22 C -3.866674 0.864997 -0.553386 0
M  V30 23 C -4.685275 -0.093432 0.257692 0
M  V30 24 N -5.424916 -1.036882 -0.537246 0
M  V30 25 S -5.810416 -2.452315 0.345797 0
M  V30 26 C -4.392620 -3.343665 0.903334 0
M  V30 27 O -6.638291 -3.368645 -0.492730 0
M  V30 28 O -6.622831 -2.066144 1.549317 0
M  V30 29 C -4.765102 -1.291009 -1.777510 0
M  V30 30 C -3.259301 -1.336581 -1.578399 0
M  V30 31 C 3.135460 -0.492658 1.129478 0
M  V30 32 N 4.169458 -2.934525 2.507561 0
M  V30 33 H 3.453654 -5.380381 3.249585 0
M  V30 34 H 5.115326 -6.013885 3.072961 0
M  V30 35 H 4.528029 -5.305384 4.668330 0
M  V30 36 H 6.234937 0.530381 1.959036 0
M  V30 37 H 5.362207 2.551583 0.811702 0
M  V30 38 H 3.408600 3.813818 0.136387 0
M  V30 39 H 3.266774 2.865775 -1.354564 0
M  V30 40 H 1.826623 2.982459 -0.180239 0
M  V30 41 H 0.660620 -0.383754 1.868629 0
M  V30 42 H -1.649508 -0.677386 1.285493 0
M  V30 43 H 1.492903 1.345243 -1.902873 0
M  V30 44 H -0.762788 1.535440 -3.641993 0
M  V30 45 H -3.424244 1.604856 0.138131 0
M  V30 46 H -4.477394 1.443529 -1.280142 0
M  V30 47 H -5.416857 0.432523 0.923441 0
M  V30 48 H -4.022564 -0.647990 0.928594 0
M  V30 49 H -4.760690 -4.092670 1.648342 0
M  V30 50 H -3.902346 -3.951201 0.117602 0
M  V30 51 H -3.741174 -2.664311 1.454056 0
M  V30 52 H -5.128367 -2.181890 -2.308485 0
M  V30 53 H -4.963673 -0.418301 -2.435302 0
M  V30 54 H -2.949083 -1.904169 -0.700383 0
M  V30 55 H -2.764685 -1.672164 -2.501767 0
M  V30 56 H 2.519263 -1.383474 1.236569 0
M  V30 57 H 3.180551 -3.077737 2.170442 0
M  V30 END ATOM
M  V30 BEGIN BOND
M  V30 1 1 1 2
M  V30 2 2 2 3
M  V30 3 1 3 4
M  V30 4 2 4 5
M  V30 5 1 5 6
M  V30 6 2 6 7
M  V30 7 1 7 8
M  V30 8 2 8 9
M  V30 9 1 9 10
M  V30 10 1 9 11
M  V30 11 1 11 12
M  V30 12 2 12 13
M  V30 13 1 13 14
M  V30 14 2 14 15
M  V30 15 1 15 16
M  V30 16 2 16 17
M  V30 17 1 16 18
M  V30 18 1 18 19
M  V30 19 2 19 20
M  V30 20 1 19 21
M  V30 21 1 21 22
M  V30 22 1 22 23
M  V30 23 1 23 24
M  V30 24 1 24 25
M  V30 25 1 25 26
M  V30 26 2 25 27
M  V30 27 2 25 28
M  V30 28 1 24 29
M  V30 29 1 29 30
M  V30 30 2 11 31
M  V30 31 1 5 32
M  V30 32 1 32 2
M  V30 33 1 31 6
M  V30 34 1 17 12
M  V30 35 1 30 21
M  V30 36 1 21 15
M  V30 37 1 1 33
M  V30 38 1 1 34
M  V30 39 1 1 35
M  V30 40 1 7 36
M  V30 41 1 8 37
M  V30 42 1 10 38
M  V30 43 1 10 39
M  V30 44 1 10 40
M  V30 45 1 13 41
M  V30 46 1 14 42
M  V30 47 1 17 43
M  V30 48 1 18 44
M  V30 49 1 22 45
M  V30 50 1 22 46
M  V30 51 1 23 47
M  V30 52 1 23 48
M  V30 53 1 26 49
M  V30 54 1 26 50
M  V30 55 1 26 51
M  V30 56 1 29 52
M  V30 57 1 29 53
M  V30 58 1 30 54
M  V30 59 1 30 55
M  V30 60 1 31 56
M  V30 61 1 32 57
M  V30 END BOND
M  V30 END CTAB
M  END
>  <Dataset>  (201) 
ChEMBL_Kinases

>  <Ligand_Instance>  (201) 
nan

>  <PDB_ID>  (201) 
nan

>  <Standardized_SMILES>  (201) 
Cc1nnc(-c2ccc(C)c(-c3ccc4c(c3)NC(=O)C43CCN(S(C)(=O)=O)CC3)c2)[nH]1

>  <Name>  (201) 
nan

>  <Pocket>  (201) 
nan

>  <ATP_Site>  (201) 
nan

>  <Peripheral>  (201) 
nan

>  <Num_H_Atoms_ProtBoundConf>  (201) 
nan

>  <Num_Resolved_Atoms>  (201) 
nan

>  <Num_Not_Resolved_Atoms>  (201) 
nan

$$$$
CHEMBL1911334
     RDKit          3D

  0  0  0  0  0  0  0  0  0  0999 V3000
M  V30 BEGIN CTAB
M  V30 COUNTS 51 56 0 0 0
M  V30 BEGIN ATOM
M  V30 1 C -1.955315 2.229241 2.179722 0
M  V30 2 C -0.587632 2.364160 1.587597 0
M  V30 3 C 0.061728 3.581207 1.567717 0
M  V30 4 C 1.322669 3.690644 1.018417 0
M  V30 5 C 1.849684 2.536467 0.516945 0
M  V30 6 C 3.105212 2.387508 -0.088444 0
M  V30 7 N 4.173641 3.279945 -0.373965 0
M  V30 8 C 5.453435 3.046746 -1.007534 0
M  V30 9 C 5.385801 2.516503 -2.414695 0
M  V30 10 C 5.959893 1.686997 -1.259698 0
M  V30 11 N 3.167898 1.063479 -0.416998 0
M  V30 12 O 2.066756 0.459124 -0.052594 0
M  V30 13 C 1.248484 1.295807 0.509545 0
M  V30 14 C -0.012507 1.220280 1.066553 0
M  V30 15 C -0.634661 -0.102023 1.050158 0
M  V30 16 C -0.387241 -0.912167 2.162308 0
M  V30 17 C -0.969886 -2.173768 2.165953 0
M  V30 18 C -1.761010 -2.611524 1.115641 0
M  V30 19 C -1.998300 -1.802519 0.022522 0
M  V30 20 C -1.424132 -0.545534 0.007563 0
M  V30 21 N -2.835102 -2.557198 -0.847285 0
M  V30 22 C -3.104378 -3.843547 -0.263780 0
M  V30 23 O -3.822449 -4.708955 -0.830132 0
M  V30 24 C -2.422559 -3.935453 1.029984 0
M  V30 25 C -3.294501 -4.243457 2.193829 0
M  V30 26 C -3.508152 -5.740573 2.059390 0
M  V30 27 C -2.387596 -6.264315 1.188330 0
M  V30 28 C -1.442421 -5.071931 0.995620 0
M  V30 29 H -2.209758 3.199775 2.662198 0
M  V30 30 H -1.973248 1.469214 2.973950 0
M  V30 31 H -2.726530 1.994167 1.419917 0
M  V30 32 H -0.463558 4.416955 1.996260 0
M  V30 33 H 1.838466 4.627869 0.995941 0
M  V30 34 H 3.916344 4.251397 -0.040310 0
M  V30 35 H 6.194994 3.849583 -0.775429 0
M  V30 36 H 4.397757 2.238500 -2.805076 0
M  V30 37 H 6.105123 2.853976 -3.176754 0
M  V30 38 H 5.411887 0.765123 -1.076484 0
M  V30 39 H 7.062477 1.517736 -1.312513 0
M  V30 40 H 0.230116 -0.579942 2.989703 0
M  V30 41 H -0.750363 -2.777939 3.057849 0
M  V30 42 H -1.601502 0.104477 -0.846994 0
M  V30 43 H -3.191269 -2.205212 -1.774508 0
M  V30 44 H -4.254141 -3.690615 2.198330 0
M  V30 45 H -2.698268 -4.064015 3.108694 0
M  V30 46 H -4.515236 -5.894387 1.580184 0
M  V30 47 H -3.541644 -6.237076 3.049557 0
M  V30 48 H -2.730356 -6.552783 0.171453 0
M  V30 49 H -1.833176 -7.107803 1.625746 0
M  V30 50 H -0.703481 -5.026571 1.821079 0
M  V30 51 H -0.964289 -5.124281 -0.000800 0
M  V30 END ATOM
M  V30 BEGIN BOND
M  V30 1 1 1 2
M  V30 2 2 2 3
M  V30 3 1 3 4
M  V30 4 2 4 5
M  V30 5 1 5 6
M  V30 6 1 6 7
M  V30 7 1 7 8
M  V30 8 1 8 9
M  V30 9 1 9 10
M  V30 10 2 6 11
M  V30 11 1 11 12
M  V30 12 1 12 13
M  V30 13 2 13 14
M  V30 14 1 14 15
M  V30 15 2 15 16
M  V30 16 1 16 17
M  V30 17 2 17 18
M  V30 18 1 18 19
M  V30 19 2 19 20
M  V30 20 1 19 21
M  V30 21 1 21 22
M  V30 22 2 22 23
M  V30 23 1 22 24
M  V30 24 1 24 25
M  V30 25 1 25 26
M  V30 26 1 26 27
M  V30 27 1 27 28
M  V30 28 1 14 2
M  V30 29 1 20 15
M  V30 30 1 28 24
M  V30 31 1 13 5
M  V30 32 1 24 18
M  V30 33 1 10 8
M  V30 34 1 1 29
M  V30 35 1 1 30
M  V30 36 1 1 31
M  V30 37 1 3 32
M  V30 38 1 4 33
M  V30 39 1 7 34
M  V30 40 1 8 35
M  V30 41 1 9 36
M  V30 42 1 9 37
M  V30 43 1 10 38
M  V30 44 1 10 39
M  V30 45 1 16 40
M  V30 46 1 17 41
M  V30 47 1 20 42
M  V30 48 1 21 43
M  V30 49 1 25 44
M  V30 50 1 25 45
M  V30 51 1 26 46
M  V30 52 1 26 47
M  V30 53 1 27 48
M  V30 54 1 27 49
M  V30 55 1 28 50
M  V30 56 1 28 51
M  V30 END BOND
M  V30 END CTAB
M  END
>  <Dataset>  (202) 
ChEMBL_Kinases

>  <Ligand_Instance>  (202) 
nan

>  <PDB_ID>  (202) 
nan

>  <Standardized_SMILES>  (202) 
Cc1ccc2c(NC3CC3)noc2c1-c1ccc2c(c1)NC(=O)C21CCCC1

>  <Name>  (202) 
nan

>  <Pocket>  (202) 
nan

>  <ATP_Site>  (202) 
nan

>  <Peripheral>  (202) 
nan

>  <Num_H_Atoms_ProtBoundConf>  (202) 
nan

>  <Num_Resolved_Atoms>  (202) 
nan

>  <Num_Not_Resolved_Atoms>  (202) 
nan

$$$$
CHEMBL191201
     RDKit          3D

  0  0  0  0  0  0  0  0  0  0999 V3000
M  V30 BEGIN CTAB
M  V30 COUNTS 50 53 0 0 0
M  V30 BEGIN ATOM
M  V30 1 C 1.100453 -3.704416 0.747130 0
M  V30 2 C 0.294572 -3.185920 1.888272 0
M  V30 3 C 0.221133 -4.083362 2.947043 0
M  V30 4 N -0.474395 -3.759018 4.061191 0
M  V30 5 C -1.087244 -2.563033 4.123562 0
M  V30 6 C -1.048811 -1.636791 3.108139 0
M  V30 7 C -0.339432 -1.963076 1.966913 0
M  V30 8 C -0.197299 -1.092718 0.784200 0
M  V30 9 C 0.451348 0.145430 0.761237 0
M  V30 10 C 0.387822 0.676836 -0.528229 0
M  V30 11 C 0.967445 1.984490 -0.945472 0
M  V30 12 C 2.418390 2.123808 -0.725446 0
M  V30 13 C 2.858534 2.537026 0.628686 0
M  V30 14 N 2.035407 3.430974 1.353110 0
M  V30 15 C 2.230844 3.204030 2.777804 0
M  V30 16 C 0.639622 3.419051 1.092612 0
M  V30 17 C 0.221839 3.128134 -0.302038 0
M  V30 18 N -0.285725 -0.225075 -1.263039 0
M  V30 19 C -0.652729 -1.292193 -0.524558 0
M  V30 20 C -1.397207 -2.484266 -0.946306 0
M  V30 21 C -2.602413 -2.583150 -0.256711 0
M  V30 22 C -3.492306 -3.624723 -0.473592 0
M  V30 23 C -3.146760 -4.587791 -1.414520 0
M  V30 24 F -3.975511 -5.625503 -1.667571 0
M  V30 25 C -1.952729 -4.482537 -2.092286 0
M  V30 26 C -1.079619 -3.441426 -1.865040 0
M  V30 27 H 1.301800 -2.946249 -0.007819 0
M  V30 28 H 2.088398 -4.070276 1.107686 0
M  V30 29 H 0.525973 -4.532204 0.287334 0
M  V30 30 H 0.686737 -5.058726 2.966586 0
M  V30 31 H -1.649301 -2.294251 5.017205 0
M  V30 32 H -1.530409 -0.667570 3.127491 0
M  V30 33 H 0.907325 0.555446 1.653967 0
M  V30 34 H 0.750947 2.078155 -2.050770 0
M  V30 35 H 2.845981 2.792952 -1.521155 0
M  V30 36 H 2.893756 1.122844 -0.945588 0
M  V30 37 H 3.856419 3.055846 0.501216 0
M  V30 38 H 3.131661 1.660706 1.283388 0
M  V30 39 H 3.112281 2.534122 2.954620 0
M  V30 40 H 1.367574 2.658447 3.245014 0
M  V30 41 H 2.404094 4.184892 3.251581 0
M  V30 42 H 0.273705 4.465690 1.316407 0
M  V30 43 H 0.107282 2.805260 1.874673 0
M  V30 44 H 0.259115 4.053231 -0.918487 0
M  V30 45 H -0.865555 2.832031 -0.279865 0
M  V30 46 H -0.494595 -0.097163 -2.298203 0
M  V30 47 H -2.975659 -1.886955 0.501755 0
M  V30 48 H -4.436131 -3.734320 0.041867 0
M  V30 49 H -1.634146 -5.205217 -2.835910 0
M  V30 50 H -0.120958 -3.262909 -2.338819 0
M  V30 END ATOM
M  V30 BEGIN BOND
M  V30 1 1 1 2
M  V30 2 2 2 3
M  V30 3 1 3 4
M  V30 4 2 4 5
M  V30 5 1 5 6
M  V30 6 2 6 7
M  V30 7 1 7 8
M  V30 8 1 8 9
M  V30 9 2 9 10
M  V30 10 1 10 11
M  V30 11 1 11 12
M  V30 12 1 12 13
M  V30 13 1 13 14
M  V30 14 1 14 15
M  V30 15 1 14 16
M  V30 16 1 16 17
M  V30 17 1 10 18
M  V30 18 1 18 19
M  V30 19 1 19 20
M  V30 20 2 20 21
M  V30 21 1 21 22
M  V30 22 2 22 23
M  V30 23 1 23 24
M  V30 24 1 23 25
M  V30 25 2 25 26
M  V30 26 1 7 2
M  V30 27 2 19 8
M  V30 28 1 26 20
M  V30 29 1 17 11
M  V30 30 1 1 27
M  V30 31 1 1 28
M  V30 32 1 1 29
M  V30 33 1 3 30
M  V30 34 1 5 31
M  V30 35 1 6 32
M  V30 36 1 9 33
M  V30 37 1 11 34
M  V30 38 1 12 35
M  V30 39 1 12 36
M  V30 40 1 13 37
M  V30 41 1 13 38
M  V30 42 1 15 39
M  V30 43 1 15 40
M  V30 44 1 15 41
M  V30 45 1 16 42
M  V30 46 1 16 43
M  V30 47 1 17 44
M  V30 48 1 17 45
M  V30 49 1 18 46
M  V30 50 1 21 47
M  V30 51 1 22 48
M  V30 52 1 25 49
M  V30 53 1 26 50
M  V30 END BOND
M  V30 END CTAB
M  END
>  <Dataset>  (203) 
ChEMBL_Kinases

>  <Ligand_Instance>  (203) 
nan

>  <PDB_ID>  (203) 
nan

>  <Standardized_SMILES>  (203) 
Cc1cnccc1-c1cc(C2CCN(C)CC2)[nH]c1-c1ccc(F)cc1

>  <Name>  (203) 
nan

>  <Pocket>  (203) 
nan

>  <ATP_Site>  (203) 
nan

>  <Peripheral>  (203) 
nan

>  <Num_H_Atoms_ProtBoundConf>  (203) 
nan

>  <Num_Resolved_Atoms>  (203) 
nan

>  <Num_Not_Resolved_Atoms>  (203) 
nan

$$$$
CHEMBL1911336
     RDKit          3D

  0  0  0  0  0  0  0  0  0  0999 V3000
M  V30 BEGIN CTAB
M  V30 COUNTS 48 53 0 0 0
M  V30 BEGIN ATOM
M  V30 1 O -0.348080 -6.073169 2.861428 0
M  V30 2 C -0.303073 -5.019055 2.184724 0
M  V30 3 N 0.823272 -4.215194 1.859262 0
M  V30 4 C 0.293441 -3.144300 1.091528 0
M  V30 5 C 1.024299 -2.101008 0.560073 0
M  V30 6 C 0.411845 -1.116671 -0.154747 0
M  V30 7 C 1.166865 -0.013650 -0.719615 0
M  V30 8 C 1.722529 -0.047548 -1.994624 0
M  V30 9 C 2.436021 1.051041 -2.471415 0
M  V30 10 C 2.605287 2.196254 -1.685803 0
M  V30 11 C 2.059795 2.244274 -0.419155 0
M  V30 12 C 2.057369 3.209440 0.566860 0
M  V30 13 N 2.658131 4.499586 0.536332 0
M  V30 14 C 2.516655 5.339989 1.706153 0
M  V30 15 C 1.044428 5.631265 2.021151 0
M  V30 16 C 1.980310 6.701161 1.673082 0
M  V30 17 N 1.351589 2.632089 1.556015 0
M  V30 18 O 0.955389 1.430808 1.220088 0
M  V30 19 C 1.361289 1.136252 0.014600 0
M  V30 20 C -0.954313 -1.185683 -0.335494 0
M  V30 21 Cl -1.751605 0.079433 -1.255569 0
M  V30 22 C -1.634060 -2.237808 0.209693 0
M  V30 23 C -1.092640 -3.271549 0.943327 0
M  V30 24 C -1.579768 -4.495456 1.621864 0
M  V30 25 C -2.181826 -5.414362 0.624121 0
M  V30 26 C -3.637002 -5.043782 0.593301 0
M  V30 27 C -3.932230 -4.461632 1.932187 0
M  V30 28 C -2.622432 -4.271891 2.651414 0
M  V30 29 H 1.807469 -4.406275 2.142667 0
M  V30 30 H 2.095143 -2.009322 0.678341 0
M  V30 31 H 1.575608 -0.946568 -2.579980 0
M  V30 32 H 2.867762 1.014362 -3.472595 0
M  V30 33 H 3.161482 3.047601 -2.062629 0
M  V30 34 H 3.170482 4.772152 -0.330743 0
M  V30 35 H 3.179121 5.030506 2.539902 0
M  V30 36 H 0.274522 5.398002 1.280743 0
M  V30 37 H 0.770646 5.371194 3.059548 0
M  V30 38 H 1.813864 7.273284 0.733193 0
M  V30 39 H 2.314152 7.361854 2.518771 0
M  V30 40 H -2.695239 -2.217471 0.026645 0
M  V30 41 H -1.724075 -5.191914 -0.367124 0
M  V30 42 H -2.032331 -6.494199 0.873834 0
M  V30 43 H -3.792788 -4.304643 -0.247571 0
M  V30 44 H -4.275156 -5.938289 0.372269 0
M  V30 45 H -4.598816 -5.188382 2.475020 0
M  V30 46 H -4.510014 -3.499228 1.871915 0
M  V30 47 H -2.556139 -3.252613 3.123291 0
M  V30 48 H -2.533152 -5.026097 3.468451 0
M  V30 END ATOM
M  V30 BEGIN BOND
M  V30 1 2 1 2
M  V30 2 1 2 3
M  V30 3 1 3 4
M  V30 4 2 4 5
M  V30 5 1 5 6
M  V30 6 1 6 7
M  V30 7 2 7 8
M  V30 8 1 8 9
M  V30 9 2 9 10
M  V30 10 1 10 11
M  V30 11 1 11 12
M  V30 12 1 12 13
M  V30 13 1 13 14
M  V30 14 1 14 15
M  V30 15 1 15 16
M  V30 16 2 12 17
M  V30 17 1 17 18
M  V30 18 1 18 19
M  V30 19 2 6 20
M  V30 20 1 20 21
M  V30 21 1 20 22
M  V30 22 2 22 23
M  V30 23 1 23 24
M  V30 24 1 24 25
M  V30 25 1 25 26
M  V30 26 1 26 27
M  V30 27 1 27 28
M  V30 28 1 24 2
M  V30 29 1 23 4
M  V30 30 1 28 24
M  V30 31 1 19 7
M  V30 32 2 19 11
M  V30 33 1 16 14
M  V30 34 1 3 29
M  V30 35 1 5 30
M  V30 36 1 8 31
M  V30 37 1 9 32
M  V30 38 1 10 33
M  V30 39 1 13 34
M  V30 40 1 14 35
M  V30 41 1 15 36
M  V30 42 1 15 37
M  V30 43 1 16 38
M  V30 44 1 16 39
M  V30 45 1 22 40
M  V30 46 1 25 41
M  V30 47 1 25 42
M  V30 48 1 26 43
M  V30 49 1 26 44
M  V30 50 1 27 45
M  V30 51 1 27 46
M  V30 52 1 28 47
M  V30 53 1 28 48
M  V30 END BOND
M  V30 END CTAB
M  END
>  <Dataset>  (204) 
ChEMBL_Kinases

>  <Ligand_Instance>  (204) 
nan

>  <PDB_ID>  (204) 
nan

>  <Standardized_SMILES>  (204) 
O=C1Nc2cc(-c3cccc4c(NC5CC5)noc34)c(Cl)cc2C12CCCC2

>  <Name>  (204) 
nan

>  <Pocket>  (204) 
nan

>  <ATP_Site>  (204) 
nan

>  <Peripheral>  (204) 
nan

>  <Num_H_Atoms_ProtBoundConf>  (204) 
nan

>  <Num_Resolved_Atoms>  (204) 
nan

>  <Num_Not_Resolved_Atoms>  (204) 
nan

$$$$
CHEMBL1911337
     RDKit          3D

  0  0  0  0  0  0  0  0  0  0999 V3000
M  V30 BEGIN CTAB
M  V30 COUNTS 47 51 0 0 0
M  V30 BEGIN ATOM
M  V30 1 C 0.920960 -2.319958 3.496234 0
M  V30 2 C 1.665939 -1.714821 2.366955 0
M  V30 3 C 3.022769 -1.929293 2.236937 0
M  V30 4 C 3.662375 -1.351430 1.182050 0
M  V30 5 C 2.953949 -0.587276 0.295548 0
M  V30 6 C 3.335904 0.114817 -0.856842 0
M  V30 7 N 4.637857 0.213061 -1.426549 0
M  V30 8 C 5.114259 0.899866 -2.587409 0
M  V30 9 C 5.023762 2.351056 -2.796098 0
M  V30 10 C 6.320461 1.793282 -2.336835 0
M  V30 11 N 2.220988 0.716091 -1.372006 0
M  V30 12 O 1.201060 0.429174 -0.618470 0
M  V30 13 C 1.596698 -0.346247 0.386844 0
M  V30 14 C 0.962511 -0.941363 1.465204 0
M  V30 15 C -0.473548 -0.747892 1.651894 0
M  V30 16 C -1.088942 0.258595 2.370560 0
M  V30 17 C -2.463037 0.304866 2.453191 0
M  V30 18 C -3.272937 -0.634762 1.833279 0
M  V30 19 C -2.656756 -1.638067 1.116786 0
M  V30 20 C -1.277166 -1.694362 1.027020 0
M  V30 21 N -3.664183 -2.490758 0.564280 0
M  V30 22 C -4.949059 -1.996842 0.953178 0
M  V30 23 O -6.137584 -2.373219 0.736738 0
M  V30 24 C -4.752417 -0.785141 1.783792 0
M  V30 25 C -5.386751 0.389778 1.039204 0
M  V30 26 C -5.317025 -0.910855 3.162151 0
M  V30 27 H 1.440008 -3.216516 3.886857 0
M  V30 28 H 0.816316 -1.613224 4.337160 0
M  V30 29 H -0.078017 -2.698149 3.129678 0
M  V30 30 H 3.551365 -2.531916 2.945890 0
M  V30 31 H 4.727402 -1.488768 1.034617 0
M  V30 32 H 5.415907 -0.302440 -0.926760 0
M  V30 33 H 5.126651 0.243253 -3.496378 0
M  V30 34 H 4.522853 3.048741 -2.109531 0
M  V30 35 H 4.993051 2.700610 -3.854028 0
M  V30 36 H 7.164315 1.609906 -3.001082 0
M  V30 37 H 6.613862 1.984151 -1.278921 0
M  V30 38 H -0.431230 0.963979 2.834096 0
M  V30 39 H -2.887893 1.102887 3.020676 0
M  V30 40 H -0.847141 -2.520409 0.439952 0
M  V30 41 H -3.581033 -3.344021 -0.028816 0
M  V30 42 H -6.247051 -0.020792 0.452300 0
M  V30 43 H -4.669945 0.849542 0.355433 0
M  V30 44 H -5.848690 1.085598 1.776692 0
M  V30 45 H -4.674940 -1.539555 3.783148 0
M  V30 46 H -6.321674 -1.397143 3.124083 0
M  V30 47 H -5.394118 0.131693 3.568894 0
M  V30 END ATOM
M  V30 BEGIN BOND
M  V30 1 1 1 2
M  V30 2 2 2 3
M  V30 3 1 3 4
M  V30 4 2 4 5
M  V30 5 1 5 6
M  V30 6 1 6 7
M  V30 7 1 7 8
M  V30 8 1 8 9
M  V30 9 1 9 10
M  V30 10 2 6 11
M  V30 11 1 11 12
M  V30 12 1 12 13
M  V30 13 2 13 14
M  V30 14 1 14 15
M  V30 15 2 15 16
M  V30 16 1 16 17
M  V30 17 2 17 18
M  V30 18 1 18 19
M  V30 19 2 19 20
M  V30 20 1 19 21
M  V30 21 1 21 22
M  V30 22 2 22 23
M  V30 23 1 22 24
M  V30 24 1 24 25
M  V30 25 1 24 26
M  V30 26 1 14 2
M  V30 27 1 20 15
M  V30 28 1 13 5
M  V30 29 1 24 18
M  V30 30 1 10 8
M  V30 31 1 1 27
M  V30 32 1 1 28
M  V30 33 1 1 29
M  V30 34 1 3 30
M  V30 35 1 4 31
M  V30 36 1 7 32
M  V30 37 1 8 33
M  V30 38 1 9 34
M  V30 39 1 9 35
M  V30 40 1 10 36
M  V30 41 1 10 37
M  V30 42 1 16 38
M  V30 43 1 17 39
M  V30 44 1 20 40
M  V30 45 1 21 41
M  V30 46 1 25 42
M  V30 47 1 25 43
M  V30 48 1 25 44
M  V30 49 1 26 45
M  V30 50 1 26 46
M  V30 51 1 26 47
M  V30 END BOND
M  V30 END CTAB
M  END
>  <Dataset>  (205) 
ChEMBL_Kinases

>  <Ligand_Instance>  (205) 
nan

>  <PDB_ID>  (205) 
nan

>  <Standardized_SMILES>  (205) 
Cc1ccc2c(NC3CC3)noc2c1-c1ccc2c(c1)NC(=O)C2(C)C

>  <Name>  (205) 
nan

>  <Pocket>  (205) 
nan

>  <ATP_Site>  (205) 
nan

>  <Peripheral>  (205) 
nan

>  <Num_H_Atoms_ProtBoundConf>  (205) 
nan

>  <Num_Resolved_Atoms>  (205) 
nan

>  <Num_Not_Resolved_Atoms>  (205) 
nan

$$$$
CHEMBL1911338
     RDKit          3D

  0  0  0  0  0  0  0  0  0  0999 V3000
M  V30 BEGIN CTAB
M  V30 COUNTS 52 57 0 0 0
M  V30 BEGIN ATOM
M  V30 1 C -1.702694 2.173602 2.337514 0
M  V30 2 C -0.315546 2.240837 1.836576 0
M  V30 3 C 0.459947 3.365924 2.034865 0
M  V30 4 C 1.756635 3.417266 1.561549 0
M  V30 5 C 2.228620 2.286534 0.883694 0
M  V30 6 C 3.485230 2.061179 0.304002 0
M  V30 7 N 4.594004 2.944835 0.271148 0
M  V30 8 C 5.914961 2.810116 -0.296688 0
M  V30 9 C 6.803227 1.707853 0.176920 0
M  V30 10 C 6.206027 1.601537 -1.178279 0
M  V30 11 N 3.398378 0.801665 -0.216773 0
M  V30 12 O 2.223333 0.291915 0.008395 0
M  V30 13 C 1.487348 1.147244 0.666073 0
M  V30 14 C 0.201478 1.154808 1.161163 0
M  V30 15 C -0.587563 -0.061256 0.928028 0
M  V30 16 C -0.483249 -1.016914 1.921077 0
M  V30 17 C -1.209223 -2.189799 1.753131 0
M  V30 18 C -2.017681 -2.414282 0.633841 0
M  V30 19 C -2.100417 -1.429187 -0.349539 0
M  V30 20 C -1.375609 -0.247730 -0.190879 0
M  V30 21 N -2.978856 -1.886544 -1.381776 0
M  V30 22 C -3.446837 -3.192791 -1.015861 0
M  V30 23 O -4.237524 -3.752948 -1.817047 0
M  V30 24 C -2.859792 -3.586738 0.276990 0
M  V30 25 C -3.891278 -3.858552 1.338949 0
M  V30 26 C -4.724616 -5.037472 0.890007 0
M  V30 27 O -3.901480 -6.141794 0.819849 0
M  V30 28 C -2.862703 -6.029934 -0.077183 0
M  V30 29 C -1.992624 -4.829902 0.161103 0
M  V30 30 H -1.905764 1.228369 2.856121 0
M  V30 31 H -2.472133 2.390476 1.565865 0
M  V30 32 H -1.824978 2.972684 3.097789 0
M  V30 33 H 0.086617 4.242471 2.563183 0
M  V30 34 H 2.442228 4.255639 1.668095 0
M  V30 35 H 4.438647 3.873806 0.746908 0
M  V30 36 H 6.393897 3.737300 -0.670994 0
M  V30 37 H 7.882295 1.941236 0.215084 0
M  V30 38 H 6.460356 1.075581 1.014590 0
M  V30 39 H 6.907175 1.746861 -2.053820 0
M  V30 40 H 5.389609 0.934105 -1.442137 0
M  V30 41 H 0.128781 -0.899537 2.813721 0
M  V30 42 H -1.146584 -2.964612 2.522635 0
M  V30 43 H -1.422746 0.533905 -0.941104 0
M  V30 44 H -3.178293 -1.280262 -2.228171 0
M  V30 45 H -3.325522 -4.221990 2.236093 0
M  V30 46 H -4.508413 -2.975643 1.587199 0
M  V30 47 H -5.300599 -4.829225 -0.034416 0
M  V30 48 H -5.508728 -5.295052 1.652394 0
M  V30 49 H -2.223573 -6.927776 0.051713 0
M  V30 50 H -3.244055 -6.070477 -1.106472 0
M  V30 51 H -1.473540 -4.965929 1.130284 0
M  V30 52 H -1.301835 -4.727944 -0.701719 0
M  V30 END ATOM
M  V30 BEGIN BOND
M  V30 1 1 1 2
M  V30 2 2 2 3
M  V30 3 1 3 4
M  V30 4 2 4 5
M  V30 5 1 5 6
M  V30 6 1 6 7
M  V30 7 1 7 8
M  V30 8 1 8 9
M  V30 9 1 9 10
M  V30 10 2 6 11
M  V30 11 1 11 12
M  V30 12 1 12 13
M  V30 13 2 13 14
M  V30 14 1 14 15
M  V30 15 2 15 16
M  V30 16 1 16 17
M  V30 17 2 17 18
M  V30 18 1 18 19
M  V30 19 2 19 20
M  V30 20 1 19 21
M  V30 21 1 21 22
M  V30 22 2 22 23
M  V30 23 1 22 24
M  V30 24 1 24 25
M  V30 25 1 25 26
M  V30 26 1 26 27
M  V30 27 1 27 28
M  V30 28 1 28 29
M  V30 29 1 14 2
M  V30 30 1 20 15
M  V30 31 1 29 24
M  V30 32 1 13 5
M  V30 33 1 24 18
M  V30 34 1 10 8
M  V30 35 1 1 30
M  V30 36 1 1 31
M  V30 37 1 1 32
M  V30 38 1 3 33
M  V30 39 1 4 34
M  V30 40 1 7 35
M  V30 41 1 8 36
M  V30 42 1 9 37
M  V30 43 1 9 38
M  V30 44 1 10 39
M  V30 45 1 10 40
M  V30 46 1 16 41
M  V30 47 1 17 42
M  V30 48 1 20 43
M  V30 49 1 21 44
M  V30 50 1 25 45
M  V30 51 1 25 46
M  V30 52 1 26 47
M  V30 53 1 26 48
M  V30 54 1 28 49
M  V30 55 1 28 50
M  V30 56 1 29 51
M  V30 57 1 29 52
M  V30 END BOND
M  V30 END CTAB
M  END
>  <Dataset>  (206) 
ChEMBL_Kinases

>  <Ligand_Instance>  (206) 
nan

>  <PDB_ID>  (206) 
nan

>  <Standardized_SMILES>  (206) 
Cc1ccc2c(NC3CC3)noc2c1-c1ccc2c(c1)NC(=O)C21CCOCC1

>  <Name>  (206) 
nan

>  <Pocket>  (206) 
nan

>  <ATP_Site>  (206) 
nan

>  <Peripheral>  (206) 
nan

>  <Num_H_Atoms_ProtBoundConf>  (206) 
nan

>  <Num_Resolved_Atoms>  (206) 
nan

>  <Num_Not_Resolved_Atoms>  (206) 
nan

$$$$
CHEMBL1911339
     RDKit          3D

  0  0  0  0  0  0  0  0  0  0999 V3000
M  V30 BEGIN CTAB
M  V30 COUNTS 54 59 0 0 0
M  V30 BEGIN ATOM
M  V30 1 C -1.492250 2.657059 1.779377 0
M  V30 2 C -0.035251 2.414306 1.831799 0
M  V30 3 C 0.866084 3.377616 2.236494 0
M  V30 4 C 2.239190 3.126705 2.278503 0
M  V30 5 C 2.684672 1.879509 1.902381 0
M  V30 6 C 3.964726 1.314628 1.830890 0
M  V30 7 N 5.212231 1.947815 2.156957 0
M  V30 8 C 6.403032 1.144818 1.997648 0
M  V30 9 C 6.564748 0.675695 0.530700 0
M  V30 10 C 7.579527 1.563782 1.241946 0
M  V30 11 N 3.733135 0.064115 1.391580 0
M  V30 12 O 2.461270 -0.130926 1.209761 0
M  V30 13 C 1.767837 0.917392 1.496662 0
M  V30 14 C 0.406616 1.144170 1.447676 0
M  V30 15 C -0.471962 0.061221 1.005073 0
M  V30 16 C -0.697524 0.047232 -0.356876 0
M  V30 17 C -1.521107 -0.940878 -0.899598 0
M  V30 18 C -2.095584 -1.890626 -0.046535 0
M  V30 19 C -1.860094 -1.863025 1.313912 0
M  V30 20 C -1.043750 -0.880847 1.838851 0
M  V30 21 N -2.573261 -2.949899 1.937126 0
M  V30 22 C -3.252977 -3.636757 0.880970 0
M  V30 23 O -3.954018 -4.644056 1.204620 0
M  V30 24 C -2.993459 -3.013709 -0.421386 0
M  V30 25 C -4.214142 -2.468203 -1.105490 0
M  V30 26 C -5.176642 -3.523882 -1.518200 0
M  V30 27 C -4.561498 -4.693177 -2.223998 0
M  V30 28 F -4.430316 -4.483433 -3.592242 0
M  V30 29 F -5.429337 -5.776082 -2.077848 0
M  V30 30 C -3.235479 -5.104603 -1.653143 0
M  V30 31 C -2.311549 -3.959053 -1.399414 0
M  V30 32 H -1.698293 3.749427 1.841210 0
M  V30 33 H -1.947879 2.092722 2.621230 0
M  V30 34 H -1.941671 2.277823 0.860135 0
M  V30 35 H 0.496557 4.354561 2.529231 0
M  V30 36 H 2.961844 3.855093 2.588278 0
M  V30 37 H 5.176554 2.923663 2.479956 0
M  V30 38 H 6.508132 0.315593 2.745951 0
M  V30 39 H 6.025230 1.199086 -0.258189 0
M  V30 40 H 6.788089 -0.387109 0.376475 0
M  V30 41 H 8.522232 1.046764 1.477856 0
M  V30 42 H 7.698477 2.613689 0.924250 0
M  V30 43 H -0.266481 0.770998 -1.049627 0
M  V30 44 H -1.696047 -0.948969 -1.968949 0
M  V30 45 H -0.825827 -0.812381 2.894931 0
M  V30 46 H -2.529595 -3.108889 2.965194 0
M  V30 47 H -4.733988 -1.773105 -0.419417 0
M  V30 48 H -3.868292 -1.904227 -1.989055 0
M  V30 49 H -5.849297 -3.836550 -0.682339 0
M  V30 50 H -5.885553 -3.059137 -2.265151 0
M  V30 51 H -2.751933 -5.768190 -2.424358 0
M  V30 52 H -3.308948 -5.750351 -0.751028 0
M  V30 53 H -2.139992 -3.386825 -2.333251 0
M  V30 54 H -1.375230 -4.364048 -0.972830 0
M  V30 END ATOM
M  V30 BEGIN BOND
M  V30 1 1 1 2
M  V30 2 2 2 3
M  V30 3 1 3 4
M  V30 4 2 4 5
M  V30 5 1 5 6
M  V30 6 1 6 7
M  V30 7 1 7 8
M  V30 8 1 8 9
M  V30 9 1 9 10
M  V30 10 2 6 11
M  V30 11 1 11 12
M  V30 12 1 12 13
M  V30 13 2 13 14
M  V30 14 1 14 15
M  V30 15 2 15 16
M  V30 16 1 16 17
M  V30 17 2 17 18
M  V30 18 1 18 19
M  V30 19 2 19 20
M  V30 20 1 19 21
M  V30 21 1 21 22
M  V30 22 2 22 23
M  V30 23 1 22 24
M  V30 24 1 24 25
M  V30 25 1 25 26
M  V30 26 1 26 27
M  V30 27 1 27 28
M  V30 28 1 27 29
M  V30 29 1 27 30
M  V30 30 1 30 31
M  V30 31 1 14 2
M  V30 32 1 20 15
M  V30 33 1 31 24
M  V30 34 1 13 5
M  V30 35 1 24 18
M  V30 36 1 10 8
M  V30 37 1 1 32
M  V30 38 1 1 33
M  V30 39 1 1 34
M  V30 40 1 3 35
M  V30 41 1 4 36
M  V30 42 1 7 37
M  V30 43 1 8 38
M  V30 44 1 9 39
M  V30 45 1 9 40
M  V30 46 1 10 41
M  V30 47 1 10 42
M  V30 48 1 16 43
M  V30 49 1 17 44
M  V30 50 1 20 45
M  V30 51 1 21 46
M  V30 52 1 25 47
M  V30 53 1 25 48
M  V30 54 1 26 49
M  V30 55 1 26 50
M  V30 56 1 30 51
M  V30 57 1 30 52
M  V30 58 1 31 53
M  V30 59 1 31 54
M  V30 END BOND
M  V30 END CTAB
M  END
>  <Dataset>  (207) 
ChEMBL_Kinases

>  <Ligand_Instance>  (207) 
nan

>  <PDB_ID>  (207) 
nan

>  <Standardized_SMILES>  (207) 
Cc1ccc2c(NC3CC3)noc2c1-c1ccc2c(c1)NC(=O)C21CCC(F)(F)CC1

>  <Name>  (207) 
nan

>  <Pocket>  (207) 
nan

>  <ATP_Site>  (207) 
nan

>  <Peripheral>  (207) 
nan

>  <Num_H_Atoms_ProtBoundConf>  (207) 
nan

>  <Num_Resolved_Atoms>  (207) 
nan

>  <Num_Not_Resolved_Atoms>  (207) 
nan

$$$$
CHEMBL1911340
     RDKit          3D

  0  0  0  0  0  0  0  0  0  0999 V3000
M  V30 BEGIN CTAB
M  V30 COUNTS 40 43 0 0 0
M  V30 BEGIN ATOM
M  V30 1 C -0.050763 -3.540120 -0.029949 0
M  V30 2 C 1.144329 -2.840528 -0.570291 0
M  V30 3 C 2.094650 -3.537854 -1.308023 0
M  V30 4 C 3.216165 -2.945396 -1.830830 0
M  V30 5 C 3.362852 -1.581544 -1.583102 0
M  V30 6 C 4.337505 -0.650183 -1.935106 0
M  V30 7 N 5.525795 -0.916214 -2.708672 0
M  V30 8 N 3.967919 0.543985 -1.421393 0
M  V30 9 O 2.826184 0.398459 -0.776704 0
M  V30 10 C 2.446817 -0.852549 -0.858023 0
M  V30 11 C 1.322165 -1.492350 -0.344976 0
M  V30 12 C 0.346245 -0.713971 0.427937 0
M  V30 13 C 0.636560 -0.698830 1.779208 0
M  V30 14 C -0.183264 -0.010500 2.649287 0
M  V30 15 C -1.290631 0.661558 2.172847 0
M  V30 16 C -1.573913 0.641900 0.823004 0
M  V30 17 C -0.770371 -0.039239 -0.071337 0
M  V30 18 N -2.754450 1.394174 0.544669 0
M  V30 19 C -3.223618 1.905558 1.795558 0
M  V30 20 O -4.255129 2.619874 1.917827 0
M  V30 21 C -2.323021 1.468062 2.881986 0
M  V30 22 C -3.027563 0.644837 3.938214 0
M  V30 23 C -1.677275 2.656379 3.581596 0
M  V30 24 H -0.826261 -3.519678 -0.836393 0
M  V30 25 H -0.381268 -3.157680 0.936093 0
M  V30 26 H 0.167328 -4.621781 0.109058 0
M  V30 27 H 1.909000 -4.592536 -1.456570 0
M  V30 28 H 3.956262 -3.484303 -2.404322 0
M  V30 29 H 5.811606 -0.506586 -3.630954 0
M  V30 30 H 6.252605 -1.588383 -2.389894 0
M  V30 31 H 1.479055 -1.194323 2.243019 0
M  V30 32 H 0.025197 0.017243 3.727545 0
M  V30 33 H -0.901687 -0.114413 -1.120597 0
M  V30 34 H -3.224475 1.566026 -0.384486 0
M  V30 35 H -2.789383 0.995746 4.981510 0
M  V30 36 H -2.782285 -0.425567 3.848460 0
M  V30 37 H -4.117792 0.765197 3.824976 0
M  V30 38 H -0.818368 3.011315 2.947570 0
M  V30 39 H -1.283143 2.365660 4.565998 0
M  V30 40 H -2.370099 3.520109 3.671085 0
M  V30 END ATOM
M  V30 BEGIN BOND
M  V30 1 1 1 2
M  V30 2 2 2 3
M  V30 3 1 3 4
M  V30 4 2 4 5
M  V30 5 1 5 6
M  V30 6 1 6 7
M  V30 7 2 6 8
M  V30 8 1 8 9
M  V30 9 1 9 10
M  V30 10 2 10 11
M  V30 11 1 11 12
M  V30 12 2 12 13
M  V30 13 1 13 14
M  V30 14 2 14 15
M  V30 15 1 15 16
M  V30 16 2 16 17
M  V30 17 1 16 18
M  V30 18 1 18 19
M  V30 19 2 19 20
M  V30 20 1 19 21
M  V30 21 1 21 22
M  V30 22 1 21 23
M  V30 23 1 11 2
M  V30 24 1 17 12
M  V30 25 1 10 5
M  V30 26 1 21 15
M  V30 27 1 1 24
M  V30 28 1 1 25
M  V30 29 1 1 26
M  V30 30 1 3 27
M  V30 31 1 4 28
M  V30 32 1 7 29
M  V30 33 1 7 30
M  V30 34 1 13 31
M  V30 35 1 14 32
M  V30 36 1 17 33
M  V30 37 1 18 34
M  V30 38 1 22 35
M  V30 39 1 22 36
M  V30 40 1 22 37
M  V30 41 1 23 38
M  V30 42 1 23 39
M  V30 43 1 23 40
M  V30 END BOND
M  V30 END CTAB
M  END
>  <Dataset>  (208) 
ChEMBL_Kinases

>  <Ligand_Instance>  (208) 
nan

>  <PDB_ID>  (208) 
nan

>  <Standardized_SMILES>  (208) 
Cc1ccc2c(N)noc2c1-c1ccc2c(c1)NC(=O)C2(C)C

>  <Name>  (208) 
nan

>  <Pocket>  (208) 
nan

>  <ATP_Site>  (208) 
nan

>  <Peripheral>  (208) 
nan

>  <Num_H_Atoms_ProtBoundConf>  (208) 
nan

>  <Num_Resolved_Atoms>  (208) 
nan

>  <Num_Not_Resolved_Atoms>  (208) 
nan

$$$$
CHEMBL1911341
     RDKit          3D

  0  0  0  0  0  0  0  0  0  0999 V3000
M  V30 BEGIN CTAB
M  V30 COUNTS 45 49 0 0 0
M  V30 BEGIN ATOM
M  V30 1 C 3.559354 -1.675958 1.430876 0
M  V30 2 C 3.442836 -1.469316 -0.036267 0
M  V30 3 C 4.493281 -1.700316 -0.911101 0
M  V30 4 C 4.368865 -1.502056 -2.284106 0
M  V30 5 C 3.137438 -1.060024 -2.738042 0
M  V30 6 C 2.741489 -0.784481 -4.036708 0
M  V30 7 N 3.467288 -0.870824 -5.274237 0
M  V30 8 N 1.453592 -0.390582 -3.920434 0
M  V30 9 O 1.074596 -0.413895 -2.683243 0
M  V30 10 C 2.054200 -0.814339 -1.900470 0
M  V30 11 C 2.229100 -1.026423 -0.546008 0
M  V30 12 C 1.055793 -0.750556 0.276625 0
M  V30 13 C 0.870070 0.515569 0.790897 0
M  V30 14 C -0.252368 0.731247 1.562815 0
M  V30 15 C -1.215376 -0.203980 1.873212 0
M  V30 16 C -0.969290 -1.456607 1.325104 0
M  V30 17 C 0.133840 -1.735732 0.545424 0
M  V30 18 N -1.985160 -2.394694 1.662612 0
M  V30 19 C -2.923719 -1.692331 2.468510 0
M  V30 20 O -3.971527 -2.152234 2.970812 0
M  V30 21 C -2.467193 -0.263695 2.642021 0
M  V30 22 C -2.312776 -0.074309 4.118774 0
M  V30 23 C -1.839397 1.307444 4.401764 0
M  V30 24 O -2.451574 2.258588 3.641322 0
M  V30 25 C -3.671919 1.875308 3.107459 0
M  V30 26 C -3.531932 0.694701 2.161966 0
M  V30 27 H 4.646814 -1.730764 1.691858 0
M  V30 28 H 3.121455 -0.833045 2.016405 0
M  V30 29 H 3.130002 -2.652279 1.749304 0
M  V30 30 H 5.436506 -2.046208 -0.500197 0
M  V30 31 H 5.191244 -1.682725 -2.970594 0
M  V30 32 H 4.352028 -0.362991 -5.553683 0
M  V30 33 H 3.016142 -1.536150 -5.946405 0
M  V30 34 H 1.581000 1.308256 0.593906 0
M  V30 35 H -0.358392 1.734691 1.943206 0
M  V30 36 H 0.341429 -2.703027 0.111297 0
M  V30 37 H -2.088256 -3.390285 1.413324 0
M  V30 38 H -3.340603 -0.165399 4.550262 0
M  V30 39 H -1.708726 -0.850119 4.606740 0
M  V30 40 H -0.719280 1.359331 4.279802 0
M  V30 41 H -2.013663 1.549539 5.488497 0
M  V30 42 H -4.465299 1.709051 3.871467 0
M  V30 43 H -4.039398 2.724595 2.493983 0
M  V30 44 H -4.484500 0.168997 2.087629 0
M  V30 45 H -3.259182 1.075023 1.143769 0
M  V30 END ATOM
M  V30 BEGIN BOND
M  V30 1 1 1 2
M  V30 2 2 2 3
M  V30 3 1 3 4
M  V30 4 2 4 5
M  V30 5 1 5 6
M  V30 6 1 6 7
M  V30 7 2 6 8
M  V30 8 1 8 9
M  V30 9 1 9 10
M  V30 10 2 10 11
M  V30 11 1 11 12
M  V30 12 2 12 13
M  V30 13 1 13 14
M  V30 14 2 14 15
M  V30 15 1 15 16
M  V30 16 2 16 17
M  V30 17 1 16 18
M  V30 18 1 18 19
M  V30 19 2 19 20
M  V30 20 1 19 21
M  V30 21 1 21 22
M  V30 22 1 22 23
M  V30 23 1 23 24
M  V30 24 1 24 25
M  V30 25 1 25 26
M  V30 26 1 11 2
M  V30 27 1 17 12
M  V30 28 1 26 21
M  V30 29 1 10 5
M  V30 30 1 21 15
M  V30 31 1 1 27
M  V30 32 1 1 28
M  V30 33 1 1 29
M  V30 34 1 3 30
M  V30 35 1 4 31
M  V30 36 1 7 32
M  V30 37 1 7 33
M  V30 38 1 13 34
M  V30 39 1 14 35
M  V30 40 1 17 36
M  V30 41 1 18 37
M  V30 42 1 22 38
M  V30 43 1 22 39
M  V30 44 1 23 40
M  V30 45 1 23 41
M  V30 46 1 25 42
M  V30 47 1 25 43
M  V30 48 1 26 44
M  V30 49 1 26 45
M  V30 END BOND
M  V30 END CTAB
M  END
>  <Dataset>  (209) 
ChEMBL_Kinases

>  <Ligand_Instance>  (209) 
nan

>  <PDB_ID>  (209) 
nan

>  <Standardized_SMILES>  (209) 
Cc1ccc2c(N)noc2c1-c1ccc2c(c1)NC(=O)C21CCOCC1

>  <Name>  (209) 
nan

>  <Pocket>  (209) 
nan

>  <ATP_Site>  (209) 
nan

>  <Peripheral>  (209) 
nan

>  <Num_H_Atoms_ProtBoundConf>  (209) 
nan

>  <Num_Resolved_Atoms>  (209) 
nan

>  <Num_Not_Resolved_Atoms>  (209) 
nan

$$$$
CHEMBL1911342
     RDKit          3D

  0  0  0  0  0  0  0  0  0  0999 V3000
M  V30 BEGIN CTAB
M  V30 COUNTS 47 51 0 0 0
M  V30 BEGIN ATOM
M  V30 1 C 0.933270 -0.746134 -2.877208 0
M  V30 2 C 1.994072 0.136986 -2.292120 0
M  V30 3 C 3.029078 0.577391 -3.098014 0
M  V30 4 C 4.052623 1.398452 -2.634951 0
M  V30 5 C 4.039663 1.790451 -1.325672 0
M  V30 6 C 4.847683 2.572171 -0.523622 0
M  V30 7 N 6.052247 3.240419 -0.952714 0
M  V30 8 N 4.293368 2.585902 0.723774 0
M  V30 9 O 3.206002 1.858514 0.705307 0
M  V30 10 C 3.012606 1.362401 -0.496635 0
M  V30 11 C 1.998742 0.546125 -0.965064 0
M  V30 12 C 0.920101 0.097689 -0.090671 0
M  V30 13 C 1.153530 -1.090863 0.570654 0
M  V30 14 C 0.207585 -1.623726 1.429900 0
M  V30 15 C -0.969998 -0.923449 1.597360 0
M  V30 16 C -1.219560 0.265752 0.944240 0
M  V30 17 C -0.258170 0.776249 0.091516 0
M  V30 18 N -2.527990 0.719331 1.344978 0
M  V30 19 C -3.079543 -0.236122 2.272544 0
M  V30 20 O -4.225580 0.000668 2.729693 0
M  V30 21 C -2.105625 -1.334685 2.477751 0
M  V30 22 C -2.584902 -2.661645 1.984989 0
M  V30 23 C -3.622935 -3.316596 2.834664 0
M  V30 24 C -3.397108 -3.211040 4.308519 0
M  V30 25 F -2.560052 -4.221192 4.791322 0
M  V30 26 F -4.612243 -3.411801 4.945635 0
M  V30 27 C -2.873809 -1.856735 4.727765 0
M  V30 28 C -1.697766 -1.412738 3.913741 0
M  V30 29 H 0.532191 -1.384441 -2.080420 0
M  V30 30 H 1.379588 -1.455024 -3.626742 0
M  V30 31 H 0.165420 -0.177324 -3.431009 0
M  V30 32 H 3.035534 0.263320 -4.138429 0
M  V30 33 H 4.860936 1.741181 -3.268321 0
M  V30 34 H 6.881068 2.869394 -0.431646 0
M  V30 35 H 5.989051 3.977309 -1.688680 0
M  V30 36 H 2.077179 -1.651009 0.446494 0
M  V30 37 H 0.421769 -2.569023 1.940605 0
M  V30 38 H -0.418893 1.692432 -0.428558 0
M  V30 39 H -2.917311 1.621861 0.956368 0
M  V30 40 H -3.067843 -2.467728 0.985655 0
M  V30 41 H -1.709857 -3.307862 1.775750 0
M  V30 42 H -4.654586 -3.016574 2.535014 0
M  V30 43 H -3.585701 -4.417744 2.589563 0
M  V30 44 H -3.655411 -1.098406 4.712279 0
M  V30 45 H -2.536433 -1.952836 5.787638 0
M  V30 46 H -1.393046 -0.421144 4.300035 0
M  V30 47 H -0.818858 -2.072432 4.048318 0
M  V30 END ATOM
M  V30 BEGIN BOND
M  V30 1 1 1 2
M  V30 2 2 2 3
M  V30 3 1 3 4
M  V30 4 2 4 5
M  V30 5 1 5 6
M  V30 6 1 6 7
M  V30 7 2 6 8
M  V30 8 1 8 9
M  V30 9 1 9 10
M  V30 10 2 10 11
M  V30 11 1 11 12
M  V30 12 2 12 13
M  V30 13 1 13 14
M  V30 14 2 14 15
M  V30 15 1 15 16
M  V30 16 2 16 17
M  V30 17 1 16 18
M  V30 18 1 18 19
M  V30 19 2 19 20
M  V30 20 1 19 21
M  V30 21 1 21 22
M  V30 22 1 22 23
M  V30 23 1 23 24
M  V30 24 1 24 25
M  V30 25 1 24 26
M  V30 26 1 24 27
M  V30 27 1 27 28
M  V30 28 1 11 2
M  V30 29 1 17 12
M  V30 30 1 28 21
M  V30 31 1 10 5
M  V30 32 1 21 15
M  V30 33 1 1 29
M  V30 34 1 1 30
M  V30 35 1 1 31
M  V30 36 1 3 32
M  V30 37 1 4 33
M  V30 38 1 7 34
M  V30 39 1 7 35
M  V30 40 1 13 36
M  V30 41 1 14 37
M  V30 42 1 17 38
M  V30 43 1 18 39
M  V30 44 1 22 40
M  V30 45 1 22 41
M  V30 46 1 23 42
M  V30 47 1 23 43
M  V30 48 1 27 44
M  V30 49 1 27 45
M  V30 50 1 28 46
M  V30 51 1 28 47
M  V30 END BOND
M  V30 END CTAB
M  END
>  <Dataset>  (210) 
ChEMBL_Kinases

>  <Ligand_Instance>  (210) 
nan

>  <PDB_ID>  (210) 
nan

>  <Standardized_SMILES>  (210) 
Cc1ccc2c(N)noc2c1-c1ccc2c(c1)NC(=O)C21CCC(F)(F)CC1

>  <Name>  (210) 
nan

>  <Pocket>  (210) 
nan

>  <ATP_Site>  (210) 
nan

>  <Peripheral>  (210) 
nan

>  <Num_H_Atoms_ProtBoundConf>  (210) 
nan

>  <Num_Resolved_Atoms>  (210) 
nan

>  <Num_Not_Resolved_Atoms>  (210) 
nan

$$$$
CHEMBL1911344
     RDKit          3D

  0  0  0  0  0  0  0  0  0  0999 V3000
M  V30 BEGIN CTAB
M  V30 COUNTS 44 48 0 0 0
M  V30 BEGIN ATOM
M  V30 1 C 2.395704 -3.157977 0.395608 0
M  V30 2 C 2.632879 -2.307109 -0.807612 0
M  V30 3 C 3.560028 -2.699548 -1.775769 0
M  V30 4 C 3.686980 -1.828057 -2.837752 0
M  V30 5 N 3.003881 -0.683414 -2.983814 0
M  V30 6 C 2.962921 0.295281 -3.906753 0
M  V30 7 N 3.781384 0.255996 -5.069954 0
M  V30 8 N 2.051840 1.228575 -3.505511 0
M  V30 9 N 1.534966 0.820056 -2.335634 0
M  V30 10 C 2.130380 -0.346508 -2.038704 0
M  V30 11 C 1.895285 -1.123132 -0.913112 0
M  V30 12 C 0.935224 -0.737066 0.109807 0
M  V30 13 C 1.290162 0.041646 1.213446 0
M  V30 14 C 0.343179 0.390685 2.171341 0
M  V30 15 C -0.976690 -0.016086 2.069947 0
M  V30 16 C -1.318130 -0.785087 0.976274 0
M  V30 17 C -0.382827 -1.133299 0.024596 0
M  V30 18 N -2.700088 -1.121804 1.013548 0
M  V30 19 C -3.213370 -0.519868 2.196513 0
M  V30 20 O -4.342941 -0.467135 2.754389 0
M  V30 21 C -2.159590 0.218791 2.943048 0
M  V30 22 C -2.470026 1.655105 3.179336 0
M  V30 23 C -1.838306 1.960851 4.520419 0
M  V30 24 C -1.453951 0.656287 5.156110 0
M  V30 25 C -1.985346 -0.441314 4.292515 0
M  V30 26 H 2.390055 -2.493855 1.301689 0
M  V30 27 H 3.200996 -3.882984 0.562792 0
M  V30 28 H 1.392322 -3.614821 0.300841 0
M  V30 29 H 4.121700 -3.608454 -1.688079 0
M  V30 30 H 4.394844 -2.089885 -3.614909 0
M  V30 31 H 3.657707 0.331015 -6.100589 0
M  V30 32 H 3.604589 0.338095 -6.104186 0
M  V30 33 H 2.308138 0.374686 1.322706 0
M  V30 34 H 0.634361 1.001360 3.031452 0
M  V30 35 H -0.658946 -1.740771 -0.836686 0
M  V30 36 H -3.330200 -1.672865 0.391246 0
M  V30 37 H -2.057852 2.333895 2.381922 0
M  V30 38 H -3.562464 1.819658 3.273188 0
M  V30 39 H -2.574089 2.456537 5.205973 0
M  V30 40 H -0.962220 2.647342 4.395477 0
M  V30 41 H -0.358669 0.511603 5.274459 0
M  V30 42 H -1.908187 0.520577 6.175801 0
M  V30 43 H -2.993993 -0.786434 4.620801 0
M  V30 44 H -1.263757 -1.271387 4.141405 0
M  V30 END ATOM
M  V30 BEGIN BOND
M  V30 1 1 1 2
M  V30 2 1 2 3
M  V30 3 2 3 4
M  V30 4 1 4 5
M  V30 5 1 5 6
M  V30 6 1 6 7
M  V30 7 2 6 8
M  V30 8 1 8 9
M  V30 9 2 9 10
M  V30 10 1 10 11
M  V30 11 1 11 12
M  V30 12 2 12 13
M  V30 13 1 13 14
M  V30 14 2 14 15
M  V30 15 1 15 16
M  V30 16 2 16 17
M  V30 17 1 16 18
M  V30 18 1 18 19
M  V30 19 2 19 20
M  V30 20 1 19 21
M  V30 21 1 21 22
M  V30 22 1 22 23
M  V30 23 1 23 24
M  V30 24 1 24 25
M  V30 25 2 11 2
M  V30 26 1 17 12
M  V30 27 1 25 21
M  V30 28 1 10 5
M  V30 29 1 21 15
M  V30 30 1 1 26
M  V30 31 1 1 27
M  V30 32 1 1 28
M  V30 33 1 3 29
M  V30 34 1 4 30
M  V30 35 1 7 31
M  V30 36 1 7 32
M  V30 37 1 13 33
M  V30 38 1 14 34
M  V30 39 1 17 35
M  V30 40 1 18 36
M  V30 41 1 22 37
M  V30 42 1 22 38
M  V30 43 1 23 39
M  V30 44 1 23 40
M  V30 45 1 24 41
M  V30 46 1 24 42
M  V30 47 1 25 43
M  V30 48 1 25 44
M  V30 END BOND
M  V30 END CTAB
M  END
>  <Dataset>  (211) 
ChEMBL_Kinases

>  <Ligand_Instance>  (211) 
nan

>  <PDB_ID>  (211) 
nan

>  <Standardized_SMILES>  (211) 
Cc1ccn2c(N)nnc2c1-c1ccc2c(c1)NC(=O)C21CCCC1

>  <Name>  (211) 
nan

>  <Pocket>  (211) 
nan

>  <ATP_Site>  (211) 
nan

>  <Peripheral>  (211) 
nan

>  <Num_H_Atoms_ProtBoundConf>  (211) 
nan

>  <Num_Resolved_Atoms>  (211) 
nan

>  <Num_Not_Resolved_Atoms>  (211) 
nan

$$$$
CHEMBL1911335
     RDKit          3D

  0  0  0  0  0  0  0  0  0  0999 V3000
M  V30 BEGIN CTAB
M  V30 COUNTS 48 53 0 0 0
M  V30 BEGIN ATOM
M  V30 1 O -3.996299 -5.219696 -0.157785 0
M  V30 2 C -3.340802 -4.166232 0.101512 0
M  V30 3 N -2.766897 -3.390414 -0.945169 0
M  V30 4 C -2.113626 -2.308879 -0.271291 0
M  V30 5 C -1.405585 -1.286555 -0.872487 0
M  V30 6 C -0.811582 -0.296579 -0.120307 0
M  V30 7 C -0.067775 0.777333 -0.732113 0
M  V30 8 C -0.434723 1.509833 -1.832913 0
M  V30 9 C 0.326263 2.527564 -2.369803 0
M  V30 10 C 1.546500 2.845971 -1.770655 0
M  V30 11 C 1.892677 2.102625 -0.674030 0
M  V30 12 C 3.057998 2.234648 0.089660 0
M  V30 13 N 4.179472 3.127268 -0.025109 0
M  V30 14 C 5.289276 3.075373 0.899707 0
M  V30 15 C 6.107779 1.810137 1.033279 0
M  V30 16 C 6.673678 3.067488 0.364009 0
M  V30 17 N 2.941043 1.294836 1.042925 0
M  V30 18 O 1.825831 0.628192 0.912708 0
M  V30 19 C 1.146861 1.068564 -0.107171 0
M  V30 20 C -0.941435 -0.348980 1.272162 0
M  V30 21 C -1.661219 -1.397060 1.798080 0
M  V30 22 C -2.274427 -2.409812 1.108114 0
M  V30 23 C -3.078909 -3.601890 1.452567 0
M  V30 24 C -4.396288 -3.281210 2.100497 0
M  V30 25 C -4.022370 -3.172912 3.560089 0
M  V30 26 C -2.813971 -4.038049 3.746636 0
M  V30 27 C -2.425176 -4.549040 2.380743 0
M  V30 28 H -2.815810 -3.575001 -1.969695 0
M  V30 29 H -1.287361 -1.218915 -1.951286 0
M  V30 30 H -1.400254 1.218910 -2.263606 0
M  V30 31 H -0.034698 3.067770 -3.253171 0
M  V30 32 H 2.163701 3.623930 -2.153364 0
M  V30 33 H 4.117891 3.799580 -0.818950 0
M  V30 34 H 5.077414 3.551412 1.892698 0
M  V30 35 H 6.573111 1.571896 2.004302 0
M  V30 36 H 5.775193 0.999603 0.369303 0
M  V30 37 H 7.420286 3.643626 0.918567 0
M  V30 38 H 6.762997 2.997355 -0.751169 0
M  V30 39 H -0.479711 0.420127 1.860439 0
M  V30 40 H -1.714903 -1.367347 2.876237 0
M  V30 41 H -5.102223 -4.121681 1.908279 0
M  V30 42 H -4.798188 -2.327469 1.699524 0
M  V30 43 H -4.869044 -3.463931 4.217261 0
M  V30 44 H -3.820215 -2.087508 3.759977 0
M  V30 45 H -3.043089 -4.861236 4.452401 0
M  V30 46 H -2.014606 -3.434884 4.231336 0
M  V30 47 H -2.876143 -5.564550 2.184952 0
M  V30 48 H -1.326616 -4.641422 2.296838 0
M  V30 END ATOM
M  V30 BEGIN BOND
M  V30 1 2 1 2
M  V30 2 1 2 3
M  V30 3 1 3 4
M  V30 4 2 4 5
M  V30 5 1 5 6
M  V30 6 1 6 7
M  V30 7 2 7 8
M  V30 8 1 8 9
M  V30 9 2 9 10
M  V30 10 1 10 11
M  V30 11 1 11 12
M  V30 12 1 12 13
M  V30 13 1 13 14
M  V30 14 1 14 15
M  V30 15 1 15 16
M  V30 16 2 12 17
M  V30 17 1 17 18
M  V30 18 1 18 19
M  V30 19 2 6 20
M  V30 20 1 20 21
M  V30 21 2 21 22
M  V30 22 1 22 23
M  V30 23 1 23 24
M  V30 24 1 24 25
M  V30 25 1 25 26
M  V30 26 1 26 27
M  V30 27 1 23 2
M  V30 28 1 22 4
M  V30 29 1 27 23
M  V30 30 1 19 7
M  V30 31 2 19 11
M  V30 32 1 16 14
M  V30 33 1 3 28
M  V30 34 1 5 29
M  V30 35 1 8 30
M  V30 36 1 9 31
M  V30 37 1 10 32
M  V30 38 1 13 33
M  V30 39 1 14 34
M  V30 40 1 15 35
M  V30 41 1 15 36
M  V30 42 1 16 37
M  V30 43 1 16 38
M  V30 44 1 20 39
M  V30 45 1 21 40
M  V30 46 1 24 41
M  V30 47 1 24 42
M  V30 48 1 25 43
M  V30 49 1 25 44
M  V30 50 1 26 45
M  V30 51 1 26 46
M  V30 52 1 27 47
M  V30 53 1 27 48
M  V30 END BOND
M  V30 END CTAB
M  END
>  <Dataset>  (212) 
ChEMBL_Kinases

>  <Ligand_Instance>  (212) 
nan

>  <PDB_ID>  (212) 
nan

>  <Standardized_SMILES>  (212) 
O=C1Nc2cc(-c3cccc4c(NC5CC5)noc34)ccc2C12CCCC2

>  <Name>  (212) 
nan

>  <Pocket>  (212) 
nan

>  <ATP_Site>  (212) 
nan

>  <Peripheral>  (212) 
nan

>  <Num_H_Atoms_ProtBoundConf>  (212) 
nan

>  <Num_Resolved_Atoms>  (212) 
nan

>  <Num_Not_Resolved_Atoms>  (212) 
nan

$$$$
CHEMBL1917921
     RDKit          3D

  0  0  0  0  0  0  0  0  0  0999 V3000
M  V30 BEGIN CTAB
M  V30 COUNTS 59 63 0 0 0
M  V30 BEGIN ATOM
M  V30 1 O -0.271228 -4.613446 3.971218 0
M  V30 2 C 0.540952 -4.246435 3.057258 0
M  V30 3 C 1.598280 -3.234986 3.420368 0
M  V30 4 C 1.760628 -2.185798 2.390372 0
M  V30 5 C 2.133483 -0.839970 2.824986 0
M  V30 6 C 2.352066 -0.472536 4.126341 0
M  V30 7 C 2.698928 0.777854 4.564730 0
M  V30 8 C 2.849900 1.782197 3.631859 0
M  V30 9 C 2.647129 1.492036 2.299843 0
M  V30 10 N 2.801993 2.525005 1.331222 0
M  V30 11 C 1.685249 3.349259 0.952933 0
M  V30 12 O 0.548077 3.141999 1.498438 0
M  V30 13 N 1.713714 4.400948 0.008744 0
M  V30 14 C 0.450890 5.064569 -0.180079 0
M  V30 15 C 0.013189 6.170523 0.547798 0
M  V30 16 C -1.217310 6.715799 0.271019 0
M  V30 17 C -2.051709 6.205733 -0.713831 0
M  V30 18 Cl -3.622894 6.939088 -1.033750 0
M  V30 19 C -1.618325 5.096435 -1.447422 0
M  V30 20 C -2.501004 4.542076 -2.502368 0
M  V30 21 F -1.853954 3.467047 -3.071174 0
M  V30 22 F -3.753434 4.222628 -2.027535 0
M  V30 23 F -2.684185 5.466836 -3.529572 0
M  V30 24 C -0.375851 4.554500 -1.160110 0
M  V30 25 C 2.301614 0.212350 1.947669 0
M  V30 26 N 1.633918 -2.235111 1.132538 0
M  V30 27 C 1.299305 -3.263514 0.213097 0
M  V30 28 C 1.489723 -3.342458 -1.148925 0
M  V30 29 N 0.992690 -4.540221 -1.578189 0
M  V30 30 N 0.497307 -5.219418 -0.545642 0
M  V30 31 C -0.095629 -6.526213 -0.748193 0
M  V30 32 C -1.540459 -6.358420 -1.047935 0
M  V30 33 C -2.615200 -6.344910 -0.184251 0
M  V30 34 C -3.896622 -6.174693 -0.643645 0
M  V30 35 C -4.191575 -6.008055 -1.981000 0
M  V30 36 C -3.153310 -6.013861 -2.885670 0
M  V30 37 C -1.878032 -6.186679 -2.396093 0
M  V30 38 C 0.679851 -4.453267 0.539170 0
M  V30 39 N 0.253107 -4.915070 1.814999 0
M  V30 40 H 1.290061 -2.855021 4.407119 0
M  V30 41 H 2.562263 -3.776656 3.613214 0
M  V30 42 H 2.258351 -1.196505 4.918447 0
M  V30 43 H 2.861806 1.023243 5.603936 0
M  V30 44 H 3.120277 2.785034 3.905011 0
M  V30 45 H 3.697956 2.728619 0.864780 0
M  V30 46 H 2.636843 4.591600 -0.454167 0
M  V30 47 H 0.694495 6.538677 1.308144 0
M  V30 48 H -1.529508 7.580029 0.858511 0
M  V30 49 H -0.081211 3.695022 -1.754293 0
M  V30 50 H 2.158368 0.058966 0.881085 0
M  V30 51 H 1.962367 -2.544583 -1.708279 0
M  V30 52 H -0.011720 -7.156504 0.159927 0
M  V30 53 H 0.368793 -7.065191 -1.590109 0
M  V30 54 H -2.349394 -6.478546 0.850873 0
M  V30 55 H -4.708016 -6.171290 0.075040 0
M  V30 56 H -5.183785 -5.871290 -2.381976 0
M  V30 57 H -3.327986 -5.887604 -3.944525 0
M  V30 58 H -1.081341 -6.184399 -3.156562 0
M  V30 59 H -0.291023 -5.780361 1.834156 0
M  V30 END ATOM
M  V30 BEGIN BOND
M  V30 1 2 1 2
M  V30 2 1 2 3
M  V30 3 1 3 4
M  V30 4 1 4 5
M  V30 5 2 5 6
M  V30 6 1 6 7
M  V30 7 2 7 8
M  V30 8 1 8 9
M  V30 9 1 9 10
M  V30 10 1 10 11
M  V30 11 2 11 12
M  V30 12 1 11 13
M  V30 13 1 13 14
M  V30 14 2 14 15
M  V30 15 1 15 16
M  V30 16 2 16 17
M  V30 17 1 17 18
M  V30 18 1 17 19
M  V30 19 1 19 20
M  V30 20 1 20 21
M  V30 21 1 20 22
M  V30 22 1 20 23
M  V30 23 2 19 24
M  V30 24 2 9 25
M  V30 25 2 4 26
M  V30 26 1 26 27
M  V30 27 1 27 28
M  V30 28 2 28 29
M  V30 29 1 29 30
M  V30 30 1 30 31
M  V30 31 1 31 32
M  V30 32 2 32 33
M  V30 33 1 33 34
M  V30 34 2 34 35
M  V30 35 1 35 36
M  V30 36 2 36 37
M  V30 37 1 30 38
M  V30 38 1 38 39
M  V30 39 1 39 2
M  V30 40 1 25 5
M  V30 41 2 38 27
M  V30 42 1 24 14
M  V30 43 1 37 32
M  V30 44 1 3 40
M  V30 45 1 3 41
M  V30 46 1 6 42
M  V30 47 1 7 43
M  V30 48 1 8 44
M  V30 49 1 10 45
M  V30 50 1 13 46
M  V30 51 1 15 47
M  V30 52 1 16 48
M  V30 53 1 24 49
M  V30 54 1 25 50
M  V30 55 1 28 51
M  V30 56 1 31 52
M  V30 57 1 31 53
M  V30 58 1 33 54
M  V30 59 1 34 55
M  V30 60 1 35 56
M  V30 61 1 36 57
M  V30 62 1 37 58
M  V30 63 1 39 59
M  V30 END BOND
M  V30 END CTAB
M  END
>  <Dataset>  (213) 
ChEMBL_Kinases

>  <Ligand_Instance>  (213) 
nan

>  <PDB_ID>  (213) 
nan

>  <Standardized_SMILES>  (213) 
O=C1CC(c2cccc(NC(=O)Nc3ccc(Cl)c(C(F)(F)F)c3)c2)=Nc2cnn(Cc3ccccc3)c2N1

>  <Name>  (213) 
nan

>  <Pocket>  (213) 
nan

>  <ATP_Site>  (213) 
nan

>  <Peripheral>  (213) 
nan

>  <Num_H_Atoms_ProtBoundConf>  (213) 
nan

>  <Num_Resolved_Atoms>  (213) 
nan

>  <Num_Not_Resolved_Atoms>  (213) 
nan

$$$$
CHEMBL1917776
     RDKit          3D

  0  0  0  0  0  0  0  0  0  0999 V3000
M  V30 BEGIN CTAB
M  V30 COUNTS 57 61 0 0 0
M  V30 BEGIN ATOM
M  V30 1 O 0.137086 -4.653731 3.612326 0
M  V30 2 C 0.481661 -4.390672 2.406973 0
M  V30 3 C 1.803432 -3.708061 2.172852 0
M  V30 4 C 1.677944 -2.491067 1.342548 0
M  V30 5 C 2.425392 -1.278056 1.663705 0
M  V30 6 C 3.293485 -1.144665 2.724833 0
M  V30 7 C 4.009655 -0.015665 3.055728 0
M  V30 8 C 3.855682 1.098842 2.259124 0
M  V30 9 C 3.000160 1.026557 1.181583 0
M  V30 10 N 2.804240 2.165753 0.318162 0
M  V30 11 C 1.726252 2.916957 0.845429 0
M  V30 12 O 1.229227 2.410684 1.903902 0
M  V30 13 C 1.172934 4.160234 0.295923 0
M  V30 14 C 0.115057 4.691733 1.007043 0
M  V30 15 C -0.430013 5.863377 0.516792 0
M  V30 16 C 0.083798 6.442341 -0.627364 0
M  V30 17 Cl -0.707337 7.924932 -1.130888 0
M  V30 18 C 1.150853 5.869319 -1.309442 0
M  V30 19 C 1.616299 6.588027 -2.531070 0
M  V30 20 F 2.665859 5.976332 -3.155903 0
M  V30 21 F 1.935876 7.892169 -2.137197 0
M  V30 22 F 0.536279 6.753764 -3.406733 0
M  V30 23 C 1.710090 4.695790 -0.833708 0
M  V30 24 C 2.321003 -0.128025 0.912689 0
M  V30 25 N 0.960282 -2.333061 0.309918 0
M  V30 26 C 0.064663 -3.169113 -0.414479 0
M  V30 27 C -0.373763 -3.116818 -1.721264 0
M  V30 28 N -1.221557 -4.144879 -1.905636 0
M  V30 29 N -1.361389 -4.864573 -0.794721 0
M  V30 30 C -2.234073 -6.022378 -0.751608 0
M  V30 31 C -3.614906 -5.621325 -0.371103 0
M  V30 32 C -4.443733 -5.244051 -1.432178 0
M  V30 33 C -5.754186 -4.842574 -1.284835 0
M  V30 34 C -6.302249 -4.803440 -0.018169 0
M  V30 35 C -5.504308 -5.168800 1.023059 0
M  V30 36 C -4.202782 -5.567420 0.875189 0
M  V30 37 C -0.575617 -4.271780 0.122025 0
M  V30 38 N -0.494273 -4.810100 1.437633 0
M  V30 39 H 2.452071 -4.479850 1.664238 0
M  V30 40 H 2.275332 -3.554782 3.154149 0
M  V30 41 H 3.459494 -1.981563 3.385324 0
M  V30 42 H 4.670252 0.027720 3.894382 0
M  V30 43 H 4.399797 1.997768 2.488476 0
M  V30 44 H 3.246348 2.555795 -0.565976 0
M  V30 45 H -0.295047 4.254608 1.896441 0
M  V30 46 H -1.268862 6.296250 1.069771 0
M  V30 47 H 2.529320 4.280485 -1.380871 0
M  V30 48 H 1.650449 -0.132453 0.040157 0
M  V30 49 H -0.030564 -2.341625 -2.391431 0
M  V30 50 H -1.922968 -6.743816 0.033327 0
M  V30 51 H -2.264658 -6.513236 -1.745678 0
M  V30 52 H -4.080018 -5.250932 -2.451458 0
M  V30 53 H -6.357402 -4.559611 -2.135745 0
M  V30 54 H -7.320900 -4.499489 0.172840 0
M  V30 55 H -5.912397 -5.146728 2.032618 0
M  V30 56 H -3.542859 -5.864948 1.677981 0
M  V30 57 H -1.182398 -5.543901 1.691404 0
M  V30 END ATOM
M  V30 BEGIN BOND
M  V30 1 2 1 2
M  V30 2 1 2 3
M  V30 3 1 3 4
M  V30 4 1 4 5
M  V30 5 2 5 6
M  V30 6 1 6 7
M  V30 7 2 7 8
M  V30 8 1 8 9
M  V30 9 1 9 10
M  V30 10 1 10 11
M  V30 11 2 11 12
M  V30 12 1 11 13
M  V30 13 2 13 14
M  V30 14 1 14 15
M  V30 15 2 15 16
M  V30 16 1 16 17
M  V30 17 1 16 18
M  V30 18 1 18 19
M  V30 19 1 19 20
M  V30 20 1 19 21
M  V30 21 1 19 22
M  V30 22 2 18 23
M  V30 23 2 9 24
M  V30 24 2 4 25
M  V30 25 1 25 26
M  V30 26 1 26 27
M  V30 27 2 27 28
M  V30 28 1 28 29
M  V30 29 1 29 30
M  V30 30 1 30 31
M  V30 31 2 31 32
M  V30 32 1 32 33
M  V30 33 2 33 34
M  V30 34 1 34 35
M  V30 35 2 35 36
M  V30 36 1 29 37
M  V30 37 1 37 38
M  V30 38 1 38 2
M  V30 39 1 24 5
M  V30 40 2 37 26
M  V30 41 1 23 13
M  V30 42 1 36 31
M  V30 43 1 3 39
M  V30 44 1 3 40
M  V30 45 1 6 41
M  V30 46 1 7 42
M  V30 47 1 8 43
M  V30 48 1 10 44
M  V30 49 1 14 45
M  V30 50 1 15 46
M  V30 51 1 23 47
M  V30 52 1 24 48
M  V30 53 1 27 49
M  V30 54 1 30 50
M  V30 55 1 30 51
M  V30 56 1 32 52
M  V30 57 1 33 53
M  V30 58 1 34 54
M  V30 59 1 35 55
M  V30 60 1 36 56
M  V30 61 1 38 57
M  V30 END BOND
M  V30 END CTAB
M  END
>  <Dataset>  (214) 
ChEMBL_Kinases

>  <Ligand_Instance>  (214) 
nan

>  <PDB_ID>  (214) 
nan

>  <Standardized_SMILES>  (214) 
O=C1CC(c2cccc(NC(=O)c3ccc(Cl)c(C(F)(F)F)c3)c2)=Nc2cnn(Cc3ccccc3)c2N1

>  <Name>  (214) 
nan

>  <Pocket>  (214) 
nan

>  <ATP_Site>  (214) 
nan

>  <Peripheral>  (214) 
nan

>  <Num_H_Atoms_ProtBoundConf>  (214) 
nan

>  <Num_Resolved_Atoms>  (214) 
nan

>  <Num_Not_Resolved_Atoms>  (214) 
nan

$$$$
CHEMBL191750
     RDKit          3D

  0  0  0  0  0  0  0  0  0  0999 V3000
M  V30 BEGIN CTAB
M  V30 COUNTS 24 25 0 0 0
M  V30 BEGIN ATOM
M  V30 1 O 1.655236 -3.265658 3.336411 0
M  V30 2 C 1.395201 -3.494567 2.107740 0
M  V30 3 O 2.315392 -4.077960 1.252798 0
M  V30 4 C 0.052545 -3.110217 1.611329 0
M  V30 5 C -0.758911 -2.493303 2.747814 0
M  V30 6 S 0.075269 -1.015404 3.393985 0
M  V30 7 C 0.077850 0.242098 2.095865 0
M  V30 8 N -0.403301 1.134099 1.557913 0
M  V30 9 C 0.027505 1.812195 0.504467 0
M  V30 10 C -0.579827 2.883175 -0.118472 0
M  V30 11 C 0.028795 3.458725 -1.210623 0
M  V30 12 C 1.226486 3.055672 -1.761055 0
M  V30 13 C 1.856027 1.988532 -1.159651 0
M  V30 14 C 1.230847 1.416486 -0.057842 0
M  V30 15 S 1.672205 0.014732 1.042348 0
M  V30 16 H 3.312919 -3.990648 1.479467 0
M  V30 17 H -0.524988 -3.947706 1.207484 0
M  V30 18 H 0.207238 -2.297300 0.845416 0
M  V30 19 H -1.718447 -2.156870 2.307884 0
M  V30 20 H -0.853567 -3.218118 3.562233 0
M  V30 21 H -1.535289 3.349103 0.170060 0
M  V30 22 H -0.433663 4.315770 -1.728074 0
M  V30 23 H 1.737571 3.474461 -2.611249 0
M  V30 24 H 2.789046 1.514448 -1.422235 0
M  V30 END ATOM
M  V30 BEGIN BOND
M  V30 1 2 1 2
M  V30 2 1 2 3
M  V30 3 1 2 4
M  V30 4 1 4 5
M  V30 5 1 5 6
M  V30 6 1 6 7
M  V30 7 2 7 8
M  V30 8 1 8 9
M  V30 9 2 9 10
M  V30 10 1 10 11
M  V30 11 2 11 12
M  V30 12 1 12 13
M  V30 13 2 13 14
M  V30 14 1 14 15
M  V30 15 1 15 7
M  V30 16 1 14 9
M  V30 17 1 3 16
M  V30 18 1 4 17
M  V30 19 1 4 18
M  V30 20 1 5 19
M  V30 21 1 5 20
M  V30 22 1 10 21
M  V30 23 1 11 22
M  V30 24 1 12 23
M  V30 25 1 13 24
M  V30 END BOND
M  V30 END CTAB
M  END
>  <Dataset>  (215) 
ChEMBL_Kinases

>  <Ligand_Instance>  (215) 
nan

>  <PDB_ID>  (215) 
nan

>  <Standardized_SMILES>  (215) 
O=C(O)CCSc1nc2ccccc2s1

>  <Name>  (215) 
nan

>  <Pocket>  (215) 
nan

>  <ATP_Site>  (215) 
nan

>  <Peripheral>  (215) 
nan

>  <Num_H_Atoms_ProtBoundConf>  (215) 
nan

>  <Num_Resolved_Atoms>  (215) 
nan

>  <Num_Not_Resolved_Atoms>  (215) 
nan

$$$$
CHEMBL1917018
     RDKit          3D

  0  0  0  0  0  0  0  0  0  0999 V3000
M  V30 BEGIN CTAB
M  V30 COUNTS 25 27 0 0 0
M  V30 BEGIN ATOM
M  V30 1 O 0.400877 -4.746280 0.353083 0
M  V30 2 C 1.052034 -3.730568 0.749832 0
M  V30 3 N 2.156521 -4.133593 1.497263 0
M  V30 4 C 2.956522 -3.054068 1.990909 0
M  V30 5 S 4.221266 -2.476782 2.826436 0
M  V30 6 S 2.214765 -1.503334 1.410748 0
M  V30 7 C 0.844866 -2.315197 0.561557 0
M  V30 8 C -0.139302 -1.833189 -0.125973 0
M  V30 9 C -0.310396 -0.401756 -0.287140 0
M  V30 10 C -0.492680 0.266430 -1.497544 0
M  V30 11 N -0.643209 1.597155 -1.299885 0
M  V30 12 C -0.569166 1.856338 0.018041 0
M  V30 13 C -0.660407 3.000685 0.782666 0
M  V30 14 C -0.558874 2.990371 2.169814 0
M  V30 15 C -0.356666 1.756812 2.791745 0
M  V30 16 C -0.271067 0.638771 1.993344 0
M  V30 17 C -0.366433 0.626938 0.623022 0
M  V30 18 H 2.648968 -4.976927 1.854713 0
M  V30 19 H -0.874512 -2.461441 -0.608410 0
M  V30 20 H -0.519754 -0.164233 -2.493069 0
M  V30 21 H -0.791937 2.327365 -2.009678 0
M  V30 22 H -0.816499 3.969041 0.327786 0
M  V30 23 H -0.627832 3.885379 2.773225 0
M  V30 24 H -0.278003 1.745461 3.870143 0
M  V30 25 H -0.133634 -0.268014 2.557334 0
M  V30 END ATOM
M  V30 BEGIN BOND
M  V30 1 2 1 2
M  V30 2 1 2 3
M  V30 3 1 3 4
M  V30 4 2 4 5
M  V30 5 1 4 6
M  V30 6 1 6 7
M  V30 7 2 7 8
M  V30 8 1 8 9
M  V30 9 2 9 10
M  V30 10 1 10 11
M  V30 11 1 11 12
M  V30 12 2 12 13
M  V30 13 1 13 14
M  V30 14 2 14 15
M  V30 15 1 15 16
M  V30 16 2 16 17
M  V30 17 1 7 2
M  V30 18 1 17 9
M  V30 19 1 17 12
M  V30 20 1 3 18
M  V30 21 1 8 19
M  V30 22 1 10 20
M  V30 23 1 11 21
M  V30 24 1 13 22
M  V30 25 1 14 23
M  V30 26 1 15 24
M  V30 27 1 16 25
M  V30 END BOND
M  V30 END CTAB
M  END
>  <Dataset>  (216) 
ChEMBL_Kinases

>  <Ligand_Instance>  (216) 
nan

>  <PDB_ID>  (216) 
nan

>  <Standardized_SMILES>  (216) 
O=C1NC(=S)S/C1=C\c1c[nH]c2ccccc12

>  <Name>  (216) 
nan

>  <Pocket>  (216) 
nan

>  <ATP_Site>  (216) 
nan

>  <Peripheral>  (216) 
nan

>  <Num_H_Atoms_ProtBoundConf>  (216) 
nan

>  <Num_Resolved_Atoms>  (216) 
nan

>  <Num_Not_Resolved_Atoms>  (216) 
nan

$$$$
CHEMBL1917016
     RDKit          3D

  0  0  0  0  0  0  0  0  0  0999 V3000
M  V30 BEGIN CTAB
M  V30 COUNTS 24 26 0 0 0
M  V30 BEGIN ATOM
M  V30 1 O -0.031429 -4.990734 0.715847 0
M  V30 2 C 0.664473 -4.113117 1.290306 0
M  V30 3 N 1.632967 -4.496692 2.213051 0
M  V30 4 C 2.368341 -3.439668 2.809887 0
M  V30 5 S 3.669780 -3.106687 3.730887 0
M  V30 6 S 1.499723 -1.912000 2.354065 0
M  V30 7 C 0.517652 -2.692857 1.045932 0
M  V30 8 C -0.164943 -2.073431 0.100184 0
M  V30 9 C -0.107490 -0.591318 0.128741 0
M  V30 10 C -1.100814 0.317982 -0.142540 0
M  V30 11 C -0.526923 1.559328 0.027945 0
M  V30 12 C -0.973751 2.850321 -0.086875 0
M  V30 13 C -0.174472 3.959321 0.146955 0
M  V30 14 C 1.123061 3.678701 0.509602 0
M  V30 15 C 1.654928 2.418064 0.648387 0
M  V30 16 C 0.786451 1.377825 0.395440 0
M  V30 17 O 0.957525 0.080018 0.432616 0
M  V30 18 H 1.949257 -5.419246 2.579188 0
M  V30 19 H -0.727008 -2.628177 -0.637476 0
M  V30 20 H -2.114380 0.086170 -0.429667 0
M  V30 21 H -2.021830 3.003896 -0.380850 0
M  V30 22 H -0.515893 4.980916 0.056816 0
M  V30 23 H 1.809881 4.515070 0.710863 0
M  V30 24 H 2.677033 2.228062 0.934707 0
M  V30 END ATOM
M  V30 BEGIN BOND
M  V30 1 2 1 2
M  V30 2 1 2 3
M  V30 3 1 3 4
M  V30 4 2 4 5
M  V30 5 1 4 6
M  V30 6 1 6 7
M  V30 7 2 7 8
M  V30 8 1 8 9
M  V30 9 2 9 10
M  V30 10 1 10 11
M  V30 11 2 11 12
M  V30 12 1 12 13
M  V30 13 2 13 14
M  V30 14 1 14 15
M  V30 15 2 15 16
M  V30 16 1 16 17
M  V30 17 1 7 2
M  V30 18 1 17 9
M  V30 19 1 16 11
M  V30 20 1 3 18
M  V30 21 1 8 19
M  V30 22 1 10 20
M  V30 23 1 12 21
M  V30 24 1 13 22
M  V30 25 1 14 23
M  V30 26 1 15 24
M  V30 END BOND
M  V30 END CTAB
M  END
>  <Dataset>  (217) 
ChEMBL_Kinases

>  <Ligand_Instance>  (217) 
nan

>  <PDB_ID>  (217) 
nan

>  <Standardized_SMILES>  (217) 
O=C1NC(=S)S/C1=C\c1cc2ccccc2o1

>  <Name>  (217) 
nan

>  <Pocket>  (217) 
nan

>  <ATP_Site>  (217) 
nan

>  <Peripheral>  (217) 
nan

>  <Num_H_Atoms_ProtBoundConf>  (217) 
nan

>  <Num_Resolved_Atoms>  (217) 
nan

>  <Num_Not_Resolved_Atoms>  (217) 
nan

$$$$
CHEMBL1916531
     RDKit          3D

  0  0  0  0  0  0  0  0  0  0999 V3000
M  V30 BEGIN CTAB
M  V30 COUNTS 51 54 0 0 0
M  V30 BEGIN ATOM
M  V30 1 C 2.375461 -2.790085 5.289187 0
M  V30 2 C 2.639293 -3.560679 4.020371 0
M  V30 3 O 3.301389 -2.857902 3.047744 0
M  V30 4 C 2.640840 -1.721474 2.615691 0
M  V30 5 C 3.382883 -0.956209 1.542697 0
M  V30 6 O 2.691829 0.197236 1.117463 0
M  V30 7 C 1.439417 0.209356 0.555075 0
M  V30 8 C 1.034434 1.507133 0.243547 0
M  V30 9 C -0.199857 1.768401 -0.335697 0
M  V30 10 C -0.708570 3.062928 -0.693399 0
M  V30 11 C -0.446479 3.545992 -1.963005 0
M  V30 12 C -0.876772 4.781080 -2.442663 0
M  V30 13 C -1.619084 5.572368 -1.576840 0
M  V30 14 C -1.887871 5.103689 -0.308587 0
M  V30 15 C -1.451735 3.873639 0.150019 0
M  V30 16 Cl -1.767271 3.244341 1.738867 0
M  V30 17 C -1.039204 0.690941 -0.603807 0
M  V30 18 C -2.294610 0.881775 -1.185432 0
M  V30 19 C -3.037872 -0.260698 -1.403950 0
M  V30 20 N -2.634743 -1.495831 -1.099528 0 CHG=1 VAL=4
M  V30 21 O -3.485169 -2.528486 -1.377073 0 CHG=-1 VAL=1
M  V30 22 C -1.411937 -1.663012 -0.534880 0
M  V30 23 C -1.053667 -3.046845 -0.235666 0
M  V30 24 C -0.403777 -3.959536 -1.039426 0
M  V30 25 Cl 0.039764 -3.356633 -2.621222 0
M  V30 26 C -0.154801 -5.231439 -0.569978 0
M  V30 27 C -0.537365 -5.631879 0.693570 0
M  V30 28 C -1.190092 -4.707730 1.494538 0
M  V30 29 C -1.451006 -3.420728 1.041257 0
M  V30 30 Cl -2.285230 -2.406397 2.205541 0
M  V30 31 C -0.597323 -0.575741 -0.278858 0
M  V30 32 N 0.604906 -0.816957 0.284007 0
M  V30 33 H 2.112571 -3.520713 6.086825 0
M  V30 34 H 3.242785 -2.233927 5.639295 0
M  V30 35 H 1.506866 -2.127972 5.121431 0
M  V30 36 H 1.729263 -4.068717 3.689781 0
M  V30 37 H 3.343358 -4.393309 4.314416 0
M  V30 38 H 2.642688 -1.043768 3.520289 0
M  V30 39 H 1.583664 -1.856455 2.374128 0
M  V30 40 H 4.395700 -0.660268 1.861397 0
M  V30 41 H 3.489568 -1.620463 0.660940 0
M  V30 42 H 1.601259 2.410586 0.406983 0
M  V30 43 H 0.132757 2.967621 -2.688022 0
M  V30 44 H -0.644495 5.110525 -3.443107 0
M  V30 45 H -1.964518 6.537469 -1.928501 0
M  V30 46 H -2.466463 5.709972 0.379525 0
M  V30 47 H -2.631212 1.883834 -1.436689 0
M  V30 48 H -4.011313 -0.044200 -1.861805 0
M  V30 49 H 0.362196 -5.908625 -1.250562 0
M  V30 50 H -0.323151 -6.645930 1.029788 0
M  V30 51 H -1.469600 -5.072981 2.478980 0
M  V30 END ATOM
M  V30 BEGIN BOND
M  V30 1 1 1 2
M  V30 2 1 2 3
M  V30 3 1 3 4
M  V30 4 1 4 5
M  V30 5 1 5 6
M  V30 6 1 6 7
M  V30 7 2 7 8
M  V30 8 1 8 9
M  V30 9 1 9 10
M  V30 10 2 10 11
M  V30 11 1 11 12
M  V30 12 2 12 13
M  V30 13 1 13 14
M  V30 14 2 14 15
M  V30 15 1 15 16
M  V30 16 2 9 17
M  V30 17 1 17 18
M  V30 18 2 18 19
M  V30 19 1 19 20
M  V30 20 1 20 21
M  V30 21 2 20 22
M  V30 22 1 22 23
M  V30 23 2 23 24
M  V30 24 1 24 25
M  V30 25 1 24 26
M  V30 26 2 26 27
M  V30 27 1 27 28
M  V30 28 2 28 29
M  V30 29 1 29 30
M  V30 30 1 22 31
M  V30 31 2 31 32
M  V30 32 1 32 7
M  V30 33 1 15 10
M  V30 34 1 31 17
M  V30 35 1 29 23
M  V30 36 1 1 33
M  V30 37 1 1 34
M  V30 38 1 1 35
M  V30 39 1 2 36
M  V30 40 1 2 37
M  V30 41 1 4 38
M  V30 42 1 4 39
M  V30 43 1 5 40
M  V30 44 1 5 41
M  V30 45 1 8 42
M  V30 46 1 11 43
M  V30 47 1 12 44
M  V30 48 1 13 45
M  V30 49 1 14 46
M  V30 50 1 18 47
M  V30 51 1 19 48
M  V30 52 1 26 49
M  V30 53 1 27 50
M  V30 54 1 28 51
M  V30 END BOND
M  V30 END CTAB
M  END
>  <Dataset>  (218) 
ChEMBL_Kinases

>  <Ligand_Instance>  (218) 
nan

>  <PDB_ID>  (218) 
nan

>  <Standardized_SMILES>  (218) 
CCOCCOc1cc(-c2ccccc2Cl)c2cc[n+]([O-])c(-c3c(Cl)cccc3Cl)c2n1

>  <Name>  (218) 
nan

>  <Pocket>  (218) 
nan

>  <ATP_Site>  (218) 
nan

>  <Peripheral>  (218) 
nan

>  <Num_H_Atoms_ProtBoundConf>  (218) 
nan

>  <Num_Resolved_Atoms>  (218) 
nan

>  <Num_Not_Resolved_Atoms>  (218) 
nan

$$$$
CHEMBL1916530
     RDKit          3D

  0  0  0  0  0  0  0  0  0  0999 V3000
M  V30 BEGIN CTAB
M  V30 COUNTS 53 57 0 0 0
M  V30 BEGIN ATOM
M  V30 1 O 2.191841 -4.702348 2.116631 0 CHG=-1 VAL=1
M  V30 2 N 2.241617 -3.441596 1.555826 0 CHG=1 VAL=4
M  V30 3 C 3.388657 -2.856066 1.143511 0
M  V30 4 C 3.312882 -1.589016 0.596897 0
M  V30 5 C 2.138759 -0.899975 0.452714 0
M  V30 6 C 2.090168 0.375790 -0.101397 0
M  V30 7 C 3.382921 0.919846 -0.515200 0
M  V30 8 C 3.808424 0.668280 -1.825664 0
M  V30 9 C 5.026132 1.147285 -2.306719 0
M  V30 10 C 5.840654 1.887616 -1.483462 0
M  V30 11 C 5.408588 2.127281 -0.195818 0
M  V30 12 C 4.206291 1.664783 0.307634 0
M  V30 13 Cl 3.669179 1.976617 1.946211 0
M  V30 14 C 0.853895 0.984924 -0.202061 0
M  V30 15 C -0.259269 0.302556 0.248235 0
M  V30 16 O -1.466312 0.967141 0.119250 0
M  V30 17 C -2.676623 0.350093 0.553914 0
M  V30 18 C -3.543950 0.141005 -0.690640 0
M  V30 19 C -4.960583 0.036167 -0.198088 0
M  V30 20 N -5.453056 1.338125 0.218638 0
M  V30 21 C -4.416606 2.130476 0.847362 0
M  V30 22 C -3.379288 1.235615 1.537410 0
M  V30 23 N -0.183262 -0.932082 0.780567 0
M  V30 24 C 0.997437 -1.540810 0.888563 0
M  V30 25 C 1.043304 -2.818576 1.443928 0
M  V30 26 C -0.209478 -3.439204 1.885958 0
M  V30 27 C -0.776740 -3.339941 3.155686 0
M  V30 28 Cl 0.106430 -2.378586 4.317298 0
M  V30 29 C -1.967678 -3.987162 3.414925 0
M  V30 30 C -2.609260 -4.728893 2.449066 0
M  V30 31 C -2.055050 -4.839896 1.169109 0
M  V30 32 C -0.863184 -4.194033 0.904436 0
M  V30 33 Cl -0.219667 -4.370974 -0.716835 0
M  V30 34 H 4.323636 -3.395143 1.254097 0
M  V30 35 H 4.225953 -1.121252 0.267964 0
M  V30 36 H 3.221067 0.092241 -2.534329 0
M  V30 37 H 5.330197 0.934322 -3.333694 0
M  V30 38 H 6.786642 2.257377 -1.863553 0
M  V30 39 H 6.018333 2.705921 0.487132 0
M  V30 40 H 0.867361 1.970441 -0.636993 0
M  V30 41 H -2.506105 -0.660264 0.974782 0
M  V30 42 H -3.412649 0.956345 -1.429763 0
M  V30 43 H -3.261953 -0.823828 -1.143224 0
M  V30 44 H -4.980990 -0.636640 0.680503 0
M  V30 45 H -5.617665 -0.373836 -0.987484 0
M  V30 46 H -6.266534 1.254341 0.865727 0
M  V30 47 H -3.900173 2.795680 0.141849 0
M  V30 48 H -4.860715 2.743907 1.658489 0
M  V30 49 H -3.900219 0.687694 2.353275 0
M  V30 50 H -2.665974 1.954169 2.028090 0
M  V30 51 H -2.373691 -3.889099 4.399790 0
M  V30 52 H -3.540857 -5.234349 2.654161 0
M  V30 53 H -2.566771 -5.426452 0.412902 0
M  V30 END ATOM
M  V30 BEGIN BOND
M  V30 1 1 1 2
M  V30 2 2 2 3
M  V30 3 1 3 4
M  V30 4 2 4 5
M  V30 5 1 5 6
M  V30 6 1 6 7
M  V30 7 2 7 8
M  V30 8 1 8 9
M  V30 9 2 9 10
M  V30 10 1 10 11
M  V30 11 2 11 12
M  V30 12 1 12 13
M  V30 13 2 6 14
M  V30 14 1 14 15
M  V30 15 1 15 16
M  V30 16 1 16 17
M  V30 17 1 17 18
M  V30 18 1 18 19
M  V30 19 1 19 20
M  V30 20 1 20 21
M  V30 21 1 21 22
M  V30 22 2 15 23
M  V30 23 1 23 24
M  V30 24 2 24 25
M  V30 25 1 25 26
M  V30 26 2 26 27
M  V30 27 1 27 28
M  V30 28 1 27 29
M  V30 29 2 29 30
M  V30 30 1 30 31
M  V30 31 2 31 32
M  V30 32 1 32 33
M  V30 33 1 25 2
M  V30 34 1 32 26
M  V30 35 1 24 5
M  V30 36 1 12 7
M  V30 37 1 22 17
M  V30 38 1 3 34
M  V30 39 1 4 35
M  V30 40 1 8 36
M  V30 41 1 9 37
M  V30 42 1 10 38
M  V30 43 1 11 39
M  V30 44 1 14 40
M  V30 45 1 17 41
M  V30 46 1 18 42
M  V30 47 1 18 43
M  V30 48 1 19 44
M  V30 49 1 19 45
M  V30 50 1 20 46
M  V30 51 1 21 47
M  V30 52 1 21 48
M  V30 53 1 22 49
M  V30 54 1 22 50
M  V30 55 1 29 51
M  V30 56 1 30 52
M  V30 57 1 31 53
M  V30 END BOND
M  V30 END CTAB
M  END
>  <Dataset>  (219) 
ChEMBL_Kinases

>  <Ligand_Instance>  (219) 
nan

>  <PDB_ID>  (219) 
nan

>  <Standardized_SMILES>  (219) 
[O-][n+]1ccc2c(-c3ccccc3Cl)cc(OC3CCNCC3)nc2c1-c1c(Cl)cccc1Cl

>  <Name>  (219) 
nan

>  <Pocket>  (219) 
nan

>  <ATP_Site>  (219) 
nan

>  <Peripheral>  (219) 
nan

>  <Num_H_Atoms_ProtBoundConf>  (219) 
nan

>  <Num_Resolved_Atoms>  (219) 
nan

>  <Num_Not_Resolved_Atoms>  (219) 
nan

$$$$
CHEMBL1916529
     RDKit          3D

  0  0  0  0  0  0  0  0  0  0999 V3000
M  V30 BEGIN CTAB
M  V30 COUNTS 69 73 0 0 0
M  V30 BEGIN ATOM
M  V30 1 C 2.136410 -3.731990 3.479128 0
M  V30 2 N 2.347247 -2.897797 2.340873 0
M  V30 3 C 1.883001 -3.372303 1.116895 0
M  V30 4 C 2.958347 -4.318330 0.562768 0
M  V30 5 C 0.668285 -4.272016 1.390660 0
M  V30 6 C 1.491674 -2.431212 0.050936 0
M  V30 7 C 2.207219 -1.117932 0.230231 0
M  V30 8 N 1.807751 -0.108209 -0.723334 0
M  V30 9 C 0.495763 0.363496 -0.915034 0
M  V30 10 C 0.245128 1.354227 -1.869922 0
M  V30 11 C -0.975799 1.891228 -2.154935 0
M  V30 12 C -1.151291 2.914743 -3.158770 0
M  V30 13 C -1.417165 2.592134 -4.486213 0
M  V30 14 C -1.566191 3.652201 -5.357900 0
M  V30 15 C -1.473534 4.989162 -5.021212 0
M  V30 16 C -1.206123 5.259076 -3.680567 0
M  V30 17 C -1.047891 4.232399 -2.765209 0
M  V30 18 Cl -0.713826 4.625801 -1.097689 0
M  V30 19 C -2.067497 1.428327 -1.449724 0
M  V30 20 C -3.313925 1.956716 -1.721278 0
M  V30 21 C -4.391677 1.476186 -1.002044 0
M  V30 22 N -4.184674 0.522017 -0.075153 0 CHG=1 VAL=4
M  V30 23 O -5.296069 0.082949 0.609258 0 CHG=-1 VAL=1
M  V30 24 C -2.949395 0.015644 0.176421 0
M  V30 25 C -2.865574 -0.993210 1.185011 0
M  V30 26 C -3.011478 -2.320582 0.758228 0
M  V30 27 Cl -3.281089 -2.690764 -0.953691 0
M  V30 28 C -2.953530 -3.394601 1.639039 0
M  V30 29 C -2.744094 -3.120626 2.976033 0
M  V30 30 C -2.600374 -1.812268 3.395395 0
M  V30 31 C -2.656339 -0.739457 2.529106 0
M  V30 32 Cl -2.475290 0.928434 3.048045 0
M  V30 33 C -1.829002 0.451106 -0.505965 0
M  V30 34 N -0.596852 -0.038090 -0.271992 0
M  V30 35 C 1.837290 -0.600896 1.601618 0
M  V30 36 C 2.236069 -1.536824 2.699427 0
M  V30 37 C 3.575376 -1.077562 3.243049 0
M  V30 38 C 1.248621 -1.378120 3.837370 0
M  V30 39 H 1.081582 -3.736104 3.820990 0
M  V30 40 H 2.788152 -3.333248 4.311457 0
M  V30 41 H 2.504491 -4.771735 3.341945 0
M  V30 42 H 3.942977 -4.115235 1.044557 0
M  V30 43 H 2.725322 -5.379944 0.772944 0
M  V30 44 H 3.032926 -4.210197 -0.540331 0
M  V30 45 H -0.093468 -3.735389 1.967106 0
M  V30 46 H 0.320532 -4.657451 0.408952 0
M  V30 47 H 1.020712 -5.192442 1.942595 0
M  V30 48 H 1.784573 -2.836325 -0.939480 0
M  V30 49 H 0.393207 -2.291347 -0.009037 0
M  V30 50 H 3.298693 -1.318778 0.150773 0
M  V30 51 H 2.566947 0.304401 -1.321077 0
M  V30 52 H 1.069031 1.747647 -2.447148 0
M  V30 53 H -1.491420 1.570050 -4.761028 0
M  V30 54 H -1.776499 3.437740 -6.413125 0
M  V30 55 H -1.601757 5.769562 -5.757708 0
M  V30 56 H -1.133348 6.310542 -3.416307 0
M  V30 57 H -3.403685 2.717578 -2.476305 0
M  V30 58 H -5.383941 1.868788 -1.189641 0
M  V30 59 H -3.074248 -4.401916 1.246184 0
M  V30 60 H -2.694600 -3.955745 3.692232 0
M  V30 61 H -2.437291 -1.626822 4.449839 0
M  V30 62 H 0.733799 -0.497328 1.617325 0
M  V30 63 H 2.350757 0.386886 1.697724 0
M  V30 64 H 3.735807 -0.004452 2.982539 0
M  V30 65 H 3.601883 -1.118857 4.350828 0
M  V30 66 H 4.356251 -1.664612 2.746323 0
M  V30 67 H 0.286084 -1.869905 3.616373 0
M  V30 68 H 1.679462 -1.693650 4.808527 0
M  V30 69 H 1.056408 -0.290546 3.947440 0
M  V30 END ATOM
M  V30 BEGIN BOND
M  V30 1 1 1 2
M  V30 2 1 2 3
M  V30 3 1 3 4
M  V30 4 1 3 5
M  V30 5 1 3 6
M  V30 6 1 6 7
M  V30 7 1 7 8
M  V30 8 1 8 9
M  V30 9 2 9 10
M  V30 10 1 10 11
M  V30 11 1 11 12
M  V30 12 2 12 13
M  V30 13 1 13 14
M  V30 14 2 14 15
M  V30 15 1 15 16
M  V30 16 2 16 17
M  V30 17 1 17 18
M  V30 18 2 11 19
M  V30 19 1 19 20
M  V30 20 2 20 21
M  V30 21 1 21 22
M  V30 22 1 22 23
M  V30 23 2 22 24
M  V30 24 1 24 25
M  V30 25 2 25 26
M  V30 26 1 26 27
M  V30 27 1 26 28
M  V30 28 2 28 29
M  V30 29 1 29 30
M  V30 30 2 30 31
M  V30 31 1 31 32
M  V30 32 1 24 33
M  V30 33 2 33 34
M  V30 34 1 7 35
M  V30 35 1 35 36
M  V30 36 1 36 37
M  V30 37 1 36 38
M  V30 38 1 36 2
M  V30 39 1 34 9
M  V30 40 1 17 12
M  V30 41 1 33 19
M  V30 42 1 31 25
M  V30 43 1 1 39
M  V30 44 1 1 40
M  V30 45 1 1 41
M  V30 46 1 4 42
M  V30 47 1 4 43
M  V30 48 1 4 44
M  V30 49 1 5 45
M  V30 50 1 5 46
M  V30 51 1 5 47
M  V30 52 1 6 48
M  V30 53 1 6 49
M  V30 54 1 7 50
M  V30 55 1 8 51
M  V30 56 1 10 52
M  V30 57 1 13 53
M  V30 58 1 14 54
M  V30 59 1 15 55
M  V30 60 1 16 56
M  V30 61 1 20 57
M  V30 62 1 21 58
M  V30 63 1 28 59
M  V30 64 1 29 60
M  V30 65 1 30 61
M  V30 66 1 35 62
M  V30 67 1 35 63
M  V30 68 1 37 64
M  V30 69 1 37 65
M  V30 70 1 37 66
M  V30 71 1 38 67
M  V30 72 1 38 68
M  V30 73 1 38 69
M  V30 END BOND
M  V30 END CTAB
M  END
>  <Dataset>  (220) 
ChEMBL_Kinases

>  <Ligand_Instance>  (220) 
nan

>  <PDB_ID>  (220) 
nan

>  <Standardized_SMILES>  (220) 
CN1C(C)(C)CC(Nc2cc(-c3ccccc3Cl)c3cc[n+]([O-])c(-c4c(Cl)cccc4Cl)c3n2)CC1(C)C

>  <Name>  (220) 
nan

>  <Pocket>  (220) 
nan

>  <ATP_Site>  (220) 
nan

>  <Peripheral>  (220) 
nan

>  <Num_H_Atoms_ProtBoundConf>  (220) 
nan

>  <Num_Resolved_Atoms>  (220) 
nan

>  <Num_Not_Resolved_Atoms>  (220) 
nan

$$$$
CHEMBL1916528
     RDKit          3D

  0  0  0  0  0  0  0  0  0  0999 V3000
M  V30 BEGIN CTAB
M  V30 COUNTS 54 58 0 0 0
M  V30 BEGIN ATOM
M  V30 1 O 1.594358 -5.053518 -0.800429 0 CHG=-1 VAL=1
M  V30 2 N 1.756617 -3.700313 -0.570035 0 CHG=1 VAL=4
M  V30 3 C 3.019325 -3.189184 -0.660575 0
M  V30 4 C 3.221307 -1.839838 -0.436785 0
M  V30 5 C 2.102228 -1.095127 -0.131409 0
M  V30 6 C 2.293733 0.254263 0.093946 0
M  V30 7 C 3.576925 0.950546 0.035160 0
M  V30 8 C 3.978275 1.490133 -1.190984 0
M  V30 9 C 5.195641 2.164253 -1.297577 0
M  V30 10 C 6.036349 2.317773 -0.200138 0
M  V30 11 C 5.618413 1.776589 0.998983 0
M  V30 12 C 4.415047 1.105943 1.120412 0
M  V30 13 Cl 3.912353 0.432442 2.647401 0
M  V30 14 C 1.199643 1.036299 0.402654 0
M  V30 15 C -0.092238 0.512708 0.495162 0
M  V30 16 N -1.228815 1.318957 0.814705 0
M  V30 17 C -2.557835 0.760941 0.906222 0
M  V30 18 C -2.704751 -0.310339 1.942932 0
M  V30 19 C -4.105954 -0.383957 2.488020 0
M  V30 20 N -5.025390 0.024630 1.457828 0
M  V30 21 C -4.938238 1.424910 1.146561 0
M  V30 22 C -3.499292 1.891827 1.283227 0
M  V30 23 N -0.237805 -0.811520 0.267747 0
M  V30 24 C 0.827465 -1.576529 -0.033500 0
M  V30 25 C 0.675780 -2.929299 -0.265365 0
M  V30 26 C -0.624821 -3.588977 -0.197151 0
M  V30 27 C -0.888451 -4.055305 1.091621 0
M  V30 28 Cl 0.199454 -3.878387 2.471509 0
M  V30 29 C -2.069067 -4.715498 1.388789 0
M  V30 30 C -2.986609 -4.907690 0.389712 0
M  V30 31 C -2.725541 -4.451246 -0.866020 0
M  V30 32 C -1.567963 -3.797193 -1.183226 0
M  V30 33 Cl -1.088760 -3.153929 -2.742412 0
M  V30 34 H 3.853707 -3.850389 -0.908174 0
M  V30 35 H 4.217388 -1.395009 -0.500390 0
M  V30 36 H 3.393368 1.421739 -2.098663 0
M  V30 37 H 5.550654 2.600463 -2.227964 0
M  V30 38 H 6.988308 2.836440 -0.251652 0
M  V30 39 H 6.213609 1.846335 1.922091 0
M  V30 40 H 1.292253 2.110434 0.590881 0
M  V30 41 H -1.027917 2.349941 0.978829 0
M  V30 42 H -2.865925 0.382599 -0.087864 0
M  V30 43 H -1.931250 -0.259076 2.737085 0
M  V30 44 H -2.517886 -1.284677 1.406800 0
M  V30 45 H -4.239575 0.189756 3.428542 0
M  V30 46 H -4.337192 -1.450124 2.732441 0
M  V30 47 H -4.834465 -0.555401 0.615544 0
M  V30 48 H -5.561222 2.067455 1.808794 0
M  V30 49 H -5.255643 1.552657 0.070589 0
M  V30 50 H -3.329967 2.810677 0.686717 0
M  V30 51 H -3.357892 2.163237 2.370291 0
M  V30 52 H -2.317433 -5.093928 2.369541 0
M  V30 53 H -3.915245 -5.418543 0.591112 0
M  V30 54 H -3.408099 -4.572404 -1.692833 0
M  V30 END ATOM
M  V30 BEGIN BOND
M  V30 1 1 1 2
M  V30 2 2 2 3
M  V30 3 1 3 4
M  V30 4 2 4 5
M  V30 5 1 5 6
M  V30 6 1 6 7
M  V30 7 2 7 8
M  V30 8 1 8 9
M  V30 9 2 9 10
M  V30 10 1 10 11
M  V30 11 2 11 12
M  V30 12 1 12 13
M  V30 13 2 6 14
M  V30 14 1 14 15
M  V30 15 1 15 16
M  V30 16 1 16 17
M  V30 17 1 17 18
M  V30 18 1 18 19
M  V30 19 1 19 20
M  V30 20 1 20 21
M  V30 21 1 21 22
M  V30 22 2 15 23
M  V30 23 1 23 24
M  V30 24 2 24 25
M  V30 25 1 25 26
M  V30 26 2 26 27
M  V30 27 1 27 28
M  V30 28 1 27 29
M  V30 29 2 29 30
M  V30 30 1 30 31
M  V30 31 2 31 32
M  V30 32 1 32 33
M  V30 33 1 25 2
M  V30 34 1 32 26
M  V30 35 1 24 5
M  V30 36 1 12 7
M  V30 37 1 22 17
M  V30 38 1 3 34
M  V30 39 1 4 35
M  V30 40 1 8 36
M  V30 41 1 9 37
M  V30 42 1 10 38
M  V30 43 1 11 39
M  V30 44 1 14 40
M  V30 45 1 16 41
M  V30 46 1 17 42
M  V30 47 1 18 43
M  V30 48 1 18 44
M  V30 49 1 19 45
M  V30 50 1 19 46
M  V30 51 1 20 47
M  V30 52 1 21 48
M  V30 53 1 21 49
M  V30 54 1 22 50
M  V30 55 1 22 51
M  V30 56 1 29 52
M  V30 57 1 30 53
M  V30 58 1 31 54
M  V30 END BOND
M  V30 END CTAB
M  END
>  <Dataset>  (221) 
ChEMBL_Kinases

>  <Ligand_Instance>  (221) 
nan

>  <PDB_ID>  (221) 
nan

>  <Standardized_SMILES>  (221) 
[O-][n+]1ccc2c(-c3ccccc3Cl)cc(NC3CCNCC3)nc2c1-c1c(Cl)cccc1Cl

>  <Name>  (221) 
nan

>  <Pocket>  (221) 
nan

>  <ATP_Site>  (221) 
nan

>  <Peripheral>  (221) 
nan

>  <Num_H_Atoms_ProtBoundConf>  (221) 
nan

>  <Num_Resolved_Atoms>  (221) 
nan

>  <Num_Not_Resolved_Atoms>  (221) 
nan

$$$$
CHEMBL1916527
     RDKit          3D

  0  0  0  0  0  0  0  0  0  0999 V3000
M  V30 BEGIN CTAB
M  V30 COUNTS 51 55 0 0 0
M  V30 BEGIN ATOM
M  V30 1 O 1.554672 -4.895831 2.471642 0 CHG=-1 VAL=1
M  V30 2 N 1.617804 -3.567089 2.073324 0 CHG=1 VAL=4
M  V30 3 C 2.791145 -2.899208 2.121298 0
M  V30 4 C 2.882880 -1.573813 1.730231 0
M  V30 5 C 1.708776 -0.979609 1.290710 0
M  V30 6 C 1.770401 0.341733 0.894293 0
M  V30 7 C 3.042524 1.057855 0.948764 0
M  V30 8 C 4.016911 1.170935 -0.025542 0
M  V30 9 C 5.148064 1.889067 0.212777 0
M  V30 10 C 5.363607 2.529461 1.433173 0
M  V30 11 C 4.380615 2.418470 2.423291 0
M  V30 12 C 3.219516 1.678950 2.173120 0
M  V30 13 Cl 2.091957 1.638569 3.511683 0
M  V30 14 C 0.596963 0.921584 0.459315 0
M  V30 15 C -0.604370 0.252336 0.405684 0
M  V30 16 N -1.815717 0.845061 -0.041519 0
M  V30 17 C -1.973617 2.210923 -0.496215 0
M  V30 18 C -2.358005 2.089015 -1.976024 0
M  V30 19 N -3.646422 1.475560 -2.062880 0
M  V30 20 C -3.794542 0.235209 -1.377150 0
M  V30 21 C -3.040389 0.115567 -0.085349 0
M  V30 22 N -0.632038 -1.032395 0.798128 0
M  V30 23 C 0.493644 -1.629873 1.228188 0
M  V30 24 C 0.498011 -2.948720 1.638120 0
M  V30 25 C -0.774548 -3.673038 1.586108 0
M  V30 26 C -1.021985 -4.323013 0.391318 0
M  V30 27 Cl 0.100217 -4.286145 -0.963457 0
M  V30 28 C -2.206419 -5.030489 0.265497 0
M  V30 29 C -3.139160 -5.097356 1.307208 0
M  V30 30 C -2.832708 -4.425797 2.476466 0
M  V30 31 C -1.659834 -3.704962 2.648207 0
M  V30 32 Cl -1.266235 -2.852652 4.126238 0
M  V30 33 H 3.693114 -3.411652 2.476300 0
M  V30 34 H 3.803494 -1.020610 1.758820 0
M  V30 35 H 3.772403 0.650879 -0.928362 0
M  V30 36 H 5.892998 1.960128 -0.567985 0
M  V30 37 H 6.255429 3.105522 1.644062 0
M  V30 38 H 4.578183 2.931050 3.368276 0
M  V30 39 H 0.657733 1.945316 0.154913 0
M  V30 40 H -1.094216 2.837983 -0.362412 0
M  V30 41 H -2.892281 2.659956 -0.016451 0
M  V30 42 H -1.609646 1.500989 -2.530478 0
M  V30 43 H -2.460877 3.135016 -2.341737 0
M  V30 44 H -3.838988 1.309948 -3.093343 0
M  V30 45 H -4.887729 0.164480 -1.101121 0
M  V30 46 H -3.624671 -0.656429 -2.024262 0
M  V30 47 H -2.840022 -0.964654 0.096329 0
M  V30 48 H -3.678482 0.426495 0.784500 0
M  V30 49 H -2.395958 -5.536090 -0.667687 0
M  V30 50 H -4.057068 -5.656928 1.183427 0
M  V30 51 H -3.537429 -4.458412 3.305226 0
M  V30 END ATOM
M  V30 BEGIN BOND
M  V30 1 1 1 2
M  V30 2 2 2 3
M  V30 3 1 3 4
M  V30 4 2 4 5
M  V30 5 1 5 6
M  V30 6 1 6 7
M  V30 7 2 7 8
M  V30 8 1 8 9
M  V30 9 2 9 10
M  V30 10 1 10 11
M  V30 11 2 11 12
M  V30 12 1 12 13
M  V30 13 2 6 14
M  V30 14 1 14 15
M  V30 15 1 15 16
M  V30 16 1 16 17
M  V30 17 1 17 18
M  V30 18 1 18 19
M  V30 19 1 19 20
M  V30 20 1 20 21
M  V30 21 2 15 22
M  V30 22 1 22 23
M  V30 23 2 23 24
M  V30 24 1 24 25
M  V30 25 2 25 26
M  V30 26 1 26 27
M  V30 27 1 26 28
M  V30 28 2 28 29
M  V30 29 1 29 30
M  V30 30 2 30 31
M  V30 31 1 31 32
M  V30 32 1 24 2
M  V30 33 1 31 25
M  V30 34 1 23 5
M  V30 35 1 12 7
M  V30 36 1 21 16
M  V30 37 1 3 33
M  V30 38 1 4 34
M  V30 39 1 8 35
M  V30 40 1 9 36
M  V30 41 1 10 37
M  V30 42 1 11 38
M  V30 43 1 14 39
M  V30 44 1 17 40
M  V30 45 1 17 41
M  V30 46 1 18 42
M  V30 47 1 18 43
M  V30 48 1 19 44
M  V30 49 1 20 45
M  V30 50 1 20 46
M  V30 51 1 21 47
M  V30 52 1 21 48
M  V30 53 1 28 49
M  V30 54 1 29 50
M  V30 55 1 30 51
M  V30 END BOND
M  V30 END CTAB
M  END
>  <Dataset>  (222) 
ChEMBL_Kinases

>  <Ligand_Instance>  (222) 
nan

>  <PDB_ID>  (222) 
nan

>  <Standardized_SMILES>  (222) 
[O-][n+]1ccc2c(-c3ccccc3Cl)cc(N3CCNCC3)nc2c1-c1c(Cl)cccc1Cl

>  <Name>  (222) 
nan

>  <Pocket>  (222) 
nan

>  <ATP_Site>  (222) 
nan

>  <Peripheral>  (222) 
nan

>  <Num_H_Atoms_ProtBoundConf>  (222) 
nan

>  <Num_Resolved_Atoms>  (222) 
nan

>  <Num_Not_Resolved_Atoms>  (222) 
nan

$$$$
CHEMBL1916526
     RDKit          3D

  0  0  0  0  0  0  0  0  0  0999 V3000
M  V30 BEGIN CTAB
M  V30 COUNTS 50 54 0 0 0
M  V30 BEGIN ATOM
M  V30 1 O 1.949272 -5.001065 0.666156 0 CHG=-1 VAL=1
M  V30 2 N 1.919964 -3.623527 0.645702 0 CHG=1 VAL=4
M  V30 3 C 3.036654 -2.873629 0.563212 0
M  V30 4 C 3.009847 -1.489599 0.542495 0
M  V30 5 C 1.789859 -0.867998 0.609289 0
M  V30 6 C 1.751066 0.531151 0.589082 0
M  V30 7 C 2.959150 1.347427 0.499746 0
M  V30 8 C 3.632211 1.830116 -0.610637 0
M  V30 9 C 4.752216 2.580312 -0.443906 0
M  V30 10 C 5.253122 2.884970 0.803082 0
M  V30 11 C 4.600596 2.415639 1.931578 0
M  V30 12 C 3.450656 1.645103 1.771348 0
M  V30 13 Cl 2.740179 1.126537 3.286981 0
M  V30 14 C 0.497689 1.138880 0.658205 0
M  V30 15 C -0.617316 0.340514 0.741376 0
M  V30 16 N -1.923106 0.894458 0.814761 0
M  V30 17 C -2.301281 2.291303 0.818460 0
M  V30 18 C -3.173301 2.505224 -0.418376 0
M  V30 19 O -4.345249 1.810934 -0.232352 0
M  V30 20 C -4.146601 0.434940 -0.142990 0
M  V30 21 C -3.111166 0.082577 0.899945 0
M  V30 22 N -0.523602 -1.000156 0.757175 0
M  V30 23 C 0.637041 -1.633335 0.694305 0
M  V30 24 C 0.717669 -3.014280 0.711582 0
M  V30 25 C -0.490008 -3.834301 0.800946 0
M  V30 26 C -1.046046 -4.242388 1.994786 0
M  V30 27 F -0.469488 -3.882615 3.149074 0
M  V30 28 C -2.187796 -5.013280 1.914836 0
M  V30 29 C -2.766585 -5.373763 0.730260 0
M  V30 30 C -2.177057 -4.943687 -0.437737 0
M  V30 31 C -1.045061 -4.177275 -0.437920 0
M  V30 32 F -0.492201 -3.771821 -1.613548 0
M  V30 33 H 3.951044 -3.451078 0.514956 0
M  V30 34 H 3.936267 -0.935926 0.475171 0
M  V30 35 H 3.139437 1.522267 -1.528127 0
M  V30 36 H 5.204123 2.909330 -1.376724 0
M  V30 37 H 6.154063 3.491032 0.838432 0
M  V30 38 H 5.028385 2.678876 2.880610 0
M  V30 39 H 0.451058 2.203913 0.643834 0
M  V30 40 H -1.431387 2.944290 0.826491 0
M  V30 41 H -2.992906 2.506006 1.682629 0
M  V30 42 H -3.422351 3.577739 -0.476736 0
M  V30 43 H -2.619075 2.177358 -1.334272 0
M  V30 44 H -3.905054 0.002439 -1.119849 0
M  V30 45 H -5.110831 0.002408 0.191105 0
M  V30 46 H -2.848873 -0.995113 0.691957 0
M  V30 47 H -3.612507 0.134482 1.875112 0
M  V30 48 H -2.619189 -5.330407 2.860503 0
M  V30 49 H -3.669654 -5.983482 0.666306 0
M  V30 50 H -2.612358 -5.212937 -1.399050 0
M  V30 END ATOM
M  V30 BEGIN BOND
M  V30 1 1 1 2
M  V30 2 2 2 3
M  V30 3 1 3 4
M  V30 4 2 4 5
M  V30 5 1 5 6
M  V30 6 1 6 7
M  V30 7 2 7 8
M  V30 8 1 8 9
M  V30 9 2 9 10
M  V30 10 1 10 11
M  V30 11 2 11 12
M  V30 12 1 12 13
M  V30 13 2 6 14
M  V30 14 1 14 15
M  V30 15 1 15 16
M  V30 16 1 16 17
M  V30 17 1 17 18
M  V30 18 1 18 19
M  V30 19 1 19 20
M  V30 20 1 20 21
M  V30 21 2 15 22
M  V30 22 1 22 23
M  V30 23 2 23 24
M  V30 24 1 24 25
M  V30 25 2 25 26
M  V30 26 1 26 27
M  V30 27 1 26 28
M  V30 28 2 28 29
M  V30 29 1 29 30
M  V30 30 2 30 31
M  V30 31 1 31 32
M  V30 32 1 24 2
M  V30 33 1 31 25
M  V30 34 1 23 5
M  V30 35 1 12 7
M  V30 36 1 21 16
M  V30 37 1 3 33
M  V30 38 1 4 34
M  V30 39 1 8 35
M  V30 40 1 9 36
M  V30 41 1 10 37
M  V30 42 1 11 38
M  V30 43 1 14 39
M  V30 44 1 17 40
M  V30 45 1 17 41
M  V30 46 1 18 42
M  V30 47 1 18 43
M  V30 48 1 20 44
M  V30 49 1 20 45
M  V30 50 1 21 46
M  V30 51 1 21 47
M  V30 52 1 28 48
M  V30 53 1 29 49
M  V30 54 1 30 50
M  V30 END BOND
M  V30 END CTAB
M  END
>  <Dataset>  (223) 
ChEMBL_Kinases

>  <Ligand_Instance>  (223) 
nan

>  <PDB_ID>  (223) 
nan

>  <Standardized_SMILES>  (223) 
[O-][n+]1ccc2c(-c3ccccc3Cl)cc(N3CCOCC3)nc2c1-c1c(F)cccc1F

>  <Name>  (223) 
nan

>  <Pocket>  (223) 
nan

>  <ATP_Site>  (223) 
nan

>  <Peripheral>  (223) 
nan

>  <Num_H_Atoms_ProtBoundConf>  (223) 
nan

>  <Num_Resolved_Atoms>  (223) 
nan

>  <Num_Not_Resolved_Atoms>  (223) 
nan

$$$$
CHEMBL1916525
     RDKit          3D

  0  0  0  0  0  0  0  0  0  0999 V3000
M  V30 BEGIN CTAB
M  V30 COUNTS 54 58 0 0 0
M  V30 BEGIN ATOM
M  V30 1 O 2.845770 -4.249894 -1.276758 0 CHG=-1 VAL=1
M  V30 2 N 2.648494 -3.009891 -0.694549 0 CHG=1 VAL=4
M  V30 3 C 3.712690 -2.289779 -0.253502 0
M  V30 4 C 3.492151 -1.049246 0.326923 0
M  V30 5 C 2.217748 -0.587111 0.439027 0
M  V30 6 C 1.940588 0.640155 1.008121 0
M  V30 7 C 3.034986 1.471497 1.505521 0
M  V30 8 C 3.546368 1.438790 2.787490 0
M  V30 9 C 4.585809 2.266019 3.166021 0
M  V30 10 C 5.140623 3.151680 2.261278 0
M  V30 11 F 6.162503 3.976647 2.604176 0
M  V30 12 C 4.635310 3.186030 0.989474 0
M  V30 13 C 3.597448 2.367838 0.592130 0
M  V30 14 F 3.116466 2.429909 -0.691643 0
M  V30 15 C 0.667877 1.156896 1.146796 0
M  V30 16 C -0.383675 0.364967 0.672136 0
M  V30 17 N -1.759269 0.795117 0.759217 0
M  V30 18 C -2.936922 0.083353 0.313342 0
M  V30 19 C -4.201876 0.874019 0.575409 0
M  V30 20 C -5.344634 -0.139246 0.524741 0
M  V30 21 N -5.301699 -0.889953 1.756467 0
M  V30 22 C -3.953513 -1.142987 2.181804 0
M  V30 23 C -2.989485 -1.251185 1.006017 0
M  V30 24 N -0.120630 -0.832381 0.116271 0
M  V30 25 C 1.128575 -1.308197 -0.004673 0
M  V30 26 C 1.388875 -2.537880 -0.576376 0
M  V30 27 C 0.270353 -3.348590 -1.065948 0
M  V30 28 C -0.319031 -4.231294 -0.198270 0
M  V30 29 F 0.071202 -4.393021 1.071105 0
M  V30 30 C -1.382866 -5.008112 -0.649731 0
M  V30 31 C -1.773544 -4.832534 -1.954386 0
M  V30 32 C -1.179138 -3.947215 -2.817366 0
M  V30 33 C -0.129855 -3.178621 -2.377986 0
M  V30 34 F 0.476956 -2.292618 -3.214983 0
M  V30 35 H 4.727592 -2.646486 -0.337298 0
M  V30 36 H 4.288264 -0.424069 0.698665 0
M  V30 37 H 3.095417 0.736622 3.478737 0
M  V30 38 H 4.967236 2.217505 4.182257 0
M  V30 39 H 5.047086 3.867485 0.257884 0
M  V30 40 H 0.451132 2.112762 1.589933 0
M  V30 41 H -1.912261 1.746513 1.204303 0
M  V30 42 H -2.928303 -0.123526 -0.774477 0
M  V30 43 H -4.229374 1.331130 1.576082 0
M  V30 44 H -4.419063 1.624992 -0.209733 0
M  V30 45 H -6.332441 0.335714 0.430998 0
M  V30 46 H -5.241636 -0.795898 -0.374663 0
M  V30 47 H -5.834032 -0.314001 2.466644 0
M  V30 48 H -3.863731 -2.058874 2.805489 0
M  V30 49 H -3.574182 -0.296405 2.801124 0
M  V30 50 H -3.281443 -2.073917 0.321952 0
M  V30 51 H -2.000752 -1.478271 1.419061 0
M  V30 52 H -1.865093 -5.711018 0.012412 0
M  V30 53 H -2.611662 -5.445294 -2.308084 0
M  V30 54 H -1.496451 -3.811580 -3.859884 0
M  V30 END ATOM
M  V30 BEGIN BOND
M  V30 1 1 1 2
M  V30 2 2 2 3
M  V30 3 1 3 4
M  V30 4 2 4 5
M  V30 5 1 5 6
M  V30 6 1 6 7
M  V30 7 2 7 8
M  V30 8 1 8 9
M  V30 9 2 9 10
M  V30 10 1 10 11
M  V30 11 1 10 12
M  V30 12 2 12 13
M  V30 13 1 13 14
M  V30 14 2 6 15
M  V30 15 1 15 16
M  V30 16 1 16 17
M  V30 17 1 17 18
M  V30 18 1 18 19
M  V30 19 1 19 20
M  V30 20 1 20 21
M  V30 21 1 21 22
M  V30 22 1 22 23
M  V30 23 2 16 24
M  V30 24 1 24 25
M  V30 25 2 25 26
M  V30 26 1 26 27
M  V30 27 2 27 28
M  V30 28 1 28 29
M  V30 29 1 28 30
M  V30 30 2 30 31
M  V30 31 1 31 32
M  V30 32 2 32 33
M  V30 33 1 33 34
M  V30 34 1 26 2
M  V30 35 1 33 27
M  V30 36 1 25 5
M  V30 37 1 13 7
M  V30 38 1 23 18
M  V30 39 1 3 35
M  V30 40 1 4 36
M  V30 41 1 8 37
M  V30 42 1 9 38
M  V30 43 1 12 39
M  V30 44 1 15 40
M  V30 45 1 17 41
M  V30 46 1 18 42
M  V30 47 1 19 43
M  V30 48 1 19 44
M  V30 49 1 20 45
M  V30 50 1 20 46
M  V30 51 1 21 47
M  V30 52 1 22 48
M  V30 53 1 22 49
M  V30 54 1 23 50
M  V30 55 1 23 51
M  V30 56 1 30 52
M  V30 57 1 31 53
M  V30 58 1 32 54
M  V30 END BOND
M  V30 END CTAB
M  END
>  <Dataset>  (224) 
ChEMBL_Kinases

>  <Ligand_Instance>  (224) 
nan

>  <PDB_ID>  (224) 
nan

>  <Standardized_SMILES>  (224) 
[O-][n+]1ccc2c(-c3ccc(F)cc3F)cc(NC3CCNCC3)nc2c1-c1c(F)cccc1F

>  <Name>  (224) 
nan

>  <Pocket>  (224) 
nan

>  <ATP_Site>  (224) 
nan

>  <Peripheral>  (224) 
nan

>  <Num_H_Atoms_ProtBoundConf>  (224) 
nan

>  <Num_Resolved_Atoms>  (224) 
nan

>  <Num_Not_Resolved_Atoms>  (224) 
nan

$$$$
CHEMBL1916524
     RDKit          3D

  0  0  0  0  0  0  0  0  0  0999 V3000
M  V30 BEGIN CTAB
M  V30 COUNTS 57 61 0 0 0
M  V30 BEGIN ATOM
M  V30 1 C 2.990467 -3.346788 3.908422 0
M  V30 2 C 2.763291 -3.545373 2.445060 0
M  V30 3 O 2.381040 -4.609693 1.864069 0
M  V30 4 N 3.029701 -2.360904 1.709407 0
M  V30 5 C 3.472322 -1.039182 2.152103 0
M  V30 6 C 2.248351 -0.155561 1.945401 0
M  V30 7 C 2.153266 0.050165 0.428482 0
M  V30 8 C 0.710516 0.146097 0.035858 0
M  V30 9 C 0.198584 1.361534 -0.420132 0
M  V30 10 C -1.142409 1.490370 -0.795705 0
M  V30 11 C -1.596685 2.799031 -1.262017 0
M  V30 12 C -1.551307 3.174128 -2.588880 0
M  V30 13 C -2.007659 4.438604 -2.921123 0
M  V30 14 C -2.504831 5.343563 -1.999798 0
M  V30 15 C -2.535387 4.931335 -0.672854 0
M  V30 16 C -2.087145 3.665136 -0.280803 0
M  V30 17 Cl -2.167845 3.240086 1.421819 0
M  V30 18 C -1.922302 0.356519 -0.690119 0
M  V30 19 C -3.247539 0.477240 -1.059521 0
M  V30 20 C -4.067207 -0.642086 -0.967954 0
M  V30 21 N -3.553125 -1.825169 -0.520089 0 CHG=1 VAL=4
M  V30 22 O -4.386221 -2.922979 -0.437699 0 CHG=-1 VAL=1
M  V30 23 C -2.252163 -1.927376 -0.161823 0
M  V30 24 C -1.763861 -3.222174 0.309441 0
M  V30 25 C -1.241373 -4.167761 -0.533942 0
M  V30 26 F -1.157258 -3.930482 -1.863026 0
M  V30 27 C -0.785083 -5.392987 -0.046649 0
M  V30 28 C -0.865284 -5.647184 1.306296 0
M  V30 29 C -1.396939 -4.685544 2.166123 0
M  V30 30 C -1.845530 -3.474368 1.666776 0
M  V30 31 F -2.351339 -2.582076 2.554089 0
M  V30 32 C -1.396249 -0.837400 -0.236304 0
M  V30 33 N -0.096428 -0.933387 0.119994 0
M  V30 34 C 2.906382 -0.996004 -0.322653 0
M  V30 35 C 2.862065 -2.367096 0.267818 0
M  V30 36 H 2.369581 -2.454200 4.195708 0
M  V30 37 H 4.035058 -3.081669 4.146128 0
M  V30 38 H 2.587171 -4.178265 4.508215 0
M  V30 39 H 3.748788 -1.075169 3.220082 0
M  V30 40 H 4.328233 -0.708437 1.552375 0
M  V30 41 H 1.332652 -0.751510 2.214622 0
M  V30 42 H 2.305704 0.785192 2.492821 0
M  V30 43 H 2.585084 1.060372 0.267673 0
M  V30 44 H 0.846752 2.245994 -0.492366 0
M  V30 45 H -1.169136 2.490568 -3.329798 0
M  V30 46 H -1.968564 4.723174 -3.959418 0
M  V30 47 H -2.853448 6.324233 -2.293528 0
M  V30 48 H -2.921169 5.618256 0.083584 0
M  V30 49 H -3.650138 1.434154 -1.418395 0
M  V30 50 H -5.113221 -0.550122 -1.258641 0
M  V30 51 H -0.369940 -6.141688 -0.724737 0
M  V30 52 H -0.522407 -6.587245 1.731818 0
M  V30 53 H -1.457113 -4.893668 3.234528 0
M  V30 54 H 2.455377 -1.063083 -1.342394 0
M  V30 55 H 3.964173 -0.676835 -0.456042 0
M  V30 56 H 3.748415 -2.932897 -0.138513 0
M  V30 57 H 1.985349 -2.963139 -0.062702 0
M  V30 END ATOM
M  V30 BEGIN BOND
M  V30 1 1 1 2
M  V30 2 2 2 3
M  V30 3 1 2 4
M  V30 4 1 4 5
M  V30 5 1 5 6
M  V30 6 1 6 7
M  V30 7 1 7 8
M  V30 8 2 8 9
M  V30 9 1 9 10
M  V30 10 1 10 11
M  V30 11 2 11 12
M  V30 12 1 12 13
M  V30 13 2 13 14
M  V30 14 1 14 15
M  V30 15 2 15 16
M  V30 16 1 16 17
M  V30 17 2 10 18
M  V30 18 1 18 19
M  V30 19 2 19 20
M  V30 20 1 20 21
M  V30 21 1 21 22
M  V30 22 2 21 23
M  V30 23 1 23 24
M  V30 24 2 24 25
M  V30 25 1 25 26
M  V30 26 1 25 27
M  V30 27 2 27 28
M  V30 28 1 28 29
M  V30 29 2 29 30
M  V30 30 1 30 31
M  V30 31 1 23 32
M  V30 32 2 32 33
M  V30 33 1 7 34
M  V30 34 1 34 35
M  V30 35 1 35 4
M  V30 36 1 33 8
M  V30 37 1 16 11
M  V30 38 1 32 18
M  V30 39 1 30 24
M  V30 40 1 1 36
M  V30 41 1 1 37
M  V30 42 1 1 38
M  V30 43 1 5 39
M  V30 44 1 5 40
M  V30 45 1 6 41
M  V30 46 1 6 42
M  V30 47 1 7 43
M  V30 48 1 9 44
M  V30 49 1 12 45
M  V30 50 1 13 46
M  V30 51 1 14 47
M  V30 52 1 15 48
M  V30 53 1 19 49
M  V30 54 1 20 50
M  V30 55 1 27 51
M  V30 56 1 28 52
M  V30 57 1 29 53
M  V30 58 1 34 54
M  V30 59 1 34 55
M  V30 60 1 35 56
M  V30 61 1 35 57
M  V30 END BOND
M  V30 END CTAB
M  END
>  <Dataset>  (225) 
ChEMBL_Kinases

>  <Ligand_Instance>  (225) 
nan

>  <PDB_ID>  (225) 
nan

>  <Standardized_SMILES>  (225) 
CC(=O)N1CCC(c2cc(-c3ccccc3Cl)c3cc[n+]([O-])c(-c4c(F)cccc4F)c3n2)CC1

>  <Name>  (225) 
nan

>  <Pocket>  (225) 
nan

>  <ATP_Site>  (225) 
nan

>  <Peripheral>  (225) 
nan

>  <Num_H_Atoms_ProtBoundConf>  (225) 
nan

>  <Num_Resolved_Atoms>  (225) 
nan

>  <Num_Not_Resolved_Atoms>  (225) 
nan

$$$$
CHEMBL1916523
     RDKit          3D

  0  0  0  0  0  0  0  0  0  0999 V3000
M  V30 BEGIN CTAB
M  V30 COUNTS 52 56 0 0 0
M  V30 BEGIN ATOM
M  V30 1 O 1.797204 -4.733418 1.542407 0 CHG=-1 VAL=1
M  V30 2 N 1.727354 -3.367114 1.340919 0 CHG=1 VAL=4
M  V30 3 C 2.899277 -2.695912 1.503722 0
M  V30 4 C 2.969282 -1.325287 1.331993 0
M  V30 5 C 1.806962 -0.660459 0.989069 0
M  V30 6 C 1.757779 0.706977 0.791903 0
M  V30 7 C 3.034277 1.432199 0.970036 0
M  V30 8 C 3.887412 1.613548 -0.114314 0
M  V30 9 C 5.069895 2.302146 0.117318 0
M  V30 10 C 5.414410 2.800033 1.364090 0
M  V30 11 C 4.539532 2.603806 2.435396 0
M  V30 12 C 3.346349 1.917976 2.237365 0
M  V30 13 Cl 2.277844 1.695423 3.613618 0
M  V30 14 C 0.569437 1.321232 0.450226 0
M  V30 15 C -0.571827 0.557590 0.306683 0
M  V30 16 C -1.855890 1.251739 -0.066664 0
M  V30 17 C -2.361646 0.780464 -1.386446 0
M  V30 18 C -3.499090 -0.204011 -1.277893 0
M  V30 19 N -3.396294 -0.971747 -0.034460 0
M  V30 20 C -3.739883 -0.027719 1.035033 0
M  V30 21 C -2.852652 1.165822 1.058622 0
M  V30 22 N -0.570130 -0.793264 0.491281 0
M  V30 23 C 0.614670 -1.335920 0.822426 0
M  V30 24 C 0.578301 -2.716988 1.002880 0
M  V30 25 C -0.648898 -3.525075 0.846744 0
M  V30 26 C -0.771405 -3.961072 -0.476244 0
M  V30 27 F 0.082019 -3.706050 -1.497062 0
M  V30 28 C -1.864181 -4.745213 -0.852853 0
M  V30 29 C -2.805805 -5.077868 0.084763 0
M  V30 30 C -2.661631 -4.630617 1.399425 0
M  V30 31 C -1.594088 -3.860595 1.782001 0
M  V30 32 F -1.338622 -3.369558 3.002285 0
M  V30 33 H 3.825812 -3.187001 1.771783 0
M  V30 34 H 3.872721 -0.736107 1.447713 0
M  V30 35 H 3.623704 1.226545 -1.092056 0
M  V30 36 H 5.753163 2.455213 -0.720045 0
M  V30 37 H 6.360743 3.341513 1.511345 0
M  V30 38 H 4.827056 3.003930 3.414850 0
M  V30 39 H 0.570595 2.393027 0.304303 0
M  V30 40 H -1.608572 2.332234 -0.160353 0
M  V30 41 H -1.529599 0.212046 -1.891031 0
M  V30 42 H -2.628440 1.586487 -2.077710 0
M  V30 43 H -4.487134 0.321143 -1.254404 0
M  V30 44 H -3.497651 -0.894582 -2.127770 0
M  V30 45 H -4.223470 -1.639939 -0.058156 0
M  V30 46 H -4.794026 0.272942 0.838632 0
M  V30 47 H -3.688428 -0.610528 1.999390 0
M  V30 48 H -2.275830 1.180897 2.010338 0
M  V30 49 H -3.475523 2.086714 1.079990 0
M  V30 50 H -2.035026 -5.123234 -1.851523 0
M  V30 51 H -3.676676 -5.689603 -0.166901 0
M  V30 52 H -3.389041 -4.869309 2.191027 0
M  V30 END ATOM
M  V30 BEGIN BOND
M  V30 1 1 1 2
M  V30 2 2 2 3
M  V30 3 1 3 4
M  V30 4 2 4 5
M  V30 5 1 5 6
M  V30 6 1 6 7
M  V30 7 2 7 8
M  V30 8 1 8 9
M  V30 9 2 9 10
M  V30 10 1 10 11
M  V30 11 2 11 12
M  V30 12 1 12 13
M  V30 13 2 6 14
M  V30 14 1 14 15
M  V30 15 1 15 16
M  V30 16 1 16 17
M  V30 17 1 17 18
M  V30 18 1 18 19
M  V30 19 1 19 20
M  V30 20 1 20 21
M  V30 21 2 15 22
M  V30 22 1 22 23
M  V30 23 2 23 24
M  V30 24 1 24 25
M  V30 25 2 25 26
M  V30 26 1 26 27
M  V30 27 1 26 28
M  V30 28 2 28 29
M  V30 29 1 29 30
M  V30 30 2 30 31
M  V30 31 1 31 32
M  V30 32 1 24 2
M  V30 33 1 31 25
M  V30 34 1 23 5
M  V30 35 1 12 7
M  V30 36 1 21 16
M  V30 37 1 3 33
M  V30 38 1 4 34
M  V30 39 1 8 35
M  V30 40 1 9 36
M  V30 41 1 10 37
M  V30 42 1 11 38
M  V30 43 1 14 39
M  V30 44 1 16 40
M  V30 45 1 17 41
M  V30 46 1 17 42
M  V30 47 1 18 43
M  V30 48 1 18 44
M  V30 49 1 19 45
M  V30 50 1 20 46
M  V30 51 1 20 47
M  V30 52 1 21 48
M  V30 53 1 21 49
M  V30 54 1 28 50
M  V30 55 1 29 51
M  V30 56 1 30 52
M  V30 END BOND
M  V30 END CTAB
M  END
>  <Dataset>  (226) 
ChEMBL_Kinases

>  <Ligand_Instance>  (226) 
nan

>  <PDB_ID>  (226) 
nan

>  <Standardized_SMILES>  (226) 
[O-][n+]1ccc2c(-c3ccccc3Cl)cc(C3CCNCC3)nc2c1-c1c(F)cccc1F

>  <Name>  (226) 
nan

>  <Pocket>  (226) 
nan

>  <ATP_Site>  (226) 
nan

>  <Peripheral>  (226) 
nan

>  <Num_H_Atoms_ProtBoundConf>  (226) 
nan

>  <Num_Resolved_Atoms>  (226) 
nan

>  <Num_Not_Resolved_Atoms>  (226) 
nan

$$$$
CHEMBL1916522
     RDKit          3D

  0  0  0  0  0  0  0  0  0  0999 V3000
M  V30 BEGIN CTAB
M  V30 COUNTS 46 50 0 0 0
M  V30 BEGIN ATOM
M  V30 1 O 1.192166 -4.900966 0.250658 0 CHG=-1 VAL=1
M  V30 2 N 1.343267 -3.530469 0.405753 0 CHG=1 VAL=4
M  V30 3 C 2.579446 -2.998718 0.502558 0
M  V30 4 C 2.792386 -1.632014 0.659167 0
M  V30 5 C 1.687760 -0.804195 0.715660 0
M  V30 6 C 1.759061 0.572217 0.868935 0
M  V30 7 C 3.080632 1.188686 0.977711 0
M  V30 8 C 3.818132 1.641547 -0.108383 0
M  V30 9 C 5.065428 2.212308 0.110863 0
M  V30 10 C 5.609824 2.349527 1.385547 0
M  V30 11 F 6.832552 2.910377 1.586456 0
M  V30 12 C 4.831555 1.879884 2.444735 0
M  V30 13 C 3.583613 1.305577 2.259604 0
M  V30 14 Cl 2.786564 0.788324 3.726727 0
M  V30 15 C 0.613111 1.337697 0.917311 0
M  V30 16 C -0.619130 0.728598 0.812144 0
M  V30 17 C -1.870734 1.473681 0.855049 0
M  V30 18 C -3.058812 0.783071 0.742341 0
M  V30 19 C -4.309169 1.411552 0.772500 0
M  V30 20 C -4.361126 2.801644 0.923479 0
M  V30 21 N -3.189233 3.448376 1.030867 0
M  V30 22 C -1.990461 2.839171 1.001222 0
M  V30 23 N -0.720774 -0.603890 0.662740 0
M  V30 24 C 0.422592 -1.348355 0.616593 0
M  V30 25 C 0.244351 -2.724997 0.459970 0
M  V30 26 C -1.047709 -3.392071 0.346572 0
M  V30 27 C -1.697429 -3.838744 1.479866 0
M  V30 28 Cl -1.011584 -3.627962 3.073762 0
M  V30 29 C -2.932780 -4.471744 1.320014 0
M  V30 30 C -3.504698 -4.653741 0.057521 0
M  V30 31 C -2.812057 -4.186667 -1.053169 0
M  V30 32 C -1.590609 -3.559336 -0.910707 0
M  V30 33 Cl -0.832353 -3.024275 -2.380782 0
M  V30 34 H 3.441029 -3.650369 0.457840 0
M  V30 35 H 3.750518 -1.169845 0.739684 0
M  V30 36 H 3.391354 1.532835 -1.095717 0
M  V30 37 H 5.609429 2.552607 -0.756233 0
M  V30 38 H 5.308281 2.013368 3.420641 0
M  V30 39 H 0.693231 2.400772 1.036469 0
M  V30 40 H -3.120328 -0.307327 0.620745 0
M  V30 41 H -5.228872 0.846999 0.681973 0
M  V30 42 H -5.323872 3.304878 0.948834 0
M  V30 43 H -1.075694 3.408225 1.092090 0
M  V30 44 H -3.467110 -4.833316 2.190285 0
M  V30 45 H -4.469348 -5.157412 0.033072 0
M  V30 46 H -3.314102 -4.361980 -1.995066 0
M  V30 END ATOM
M  V30 BEGIN BOND
M  V30 1 1 1 2
M  V30 2 2 2 3
M  V30 3 1 3 4
M  V30 4 2 4 5
M  V30 5 1 5 6
M  V30 6 1 6 7
M  V30 7 2 7 8
M  V30 8 1 8 9
M  V30 9 2 9 10
M  V30 10 1 10 11
M  V30 11 1 10 12
M  V30 12 2 12 13
M  V30 13 1 13 14
M  V30 14 2 6 15
M  V30 15 1 15 16
M  V30 16 1 16 17
M  V30 17 2 17 18
M  V30 18 1 18 19
M  V30 19 2 19 20
M  V30 20 1 20 21
M  V30 21 2 21 22
M  V30 22 2 16 23
M  V30 23 1 23 24
M  V30 24 2 24 25
M  V30 25 1 25 26
M  V30 26 2 26 27
M  V30 27 1 27 28
M  V30 28 1 27 29
M  V30 29 2 29 30
M  V30 30 1 30 31
M  V30 31 2 31 32
M  V30 32 1 32 33
M  V30 33 1 25 2
M  V30 34 1 32 26
M  V30 35 1 24 5
M  V30 36 1 13 7
M  V30 37 1 22 17
M  V30 38 1 3 34
M  V30 39 1 4 35
M  V30 40 1 8 36
M  V30 41 1 9 37
M  V30 42 1 12 38
M  V30 43 1 15 39
M  V30 44 1 18 40
M  V30 45 1 19 41
M  V30 46 1 20 42
M  V30 47 1 22 43
M  V30 48 1 29 44
M  V30 49 1 30 45
M  V30 50 1 31 46
M  V30 END BOND
M  V30 END CTAB
M  END
>  <Dataset>  (227) 
ChEMBL_Kinases

>  <Ligand_Instance>  (227) 
nan

>  <PDB_ID>  (227) 
nan

>  <Standardized_SMILES>  (227) 
[O-][n+]1ccc2c(-c3ccc(F)cc3Cl)cc(-c3cccnc3)nc2c1-c1c(Cl)cccc1Cl

>  <Name>  (227) 
nan

>  <Pocket>  (227) 
nan

>  <ATP_Site>  (227) 
nan

>  <Peripheral>  (227) 
nan

>  <Num_H_Atoms_ProtBoundConf>  (227) 
nan

>  <Num_Resolved_Atoms>  (227) 
nan

>  <Num_Not_Resolved_Atoms>  (227) 
nan

$$$$
CHEMBL1916345
     RDKit          3D

  0  0  0  0  0  0  0  0  0  0999 V3000
M  V30 BEGIN CTAB
M  V30 COUNTS 37 40 0 0 0
M  V30 BEGIN ATOM
M  V30 1 O 1.108203 -4.185896 1.459122 0 CHG=-1 VAL=1
M  V30 2 N 0.987423 -2.846386 1.167433 0 CHG=1 VAL=4
M  V30 3 C 2.126344 -2.131250 1.032963 0
M  V30 4 C 1.998479 -0.779189 0.738435 0
M  V30 5 C 0.757599 -0.199796 0.591272 0
M  V30 6 C 0.603286 1.144316 0.297997 0
M  V30 7 C 1.814027 1.942867 0.146756 0
M  V30 8 C 2.293805 1.977621 -1.146840 0
M  V30 9 C 3.429125 2.679467 -1.494290 0
M  V30 10 C 4.078792 3.357119 -0.484208 0
M  V30 11 F 5.203527 4.079295 -0.710723 0
M  V30 12 C 3.628734 3.349273 0.837672 0
M  V30 13 C 2.490153 2.634112 1.136644 0
M  V30 14 F 1.947621 2.543574 2.375075 0
M  V30 15 C -0.639955 1.721041 0.151372 0
M  V30 16 C -1.744659 0.908124 0.307585 0
M  V30 17 N -1.617244 -0.419623 0.596847 0
M  V30 18 C -0.389722 -0.958155 0.734939 0
M  V30 19 C -0.238659 -2.299483 1.027555 0
M  V30 20 C -1.451957 -3.102095 1.179598 0
M  V30 21 C -1.953115 -3.707894 0.041426 0
M  V30 22 C -3.091948 -4.501573 0.007528 0
M  V30 23 C -3.776056 -4.699543 1.207946 0
M  V30 24 C -3.280312 -4.099245 2.338404 0
M  V30 25 C -2.150023 -3.311510 2.372095 0
M  V30 26 Cl -1.506652 -2.542426 3.795583 0
M  V30 27 H 3.113845 -2.554100 1.141815 0
M  V30 28 H 2.829220 -0.112375 0.608963 0
M  V30 29 H 1.819094 1.457712 -1.993328 0
M  V30 30 H 3.871908 2.761310 -2.470185 0
M  V30 31 H 4.135110 3.879695 1.634760 0
M  V30 32 H -0.732802 2.777276 -0.078590 0
M  V30 33 H -2.725970 1.349318 0.194887 0
M  V30 34 H -1.447464 -3.576677 -0.912001 0
M  V30 35 H -3.428458 -4.946251 -0.922714 0
M  V30 36 H -4.672499 -5.311265 1.238341 0
M  V30 37 H -3.791153 -4.233812 3.292835 0
M  V30 END ATOM
M  V30 BEGIN BOND
M  V30 1 1 1 2
M  V30 2 2 2 3
M  V30 3 1 3 4
M  V30 4 2 4 5
M  V30 5 1 5 6
M  V30 6 1 6 7
M  V30 7 2 7 8
M  V30 8 1 8 9
M  V30 9 2 9 10
M  V30 10 1 10 11
M  V30 11 1 10 12
M  V30 12 2 12 13
M  V30 13 1 13 14
M  V30 14 2 6 15
M  V30 15 1 15 16
M  V30 16 2 16 17
M  V30 17 1 17 18
M  V30 18 2 18 19
M  V30 19 1 19 20
M  V30 20 2 20 21
M  V30 21 1 21 22
M  V30 22 2 22 23
M  V30 23 1 23 24
M  V30 24 2 24 25
M  V30 25 1 25 26
M  V30 26 1 19 2
M  V30 27 1 25 20
M  V30 28 1 18 5
M  V30 29 1 13 7
M  V30 30 1 3 27
M  V30 31 1 4 28
M  V30 32 1 8 29
M  V30 33 1 9 30
M  V30 34 1 12 31
M  V30 35 1 15 32
M  V30 36 1 16 33
M  V30 37 1 21 34
M  V30 38 1 22 35
M  V30 39 1 23 36
M  V30 40 1 24 37
M  V30 END BOND
M  V30 END CTAB
M  END
>  <Dataset>  (228) 
ChEMBL_Kinases

>  <Ligand_Instance>  (228) 
nan

>  <PDB_ID>  (228) 
nan

>  <Standardized_SMILES>  (228) 
[O-][n+]1ccc2c(-c3ccc(F)cc3F)ccnc2c1-c1ccccc1Cl

>  <Name>  (228) 
nan

>  <Pocket>  (228) 
nan

>  <ATP_Site>  (228) 
nan

>  <Peripheral>  (228) 
nan

>  <Num_H_Atoms_ProtBoundConf>  (228) 
nan

>  <Num_Resolved_Atoms>  (228) 
nan

>  <Num_Not_Resolved_Atoms>  (228) 
nan

$$$$
CHEMBL1916346
     RDKit          3D

  0  0  0  0  0  0  0  0  0  0999 V3000
M  V30 BEGIN CTAB
M  V30 COUNTS 37 40 0 0 0
M  V30 BEGIN ATOM
M  V30 1 O 1.007060 -4.223327 1.415237 0 CHG=-1 VAL=1
M  V30 2 N 0.928344 -2.870693 1.139554 0 CHG=1 VAL=4
M  V30 3 C 2.089256 -2.179834 0.971018 0
M  V30 4 C 1.975564 -0.819377 0.694531 0
M  V30 5 C 0.757146 -0.225177 0.600753 0
M  V30 6 C 0.717522 1.138847 0.321826 0
M  V30 7 C 1.900256 1.972907 0.123392 0
M  V30 8 C 2.330375 2.043412 -1.186556 0
M  V30 9 C 3.424111 2.769305 -1.611541 0
M  V30 10 C 4.109027 3.461283 -0.615471 0
M  V30 11 F 5.192561 4.193052 -0.969282 0
M  V30 12 C 3.710956 3.418576 0.716731 0
M  V30 13 C 2.608751 2.676216 1.087352 0
M  V30 14 F 2.123698 2.556486 2.350712 0
M  V30 15 C -0.536716 1.728317 0.229847 0
M  V30 16 C -1.682046 0.962785 0.413343 0
M  V30 17 N -1.603227 -0.362093 0.683333 0
M  V30 18 C -0.398951 -0.954140 0.776995 0
M  V30 19 C -0.303294 -2.304738 1.051875 0
M  V30 20 C -1.503225 -3.114810 1.245778 0
M  V30 21 C -2.072630 -3.728145 0.125147 0
M  V30 22 C -3.186638 -4.514739 0.122140 0
M  V30 23 C -3.813313 -4.727610 1.336683 0
M  V30 24 C -3.289530 -4.143817 2.471345 0
M  V30 25 C -2.160669 -3.352018 2.446412 0
M  V30 26 F -1.614335 -2.760788 3.536163 0
M  V30 27 H 3.042109 -2.715820 1.058984 0
M  V30 28 H 2.890318 -0.260075 0.558665 0
M  V30 29 H 1.824132 1.515426 -2.010605 0
M  V30 30 H 3.743610 2.810450 -2.644305 0
M  V30 31 H 4.233449 3.951346 1.502564 0
M  V30 32 H -0.592090 2.770616 0.017290 0
M  V30 33 H -2.626949 1.507630 0.323377 0
M  V30 34 H -1.589166 -3.568223 -0.834636 0
M  V30 35 H -3.558192 -4.950118 -0.795304 0
M  V30 36 H -4.702608 -5.350701 1.359847 0
M  V30 37 H -3.777020 -4.306836 3.429776 0
M  V30 END ATOM
M  V30 BEGIN BOND
M  V30 1 1 1 2
M  V30 2 2 2 3
M  V30 3 1 3 4
M  V30 4 2 4 5
M  V30 5 1 5 6
M  V30 6 1 6 7
M  V30 7 2 7 8
M  V30 8 1 8 9
M  V30 9 2 9 10
M  V30 10 1 10 11
M  V30 11 1 10 12
M  V30 12 2 12 13
M  V30 13 1 13 14
M  V30 14 2 6 15
M  V30 15 1 15 16
M  V30 16 2 16 17
M  V30 17 1 17 18
M  V30 18 2 18 19
M  V30 19 1 19 20
M  V30 20 2 20 21
M  V30 21 1 21 22
M  V30 22 2 22 23
M  V30 23 1 23 24
M  V30 24 2 24 25
M  V30 25 1 25 26
M  V30 26 1 19 2
M  V30 27 1 25 20
M  V30 28 1 18 5
M  V30 29 1 13 7
M  V30 30 1 3 27
M  V30 31 1 4 28
M  V30 32 1 8 29
M  V30 33 1 9 30
M  V30 34 1 12 31
M  V30 35 1 15 32
M  V30 36 1 16 33
M  V30 37 1 21 34
M  V30 38 1 22 35
M  V30 39 1 23 36
M  V30 40 1 24 37
M  V30 END BOND
M  V30 END CTAB
M  END
>  <Dataset>  (229) 
ChEMBL_Kinases

>  <Ligand_Instance>  (229) 
nan

>  <PDB_ID>  (229) 
nan

>  <Standardized_SMILES>  (229) 
[O-][n+]1ccc2c(-c3ccc(F)cc3F)ccnc2c1-c1ccccc1F

>  <Name>  (229) 
nan

>  <Pocket>  (229) 
nan

>  <ATP_Site>  (229) 
nan

>  <Peripheral>  (229) 
nan

>  <Num_H_Atoms_ProtBoundConf>  (229) 
nan

>  <Num_Resolved_Atoms>  (229) 
nan

>  <Num_Not_Resolved_Atoms>  (229) 
nan

$$$$
CHEMBL1916347
     RDKit          3D

  0  0  0  0  0  0  0  0  0  0999 V3000
M  V30 BEGIN CTAB
M  V30 COUNTS 43 46 0 0 0
M  V30 BEGIN ATOM
M  V30 1 C -1.461803 -3.184553 -0.539896 0
M  V30 2 C -0.558681 -2.795115 -1.671017 0
M  V30 3 C -0.948405 -3.285645 -2.913374 0
M  V30 4 C -0.171630 -2.974135 -4.012070 0
M  V30 5 C 0.967990 -2.193966 -3.889924 0
M  V30 6 C 1.345740 -1.710314 -2.641774 0
M  V30 7 C 2.545802 -0.865719 -2.389450 0
M  V30 8 C 0.580173 -2.009528 -1.517066 0
M  V30 9 C 0.822024 -1.595936 -0.160142 0
M  V30 10 C 0.314062 -0.422924 0.375105 0
M  V30 11 N -0.435937 0.363757 -0.401842 0
M  V30 12 C -0.940643 1.512014 0.101404 0
M  V30 13 C -0.706716 1.912006 1.413757 0
M  V30 14 C 0.078993 1.080202 2.214988 0
M  V30 15 C 0.277595 1.568236 3.575284 0
M  V30 16 C 1.266588 2.376060 4.059565 0
M  V30 17 C 1.278385 2.727834 5.391655 0
M  V30 18 C 0.324505 2.302189 6.294925 0
M  V30 19 F 0.360572 2.663842 7.600350 0
M  V30 20 C -0.684945 1.481010 5.813629 0
M  V30 21 C -0.701761 1.121631 4.465492 0
M  V30 22 F -1.730536 0.321540 4.117658 0
M  V30 23 C 0.584917 -0.086271 1.684918 0
M  V30 24 C 1.344490 -0.855466 2.517433 0
M  V30 25 C 1.851485 -2.033179 1.971704 0
M  V30 26 N 1.573682 -2.346458 0.681367 0 CHG=1 VAL=4
M  V30 27 O 2.104511 -3.520680 0.207577 0 CHG=-1 VAL=1
M  V30 28 H -1.078462 -2.783636 0.429076 0
M  V30 29 H -2.477116 -2.735474 -0.734644 0
M  V30 30 H -1.556819 -4.267399 -0.419909 0
M  V30 31 H -1.829141 -3.897286 -3.054485 0
M  V30 32 H -0.466766 -3.350180 -4.977427 0
M  V30 33 H 1.598244 -1.931297 -4.728130 0
M  V30 34 H 2.333020 -0.135788 -1.581077 0
M  V30 35 H 3.409901 -1.479150 -2.035654 0
M  V30 36 H 2.794691 -0.269559 -3.282770 0
M  V30 37 H -1.549038 2.147698 -0.532922 0
M  V30 38 H -1.127986 2.839106 1.781850 0
M  V30 39 H 1.987712 2.683444 3.320902 0
M  V30 40 H 2.080468 3.369786 5.733232 0
M  V30 41 H -1.429081 1.148504 6.516558 0
M  V30 42 H 1.540150 -0.568889 3.535533 0
M  V30 43 H 2.464733 -2.699692 2.568401 0
M  V30 END ATOM
M  V30 BEGIN BOND
M  V30 1 1 1 2
M  V30 2 2 2 3
M  V30 3 1 3 4
M  V30 4 2 4 5
M  V30 5 1 5 6
M  V30 6 1 6 7
M  V30 7 2 6 8
M  V30 8 1 8 9
M  V30 9 1 9 10
M  V30 10 2 10 11
M  V30 11 1 11 12
M  V30 12 2 12 13
M  V30 13 1 13 14
M  V30 14 1 14 15
M  V30 15 2 15 16
M  V30 16 1 16 17
M  V30 17 2 17 18
M  V30 18 1 18 19
M  V30 19 1 18 20
M  V30 20 2 20 21
M  V30 21 1 21 22
M  V30 22 2 14 23
M  V30 23 1 23 24
M  V30 24 2 24 25
M  V30 25 1 25 26
M  V30 26 1 26 27
M  V30 27 1 8 2
M  V30 28 2 26 9
M  V30 29 1 23 10
M  V30 30 1 21 15
M  V30 31 1 1 28
M  V30 32 1 1 29
M  V30 33 1 1 30
M  V30 34 1 3 31
M  V30 35 1 4 32
M  V30 36 1 5 33
M  V30 37 1 7 34
M  V30 38 1 7 35
M  V30 39 1 7 36
M  V30 40 1 12 37
M  V30 41 1 13 38
M  V30 42 1 16 39
M  V30 43 1 17 40
M  V30 44 1 20 41
M  V30 45 1 24 42
M  V30 46 1 25 43
M  V30 END BOND
M  V30 END CTAB
M  END
>  <Dataset>  (230) 
ChEMBL_Kinases

>  <Ligand_Instance>  (230) 
nan

>  <PDB_ID>  (230) 
nan

>  <Standardized_SMILES>  (230) 
Cc1cccc(C)c1-c1c2nccc(-c3ccc(F)cc3F)c2cc[n+]1[O-]

>  <Name>  (230) 
nan

>  <Pocket>  (230) 
nan

>  <ATP_Site>  (230) 
nan

>  <Peripheral>  (230) 
nan

>  <Num_H_Atoms_ProtBoundConf>  (230) 
nan

>  <Num_Resolved_Atoms>  (230) 
nan

>  <Num_Not_Resolved_Atoms>  (230) 
nan

$$$$
CHEMBL1916348
     RDKit          3D

  0  0  0  0  0  0  0  0  0  0999 V3000
M  V30 BEGIN CTAB
M  V30 COUNTS 45 48 0 0 0
M  V30 BEGIN ATOM
M  V30 1 C 2.109561 -4.543497 -0.462207 0
M  V30 2 O 1.763817 -3.179734 -0.344200 0
M  V30 3 C 2.772743 -2.237224 -0.338403 0
M  V30 4 C 4.125849 -2.514940 -0.440317 0
M  V30 5 C 5.093807 -1.546900 -0.430218 0
M  V30 6 C 4.742190 -0.216437 -0.314218 0
M  V30 7 C 3.401624 0.135868 -0.207759 0
M  V30 8 O 2.956343 1.455095 -0.086877 0
M  V30 9 C 3.977765 2.451891 -0.077977 0
M  V30 10 C 2.473466 -0.875100 -0.223327 0
M  V30 11 C 1.039395 -0.541627 -0.112529 0
M  V30 12 C 0.359962 -0.448879 1.090085 0
M  V30 13 N 1.061394 -0.679643 2.228930 0
M  V30 14 C 0.367148 -0.580276 3.376939 0
M  V30 15 C -0.975215 -0.268162 3.481022 0
M  V30 16 C -1.650442 -0.040037 2.279236 0
M  V30 17 C -3.080905 0.298413 2.286446 0
M  V30 18 C -3.881701 -0.840775 2.217737 0
M  V30 19 C -5.269794 -0.725359 2.213093 0
M  V30 20 C -5.794284 0.543136 2.278410 0
M  V30 21 F -7.143438 0.669545 2.274661 0
M  V30 22 C -5.019287 1.680991 2.346840 0
M  V30 23 C -3.629713 1.563589 2.351390 0
M  V30 24 F -2.755614 2.578345 2.413870 0
M  V30 25 C -0.983719 -0.129305 1.068163 0
M  V30 26 C -1.627764 0.090732 -0.120999 0
M  V30 27 C -0.908927 -0.012341 -1.306117 0
M  V30 28 N 0.412981 -0.326565 -1.287617 0 CHG=1 VAL=4
M  V30 29 O 1.002808 -0.395927 -2.528292 0 CHG=-1 VAL=1
M  V30 30 H 2.874983 -4.678164 -1.239353 0
M  V30 31 H 2.523035 -4.920024 0.509455 0
M  V30 32 H 1.208456 -5.148365 -0.719768 0
M  V30 33 H 4.418125 -3.546976 -0.531483 0
M  V30 34 H 6.142359 -1.833007 -0.514236 0
M  V30 35 H 5.475907 0.579069 -0.302186 0
M  V30 36 H 4.486189 2.377061 -1.071486 0
M  V30 37 H 3.583686 3.461831 0.079594 0
M  V30 38 H 4.738310 2.202898 0.705891 0
M  V30 39 H 0.869917 -0.753932 4.338824 0
M  V30 40 H -1.476733 -0.203516 4.436314 0
M  V30 41 H -3.517323 -1.858872 2.164867 0
M  V30 42 H -5.905086 -1.609596 2.159665 0
M  V30 43 H -5.419973 2.691167 2.398992 0
M  V30 44 H -2.669375 0.335946 -0.093805 0
M  V30 45 H -1.443695 0.166599 -2.226907 0
M  V30 END ATOM
M  V30 BEGIN BOND
M  V30 1 1 1 2
M  V30 2 1 2 3
M  V30 3 2 3 4
M  V30 4 1 4 5
M  V30 5 2 5 6
M  V30 6 1 6 7
M  V30 7 1 7 8
M  V30 8 1 8 9
M  V30 9 2 7 10
M  V30 10 1 10 11
M  V30 11 1 11 12
M  V30 12 2 12 13
M  V30 13 1 13 14
M  V30 14 2 14 15
M  V30 15 1 15 16
M  V30 16 1 16 17
M  V30 17 2 17 18
M  V30 18 1 18 19
M  V30 19 2 19 20
M  V30 20 1 20 21
M  V30 21 1 20 22
M  V30 22 2 22 23
M  V30 23 1 23 24
M  V30 24 2 16 25
M  V30 25 1 25 26
M  V30 26 2 26 27
M  V30 27 1 27 28
M  V30 28 1 28 29
M  V30 29 1 10 3
M  V30 30 2 28 11
M  V30 31 1 25 12
M  V30 32 1 23 17
M  V30 33 1 1 30
M  V30 34 1 1 31
M  V30 35 1 1 32
M  V30 36 1 4 33
M  V30 37 1 5 34
M  V30 38 1 6 35
M  V30 39 1 9 36
M  V30 40 1 9 37
M  V30 41 1 9 38
M  V30 42 1 14 39
M  V30 43 1 15 40
M  V30 44 1 18 41
M  V30 45 1 19 42
M  V30 46 1 22 43
M  V30 47 1 26 44
M  V30 48 1 27 45
M  V30 END BOND
M  V30 END CTAB
M  END
>  <Dataset>  (231) 
ChEMBL_Kinases

>  <Ligand_Instance>  (231) 
nan

>  <PDB_ID>  (231) 
nan

>  <Standardized_SMILES>  (231) 
COc1cccc(OC)c1-c1c2nccc(-c3ccc(F)cc3F)c2cc[n+]1[O-]

>  <Name>  (231) 
nan

>  <Pocket>  (231) 
nan

>  <ATP_Site>  (231) 
nan

>  <Peripheral>  (231) 
nan

>  <Num_H_Atoms_ProtBoundConf>  (231) 
nan

>  <Num_Resolved_Atoms>  (231) 
nan

>  <Num_Not_Resolved_Atoms>  (231) 
nan

$$$$
CHEMBL1916349
     RDKit          3D

  0  0  0  0  0  0  0  0  0  0999 V3000
M  V30 BEGIN CTAB
M  V30 COUNTS 37 40 0 0 0
M  V30 BEGIN ATOM
M  V30 1 O 1.755002 -4.120308 0.350322 0 CHG=-1 VAL=1
M  V30 2 N 1.439184 -2.796976 0.434681 0 CHG=1 VAL=4
M  V30 3 C 2.337037 -1.833709 0.220544 0
M  V30 4 C 1.993435 -0.504598 0.311736 0
M  V30 5 C 0.709921 -0.159404 0.627232 0
M  V30 6 C 0.307428 1.158461 0.732752 0
M  V30 7 C 1.288865 2.224095 0.498754 0
M  V30 8 C 1.339407 2.618919 -0.842205 0
M  V30 9 C 2.192402 3.603709 -1.274710 0
M  V30 10 C 3.027738 4.229707 -0.375375 0
M  V30 11 F 3.907759 5.217810 -0.712527 0
M  V30 12 C 2.973123 3.835020 0.948721 0
M  V30 13 C 2.118084 2.844585 1.395100 0
M  V30 14 F 1.999875 2.401069 2.655354 0
M  V30 15 C -0.984991 1.527505 1.050552 0
M  V30 16 C -1.851752 0.466918 1.256561 0
M  V30 17 N -1.502560 -0.837805 1.164136 0
M  V30 18 C -0.240728 -1.136493 0.854193 0
M  V30 19 C 0.169721 -2.468263 0.746652 0
M  V30 20 C -0.850175 -3.483655 0.990313 0
M  V30 21 C -1.526242 -3.843969 -0.179188 0
M  V30 22 Cl -1.180871 -3.146045 -1.768534 0
M  V30 23 C -2.538810 -4.791977 -0.193032 0
M  V30 24 C -2.866793 -5.382394 1.008258 0
M  V30 25 C -2.211387 -5.040150 2.172050 0
M  V30 26 C -1.205112 -4.096797 2.180562 0
M  V30 27 Cl -0.291935 -3.562415 3.557184 0
M  V30 28 H 3.364737 -2.076712 -0.031882 0
M  V30 29 H 2.717117 0.282728 0.139186 0
M  V30 30 H 0.727459 2.193662 -1.631303 0
M  V30 31 H 2.253061 3.929950 -2.307061 0
M  V30 32 H 3.598889 4.286092 1.692288 0
M  V30 33 H -1.321061 2.551543 1.138248 0
M  V30 34 H -2.886913 0.652530 1.510497 0
M  V30 35 H -3.070781 -5.084477 -1.075038 0
M  V30 36 H -3.662704 -6.140425 1.052127 0
M  V30 37 H -2.429780 -5.474155 3.145824 0
M  V30 END ATOM
M  V30 BEGIN BOND
M  V30 1 1 1 2
M  V30 2 2 2 3
M  V30 3 1 3 4
M  V30 4 2 4 5
M  V30 5 1 5 6
M  V30 6 1 6 7
M  V30 7 2 7 8
M  V30 8 1 8 9
M  V30 9 2 9 10
M  V30 10 1 10 11
M  V30 11 1 10 12
M  V30 12 2 12 13
M  V30 13 1 13 14
M  V30 14 2 6 15
M  V30 15 1 15 16
M  V30 16 2 16 17
M  V30 17 1 17 18
M  V30 18 2 18 19
M  V30 19 1 19 20
M  V30 20 2 20 21
M  V30 21 1 21 22
M  V30 22 1 21 23
M  V30 23 2 23 24
M  V30 24 1 24 25
M  V30 25 2 25 26
M  V30 26 1 26 27
M  V30 27 1 19 2
M  V30 28 1 26 20
M  V30 29 1 18 5
M  V30 30 1 13 7
M  V30 31 1 3 28
M  V30 32 1 4 29
M  V30 33 1 8 30
M  V30 34 1 9 31
M  V30 35 1 12 32
M  V30 36 1 15 33
M  V30 37 1 16 34
M  V30 38 1 23 35
M  V30 39 1 24 36
M  V30 40 1 25 37
M  V30 END BOND
M  V30 END CTAB
M  END
>  <Dataset>  (232) 
ChEMBL_Kinases

>  <Ligand_Instance>  (232) 
nan

>  <PDB_ID>  (232) 
nan

>  <Standardized_SMILES>  (232) 
[O-][n+]1ccc2c(-c3ccc(F)cc3F)ccnc2c1-c1c(Cl)cccc1Cl

>  <Name>  (232) 
nan

>  <Pocket>  (232) 
nan

>  <ATP_Site>  (232) 
nan

>  <Peripheral>  (232) 
nan

>  <Num_H_Atoms_ProtBoundConf>  (232) 
nan

>  <Num_Resolved_Atoms>  (232) 
nan

>  <Num_Not_Resolved_Atoms>  (232) 
nan

$$$$
CHEMBL1916350
     RDKit          3D

  0  0  0  0  0  0  0  0  0  0999 V3000
M  V30 BEGIN CTAB
M  V30 COUNTS 37 40 0 0 0
M  V30 BEGIN ATOM
M  V30 1 O 1.695992 -4.198192 0.492341 0 CHG=-1 VAL=1
M  V30 2 N 1.374663 -2.852437 0.529366 0 CHG=1 VAL=4
M  V30 3 C 2.328061 -1.917244 0.268779 0
M  V30 4 C 1.982259 -0.569422 0.311705 0
M  V30 5 C 0.711440 -0.160362 0.608422 0
M  V30 6 C 0.372735 1.183907 0.649733 0
M  V30 7 C 1.388208 2.198411 0.371623 0
M  V30 8 C 1.450108 2.527596 -0.987222 0
M  V30 9 C 2.349145 3.465214 -1.431405 0
M  V30 10 C 3.218905 4.115786 -0.573613 0
M  V30 11 F 4.108910 5.042021 -1.003515 0
M  V30 12 C 3.132772 3.767758 0.764926 0
M  V30 13 C 2.242111 2.830605 1.246501 0
M  V30 14 F 2.105651 2.448413 2.517944 0
M  V30 15 C -0.912117 1.596908 0.949743 0
M  V30 16 C -1.805257 0.574126 1.198343 0
M  V30 17 N -1.493173 -0.734603 1.162424 0
M  V30 18 C -0.254457 -1.104802 0.872332 0
M  V30 19 C 0.116818 -2.452153 0.823194 0
M  V30 20 C -0.937704 -3.418416 1.109337 0
M  V30 21 C -1.632253 -3.813890 -0.037392 0
M  V30 22 F -1.365175 -3.353555 -1.304682 0
M  V30 23 C -2.669698 -4.723102 0.014663 0
M  V30 24 C -3.039877 -5.264370 1.234855 0
M  V30 25 C -2.354762 -4.872200 2.354558 0
M  V30 26 C -1.316064 -3.965404 2.321923 0
M  V30 27 F -0.588077 -3.522293 3.365433 0
M  V30 28 H 3.343072 -2.232626 0.031439 0
M  V30 29 H 2.718966 0.195954 0.109041 0
M  V30 30 H 0.818548 2.087139 -1.770434 0
M  V30 31 H 2.429268 3.748339 -2.472651 0
M  V30 32 H 3.785362 4.236094 1.507891 0
M  V30 33 H -1.195349 2.643714 0.986644 0
M  V30 34 H -2.844009 0.817938 1.443645 0
M  V30 35 H -3.223280 -5.045621 -0.858757 0
M  V30 36 H -3.850277 -5.977581 1.291990 0
M  V30 37 H -2.593819 -5.258074 3.343846 0
M  V30 END ATOM
M  V30 BEGIN BOND
M  V30 1 1 1 2
M  V30 2 2 2 3
M  V30 3 1 3 4
M  V30 4 2 4 5
M  V30 5 1 5 6
M  V30 6 1 6 7
M  V30 7 2 7 8
M  V30 8 1 8 9
M  V30 9 2 9 10
M  V30 10 1 10 11
M  V30 11 1 10 12
M  V30 12 2 12 13
M  V30 13 1 13 14
M  V30 14 2 6 15
M  V30 15 1 15 16
M  V30 16 2 16 17
M  V30 17 1 17 18
M  V30 18 2 18 19
M  V30 19 1 19 20
M  V30 20 2 20 21
M  V30 21 1 21 22
M  V30 22 1 21 23
M  V30 23 2 23 24
M  V30 24 1 24 25
M  V30 25 2 25 26
M  V30 26 1 26 27
M  V30 27 1 19 2
M  V30 28 1 26 20
M  V30 29 1 18 5
M  V30 30 1 13 7
M  V30 31 1 3 28
M  V30 32 1 4 29
M  V30 33 1 8 30
M  V30 34 1 9 31
M  V30 35 1 12 32
M  V30 36 1 15 33
M  V30 37 1 16 34
M  V30 38 1 23 35
M  V30 39 1 24 36
M  V30 40 1 25 37
M  V30 END BOND
M  V30 END CTAB
M  END
>  <Dataset>  (233) 
ChEMBL_Kinases

>  <Ligand_Instance>  (233) 
nan

>  <PDB_ID>  (233) 
nan

>  <Standardized_SMILES>  (233) 
[O-][n+]1ccc2c(-c3ccc(F)cc3F)ccnc2c1-c1c(F)cccc1F

>  <Name>  (233) 
nan

>  <Pocket>  (233) 
nan

>  <ATP_Site>  (233) 
nan

>  <Peripheral>  (233) 
nan

>  <Num_H_Atoms_ProtBoundConf>  (233) 
nan

>  <Num_Resolved_Atoms>  (233) 
nan

>  <Num_Not_Resolved_Atoms>  (233) 
nan

$$$$
CHEMBL1916351
     RDKit          3D

  0  0  0  0  0  0  0  0  0  0999 V3000
M  V30 BEGIN CTAB
M  V30 COUNTS 41 44 0 0 0
M  V30 BEGIN ATOM
M  V30 1 C -2.088809 -2.223155 -0.721070 0
M  V30 2 C -1.129291 -2.114960 -1.875129 0
M  V30 3 C -1.616329 -2.357119 -3.142293 0
M  V30 4 C -0.816409 -2.284838 -4.281614 0
M  V30 5 O -1.320477 -2.531243 -5.551277 0
M  V30 6 C 0.491867 -1.953421 -4.035232 0
M  V30 7 C 1.021212 -1.703879 -2.793122 0
M  V30 8 C 0.197728 -1.785232 -1.688921 0
M  V30 9 C 0.590222 -1.553111 -0.301983 0
M  V30 10 C 0.523019 -0.302179 0.284561 0
M  V30 11 N 0.083867 0.751408 -0.428808 0
M  V30 12 C 0.036515 1.948866 0.186249 0
M  V30 13 C 0.428475 2.099370 1.519412 0
M  V30 14 C 0.880823 1.005387 2.248641 0
M  V30 15 C 1.268549 1.255595 3.632129 0
M  V30 16 C 2.490762 1.603733 4.129748 0
M  V30 17 C 2.626355 1.790310 5.482349 0
M  V30 18 C 1.599090 1.649468 6.394937 0
M  V30 19 F 1.849776 1.858907 7.707376 0
M  V30 20 C 0.358119 1.293028 5.863740 0
M  V30 21 C 0.192812 1.098755 4.505775 0
M  V30 22 F -1.083282 0.756195 4.169763 0
M  V30 23 C 0.923841 -0.216831 1.604099 0
M  V30 24 C 1.373171 -1.285071 2.340234 0
M  V30 25 C 1.425946 -2.529118 1.712550 0
M  V30 26 N 1.031752 -2.602292 0.421707 0 CHG=1 VAL=4
M  V30 27 O 1.098398 -3.850077 -0.164595 0 CHG=-1 VAL=1
M  V30 28 H -2.079941 -3.241309 -0.295722 0
M  V30 29 H -1.834730 -1.456824 0.037881 0
M  V30 30 H -3.114420 -2.057191 -1.094700 0
M  V30 31 H -2.659328 -2.613049 -3.256725 0
M  V30 32 H -2.346443 -2.481407 -5.640443 0
M  V30 33 H 1.159638 -1.884089 -4.897320 0
M  V30 34 H 2.051976 -1.443136 -2.602745 0
M  V30 35 H -0.311790 2.841143 -0.343385 0
M  V30 36 H 0.368231 3.076614 1.953215 0
M  V30 37 H 3.256503 1.702556 3.395439 0
M  V30 38 H 3.599684 2.066024 5.865239 0
M  V30 39 H -0.429795 1.189217 6.600634 0
M  V30 40 H 1.681488 -1.193224 3.371950 0
M  V30 41 H 1.774058 -3.419876 2.242539 0
M  V30 END ATOM
M  V30 BEGIN BOND
M  V30 1 1 1 2
M  V30 2 2 2 3
M  V30 3 1 3 4
M  V30 4 1 4 5
M  V30 5 2 4 6
M  V30 6 1 6 7
M  V30 7 2 7 8
M  V30 8 1 8 9
M  V30 9 1 9 10
M  V30 10 2 10 11
M  V30 11 1 11 12
M  V30 12 2 12 13
M  V30 13 1 13 14
M  V30 14 1 14 15
M  V30 15 2 15 16
M  V30 16 1 16 17
M  V30 17 2 17 18
M  V30 18 1 18 19
M  V30 19 1 18 20
M  V30 20 2 20 21
M  V30 21 1 21 22
M  V30 22 2 14 23
M  V30 23 1 23 24
M  V30 24 2 24 25
M  V30 25 1 25 26
M  V30 26 1 26 27
M  V30 27 1 8 2
M  V30 28 2 26 9
M  V30 29 1 23 10
M  V30 30 1 21 15
M  V30 31 1 1 28
M  V30 32 1 1 29
M  V30 33 1 1 30
M  V30 34 1 3 31
M  V30 35 1 5 32
M  V30 36 1 6 33
M  V30 37 1 7 34
M  V30 38 1 12 35
M  V30 39 1 13 36
M  V30 40 1 16 37
M  V30 41 1 17 38
M  V30 42 1 20 39
M  V30 43 1 24 40
M  V30 44 1 25 41
M  V30 END BOND
M  V30 END CTAB
M  END
>  <Dataset>  (234) 
ChEMBL_Kinases

>  <Ligand_Instance>  (234) 
nan

>  <PDB_ID>  (234) 
nan

>  <Standardized_SMILES>  (234) 
Cc1cc(O)ccc1-c1c2nccc(-c3ccc(F)cc3F)c2cc[n+]1[O-]

>  <Name>  (234) 
nan

>  <Pocket>  (234) 
nan

>  <ATP_Site>  (234) 
nan

>  <Peripheral>  (234) 
nan

>  <Num_H_Atoms_ProtBoundConf>  (234) 
nan

>  <Num_Resolved_Atoms>  (234) 
nan

>  <Num_Not_Resolved_Atoms>  (234) 
nan

$$$$
CHEMBL1916352
     RDKit          3D

  0  0  0  0  0  0  0  0  0  0999 V3000
M  V30 BEGIN CTAB
M  V30 COUNTS 60 64 0 0 0
M  V30 BEGIN ATOM
M  V30 1 C 0.728730 -1.185837 -0.480800 0
M  V30 2 C 0.351500 -0.175014 0.529621 0
M  V30 3 C 1.321385 0.695132 0.961837 0
M  V30 4 C 1.158282 1.692780 1.889158 0
M  V30 5 O 1.855806 2.653994 2.490826 0
M  V30 6 C 3.106771 3.190580 2.524068 0
M  V30 7 C 3.663561 3.790402 1.276912 0
M  V30 8 N 3.830806 2.894869 0.161057 0
M  V30 9 C 4.284303 3.724977 -0.950473 0
M  V30 10 C 4.890964 2.889289 -2.053827 0
M  V30 11 O 5.812131 1.969679 -1.624503 0
M  V30 12 C 5.265152 1.103084 -0.694023 0
M  V30 13 C 4.889318 1.945141 0.519835 0
M  V30 14 C -0.142622 1.796982 2.421537 0
M  V30 15 C -1.184073 0.940763 2.025910 0
M  V30 16 C -0.898362 -0.025347 1.084165 0
M  V30 17 C -1.881547 -0.978905 0.581404 0
M  V30 18 C -2.136242 -2.228515 1.122571 0
M  V30 19 N -1.425542 -2.583088 2.183670 0
M  V30 20 C -1.666941 -3.802627 2.719219 0
M  V30 21 C -2.615280 -4.664650 2.195943 0
M  V30 22 C -3.331118 -4.231789 1.076474 0
M  V30 23 C -4.332311 -5.138384 0.519512 0
M  V30 24 C -5.659329 -5.246557 0.826807 0
M  V30 25 C -6.431897 -6.187932 0.165605 0
M  V30 26 C -5.867975 -7.018326 -0.803310 0
M  V30 27 F -6.728621 -7.896350 -1.377031 0
M  V30 28 C -4.515776 -6.911836 -1.120117 0
M  V30 29 C -3.744106 -5.960444 -0.448960 0
M  V30 30 F -2.456167 -5.964025 -0.851262 0
M  V30 31 C -3.115724 -2.995978 0.499924 0
M  V30 32 C -3.813918 -2.580334 -0.588345 0
M  V30 33 C -3.495775 -1.316213 -1.065584 0
M  V30 34 N -2.558144 -0.530892 -0.503594 0 CHG=1 VAL=4
M  V30 35 O -2.360687 0.697840 -1.097379 0 CHG=-1 VAL=1
M  V30 36 H 1.643410 -0.865443 -1.020236 0
M  V30 37 H -0.043801 -1.306940 -1.267742 0
M  V30 38 H 0.990931 -2.170084 -0.003127 0
M  V30 39 H 2.326350 0.657685 0.598448 0
M  V30 40 H 3.837846 2.490459 3.013763 0
M  V30 41 H 3.083252 4.049483 3.278498 0
M  V30 42 H 4.639210 4.297649 1.443320 0
M  V30 43 H 2.973547 4.605040 0.905157 0
M  V30 44 H 4.985159 4.521977 -0.645017 0
M  V30 45 H 3.381949 4.212567 -1.369954 0
M  V30 46 H 5.389740 3.586754 -2.758010 0
M  V30 47 H 4.082959 2.387024 -2.665105 0
M  V30 48 H 4.397956 0.519395 -1.062818 0
M  V30 49 H 6.040132 0.392346 -0.368076 0
M  V30 50 H 4.515481 1.258678 1.291149 0
M  V30 51 H 5.790318 2.504168 0.786418 0
M  V30 52 H -0.585908 2.479244 3.168745 0
M  V30 53 H -2.210770 0.917669 2.354234 0
M  V30 54 H -1.064394 -4.063091 3.591781 0
M  V30 55 H -2.762544 -5.622836 2.666073 0
M  V30 56 H -5.993596 -4.561678 1.585450 0
M  V30 57 H -7.474048 -6.215618 0.461483 0
M  V30 58 H -4.176710 -7.590958 -1.875048 0
M  V30 59 H -4.550094 -3.221492 -1.013073 0
M  V30 60 H -4.056250 -0.969432 -1.948291 0
M  V30 END ATOM
M  V30 BEGIN BOND
M  V30 1 1 1 2
M  V30 2 2 2 3
M  V30 3 1 3 4
M  V30 4 1 4 5
M  V30 5 1 5 6
M  V30 6 1 6 7
M  V30 7 1 7 8
M  V30 8 1 8 9
M  V30 9 1 9 10
M  V30 10 1 10 11
M  V30 11 1 11 12
M  V30 12 1 12 13
M  V30 13 2 4 14
M  V30 14 1 14 15
M  V30 15 2 15 16
M  V30 16 1 16 17
M  V30 17 1 17 18
M  V30 18 2 18 19
M  V30 19 1 19 20
M  V30 20 2 20 21
M  V30 21 1 21 22
M  V30 22 1 22 23
M  V30 23 2 23 24
M  V30 24 1 24 25
M  V30 25 2 25 26
M  V30 26 1 26 27
M  V30 27 1 26 28
M  V30 28 2 28 29
M  V30 29 1 29 30
M  V30 30 2 22 31
M  V30 31 1 31 32
M  V30 32 2 32 33
M  V30 33 1 33 34
M  V30 34 1 34 35
M  V30 35 1 16 2
M  V30 36 2 34 17
M  V30 37 1 13 8
M  V30 38 1 31 18
M  V30 39 1 29 23
M  V30 40 1 1 36
M  V30 41 1 1 37
M  V30 42 1 1 38
M  V30 43 1 3 39
M  V30 44 1 6 40
M  V30 45 1 6 41
M  V30 46 1 7 42
M  V30 47 1 7 43
M  V30 48 1 9 44
M  V30 49 1 9 45
M  V30 50 1 10 46
M  V30 51 1 10 47
M  V30 52 1 12 48
M  V30 53 1 12 49
M  V30 54 1 13 50
M  V30 55 1 13 51
M  V30 56 1 14 52
M  V30 57 1 15 53
M  V30 58 1 20 54
M  V30 59 1 21 55
M  V30 60 1 24 56
M  V30 61 1 25 57
M  V30 62 1 28 58
M  V30 63 1 32 59
M  V30 64 1 33 60
M  V30 END BOND
M  V30 END CTAB
M  END
>  <Dataset>  (235) 
ChEMBL_Kinases

>  <Ligand_Instance>  (235) 
nan

>  <PDB_ID>  (235) 
nan

>  <Standardized_SMILES>  (235) 
Cc1cc(OCCN2CCOCC2)ccc1-c1c2nccc(-c3ccc(F)cc3F)c2cc[n+]1[O-]

>  <Name>  (235) 
nan

>  <Pocket>  (235) 
nan

>  <ATP_Site>  (235) 
nan

>  <Peripheral>  (235) 
nan

>  <Num_H_Atoms_ProtBoundConf>  (235) 
nan

>  <Num_Resolved_Atoms>  (235) 
nan

>  <Num_Not_Resolved_Atoms>  (235) 
nan

$$$$
CHEMBL1916521
     RDKit          3D

  0  0  0  0  0  0  0  0  0  0999 V3000
M  V30 BEGIN CTAB
M  V30 COUNTS 46 50 0 0 0
M  V30 BEGIN ATOM
M  V30 1 O 1.363021 -4.961790 0.735826 0 CHG=-1 VAL=1
M  V30 2 N 1.419143 -3.573640 0.729429 0 CHG=1 VAL=4
M  V30 3 C 2.640586 -3.002174 0.659638 0
M  V30 4 C 2.744365 -1.641384 0.650630 0
M  V30 5 C 1.609139 -0.854671 0.712404 0
M  V30 6 C 1.690784 0.526080 0.704594 0
M  V30 7 C 2.985271 1.197300 0.630477 0
M  V30 8 C 3.381706 1.437350 -0.687035 0
M  V30 9 C 4.599544 2.072692 -0.901567 0
M  V30 10 C 5.379368 2.447187 0.175124 0
M  V30 11 F 6.575671 3.069863 0.018032 0
M  V30 12 C 4.984197 2.207721 1.495169 0
M  V30 13 C 3.772643 1.575909 1.699182 0
M  V30 14 Cl 3.148594 1.210905 3.289853 0
M  V30 15 C 0.535810 1.282796 0.767547 0
M  V30 16 C -0.683668 0.663158 0.837340 0
M  V30 17 C -1.939372 1.402516 0.906000 0
M  V30 18 C -3.123796 0.701618 0.974042 0
M  V30 19 C -4.382263 1.311038 1.043160 0
M  V30 20 N -4.421099 2.658493 1.042174 0
M  V30 21 C -3.290251 3.385304 0.977073 0
M  V30 22 C -2.039655 2.778016 0.908391 0
M  V30 23 N -0.781263 -0.678616 0.845954 0
M  V30 24 C 0.347734 -1.443238 0.784475 0
M  V30 25 C 0.305830 -2.822056 0.790057 0
M  V30 26 C -0.994573 -3.468286 0.864445 0
M  V30 27 C -1.596919 -3.797242 2.065986 0
M  V30 28 Cl -0.756377 -3.418508 3.553092 0
M  V30 29 C -2.844464 -4.414685 2.038103 0
M  V30 30 C -3.501556 -4.710194 0.853251 0
M  V30 31 C -2.889059 -4.376066 -0.353851 0
M  V30 32 C -1.642699 -3.758973 -0.335384 0
M  V30 33 Cl -0.873679 -3.339100 -1.865277 0
M  V30 34 H 3.552658 -3.573356 0.609862 0
M  V30 35 H 3.686566 -1.139933 0.596650 0
M  V30 36 H 2.809793 1.165086 -1.566231 0
M  V30 37 H 4.928753 2.269934 -1.916806 0
M  V30 38 H 5.586763 2.496462 2.350696 0
M  V30 39 H 0.619911 2.341017 0.760353 0
M  V30 40 H -3.155425 -0.381572 0.978353 0
M  V30 41 H -5.293040 0.714382 1.095620 0
M  V30 42 H -3.314544 4.470091 0.975892 0
M  V30 43 H -1.147642 3.353191 0.857041 0
M  V30 44 H -3.291970 -4.660696 2.994413 0
M  V30 45 H -4.475932 -5.192946 0.851406 0
M  V30 46 H -3.340310 -4.575450 -1.307685 0
M  V30 END ATOM
M  V30 BEGIN BOND
M  V30 1 1 1 2
M  V30 2 2 2 3
M  V30 3 1 3 4
M  V30 4 2 4 5
M  V30 5 1 5 6
M  V30 6 1 6 7
M  V30 7 2 7 8
M  V30 8 1 8 9
M  V30 9 2 9 10
M  V30 10 1 10 11
M  V30 11 1 10 12
M  V30 12 2 12 13
M  V30 13 1 13 14
M  V30 14 2 6 15
M  V30 15 1 15 16
M  V30 16 1 16 17
M  V30 17 2 17 18
M  V30 18 1 18 19
M  V30 19 2 19 20
M  V30 20 1 20 21
M  V30 21 2 21 22
M  V30 22 2 16 23
M  V30 23 1 23 24
M  V30 24 2 24 25
M  V30 25 1 25 26
M  V30 26 2 26 27
M  V30 27 1 27 28
M  V30 28 1 27 29
M  V30 29 2 29 30
M  V30 30 1 30 31
M  V30 31 2 31 32
M  V30 32 1 32 33
M  V30 33 1 25 2
M  V30 34 1 32 26
M  V30 35 1 24 5
M  V30 36 1 13 7
M  V30 37 1 22 17
M  V30 38 1 3 34
M  V30 39 1 4 35
M  V30 40 1 8 36
M  V30 41 1 9 37
M  V30 42 1 12 38
M  V30 43 1 15 39
M  V30 44 1 18 40
M  V30 45 1 19 41
M  V30 46 1 21 42
M  V30 47 1 22 43
M  V30 48 1 29 44
M  V30 49 1 30 45
M  V30 50 1 31 46
M  V30 END BOND
M  V30 END CTAB
M  END
>  <Dataset>  (236) 
ChEMBL_Kinases

>  <Ligand_Instance>  (236) 
nan

>  <PDB_ID>  (236) 
nan

>  <Standardized_SMILES>  (236) 
[O-][n+]1ccc2c(-c3ccc(F)cc3Cl)cc(-c3ccncc3)nc2c1-c1c(Cl)cccc1Cl

>  <Name>  (236) 
nan

>  <Pocket>  (236) 
nan

>  <ATP_Site>  (236) 
nan

>  <Peripheral>  (236) 
nan

>  <Num_H_Atoms_ProtBoundConf>  (236) 
nan

>  <Num_Resolved_Atoms>  (236) 
nan

>  <Num_Not_Resolved_Atoms>  (236) 
nan

$$$$
CHEMBL1916354
     RDKit          3D

  0  0  0  0  0  0  0  0  0  0999 V3000
M  V30 BEGIN CTAB
M  V30 COUNTS 48 51 0 0 0
M  V30 BEGIN ATOM
M  V30 1 C 0.861408 2.379583 0.946046 0
M  V30 2 C 1.929301 1.385400 0.764122 0
M  V30 3 C 3.162435 1.596511 1.347153 0
M  V30 4 C 4.200990 0.697647 1.209929 0
M  V30 5 N 5.498609 0.781571 1.742794 0
M  V30 6 S 5.513065 1.260443 3.377987 0
M  V30 7 C 4.664197 0.118389 4.435728 0
M  V30 8 O 6.962609 1.259253 3.828444 0
M  V30 9 O 5.000815 2.626705 3.634869 0
M  V30 10 C 3.912259 -0.436640 0.440380 0
M  V30 11 C 2.691491 -0.684365 -0.159404 0
M  V30 12 C 1.689886 0.251723 0.013317 0
M  V30 13 C 0.403972 -0.023760 -0.626951 0
M  V30 14 C -0.478535 -0.744653 0.185276 0
M  V30 15 N -0.168456 -1.142681 1.432670 0
M  V30 16 C -1.010007 -1.827844 2.201795 0
M  V30 17 C -2.263056 -2.166917 1.744110 0
M  V30 18 C -2.623601 -1.778055 0.467712 0
M  V30 19 C -3.967693 -2.180756 0.068569 0
M  V30 20 C -5.134950 -1.434129 0.258189 0
M  V30 21 C -6.315496 -1.973991 -0.183429 0
M  V30 22 C -6.394776 -3.206190 -0.798040 0
M  V30 23 F -7.587376 -3.696593 -1.217287 0
M  V30 24 C -5.237853 -3.943734 -0.984770 0
M  V30 25 C -4.029385 -3.413447 -0.543636 0
M  V30 26 F -2.963693 -4.192434 -0.764377 0
M  V30 27 C -1.714174 -1.067741 -0.292579 0
M  V30 28 C -2.130146 -0.709209 -1.553204 0
M  V30 29 C -1.210954 0.004171 -2.310996 0
M  V30 30 N 0.011463 0.334096 -1.862480 0 CHG=1 VAL=4
M  V30 31 O 0.936744 1.037420 -2.590427 0 CHG=-1 VAL=1
M  V30 32 H 0.066259 2.276418 0.210152 0
M  V30 33 H 0.426374 2.385748 1.958936 0
M  V30 34 H 1.292929 3.404395 0.804475 0
M  V30 35 H 3.395401 2.469132 1.943224 0
M  V30 36 H 6.291447 0.545035 1.087334 0
M  V30 37 H 5.169724 -0.889082 4.437485 0
M  V30 38 H 4.759475 0.499980 5.471944 0
M  V30 39 H 3.579789 0.046135 4.224914 0
M  V30 40 H 4.676095 -1.199333 0.280174 0
M  V30 41 H 2.529896 -1.571670 -0.737411 0
M  V30 42 H -0.656942 -2.097566 3.190297 0
M  V30 43 H -2.889978 -2.723879 2.426576 0
M  V30 44 H -5.006389 -0.478393 0.744989 0
M  V30 45 H -7.202631 -1.375608 -0.024158 0
M  V30 46 H -5.300866 -4.923204 -1.473304 0
M  V30 47 H -3.112463 -0.965120 -1.935298 0
M  V30 48 H -1.483187 0.320026 -3.327114 0
M  V30 END ATOM
M  V30 BEGIN BOND
M  V30 1 1 1 2
M  V30 2 2 2 3
M  V30 3 1 3 4
M  V30 4 1 4 5
M  V30 5 1 5 6
M  V30 6 1 6 7
M  V30 7 2 6 8
M  V30 8 2 6 9
M  V30 9 2 4 10
M  V30 10 1 10 11
M  V30 11 2 11 12
M  V30 12 1 12 13
M  V30 13 1 13 14
M  V30 14 2 14 15
M  V30 15 1 15 16
M  V30 16 2 16 17
M  V30 17 1 17 18
M  V30 18 1 18 19
M  V30 19 2 19 20
M  V30 20 1 20 21
M  V30 21 2 21 22
M  V30 22 1 22 23
M  V30 23 1 22 24
M  V30 24 2 24 25
M  V30 25 1 25 26
M  V30 26 2 18 27
M  V30 27 1 27 28
M  V30 28 2 28 29
M  V30 29 1 29 30
M  V30 30 1 30 31
M  V30 31 1 12 2
M  V30 32 2 30 13
M  V30 33 1 27 14
M  V30 34 1 25 19
M  V30 35 1 1 32
M  V30 36 1 1 33
M  V30 37 1 1 34
M  V30 38 1 3 35
M  V30 39 1 5 36
M  V30 40 1 7 37
M  V30 41 1 7 38
M  V30 42 1 7 39
M  V30 43 1 10 40
M  V30 44 1 11 41
M  V30 45 1 16 42
M  V30 46 1 17 43
M  V30 47 1 20 44
M  V30 48 1 21 45
M  V30 49 1 24 46
M  V30 50 1 28 47
M  V30 51 1 29 48
M  V30 END BOND
M  V30 END CTAB
M  END
>  <Dataset>  (237) 
ChEMBL_Kinases

>  <Ligand_Instance>  (237) 
nan

>  <PDB_ID>  (237) 
nan

>  <Standardized_SMILES>  (237) 
Cc1cc(NS(C)(=O)=O)ccc1-c1c2nccc(-c3ccc(F)cc3F)c2cc[n+]1[O-]

>  <Name>  (237) 
nan

>  <Pocket>  (237) 
nan

>  <ATP_Site>  (237) 
nan

>  <Peripheral>  (237) 
nan

>  <Num_H_Atoms_ProtBoundConf>  (237) 
nan

>  <Num_Resolved_Atoms>  (237) 
nan

>  <Num_Not_Resolved_Atoms>  (237) 
nan

$$$$
CHEMBL1916355
     RDKit          3D

  0  0  0  0  0  0  0  0  0  0999 V3000
M  V30 BEGIN CTAB
M  V30 COUNTS 41 44 0 0 0
M  V30 BEGIN ATOM
M  V30 1 C -3.463451 -0.625062 -1.554606 0
M  V30 2 O -2.083908 -0.390384 -1.356734 0
M  V30 3 C -1.099980 -0.639468 -2.303046 0
M  V30 4 C -1.359976 -1.145303 -3.545673 0
M  V30 5 C -0.362424 -1.378029 -4.453384 0
M  V30 6 C 0.921372 -1.073561 -4.044477 0
M  V30 7 C 1.239186 -0.562105 -2.804556 0
M  V30 8 C 0.210503 -0.339360 -1.913543 0
M  V30 9 C 0.481608 0.207199 -0.567957 0
M  V30 10 C 0.484539 1.570729 -0.345816 0
M  V30 11 C 0.749711 1.965889 0.949005 0
M  V30 12 N 0.997661 1.131926 1.975703 0
M  V30 13 C 0.993029 -0.192119 1.751667 0
M  V30 14 C 1.237811 -1.127052 2.748193 0
M  V30 15 C 1.500681 -0.546796 4.060552 0
M  V30 16 C 2.732016 -0.174642 4.590435 0
M  V30 17 F 3.784629 -0.383747 3.780880 0
M  V30 18 C 2.762605 0.359899 5.861476 0
M  V30 19 C 1.626404 0.538625 6.622822 0
M  V30 20 C 0.397014 0.160646 6.078428 0
M  V30 21 C 0.352939 -0.375904 4.806533 0
M  V30 22 F -0.908400 -0.697683 4.406093 0
M  V30 23 N 1.235778 -2.461632 2.534682 0 CHG=1 VAL=4
M  V30 24 O 1.487221 -3.324144 3.573293 0 CHG=-1 VAL=1
M  V30 25 C 0.983234 -2.912966 1.290056 0
M  V30 26 C 0.732944 -2.030208 0.259905 0
M  V30 27 C 0.735129 -0.660510 0.479516 0
M  V30 28 H -3.572278 -1.557458 -2.147321 0
M  V30 29 H -3.952820 -0.823229 -0.564561 0
M  V30 30 H -3.942111 0.222283 -2.091682 0
M  V30 31 H -2.382894 -1.357769 -3.792793 0
M  V30 32 H -0.549103 -1.777980 -5.441584 0
M  V30 33 H 1.752143 -1.235653 -4.717615 0
M  V30 34 H 2.275804 -0.344625 -2.548452 0
M  V30 35 H 0.289730 2.271107 -1.145548 0
M  V30 36 H 0.758542 3.028480 1.152604 0
M  V30 37 H 3.739343 0.638848 6.242871 0
M  V30 38 H 1.703987 0.967107 7.626098 0
M  V30 39 H -0.444118 0.331758 6.734991 0
M  V30 40 H 0.977150 -3.968680 1.100291 0
M  V30 41 H 0.531583 -2.384477 -0.731665 0
M  V30 END ATOM
M  V30 BEGIN BOND
M  V30 1 1 1 2
M  V30 2 1 2 3
M  V30 3 2 3 4
M  V30 4 1 4 5
M  V30 5 2 5 6
M  V30 6 1 6 7
M  V30 7 2 7 8
M  V30 8 1 8 9
M  V30 9 2 9 10
M  V30 10 1 10 11
M  V30 11 2 11 12
M  V30 12 1 12 13
M  V30 13 2 13 14
M  V30 14 1 14 15
M  V30 15 2 15 16
M  V30 16 1 16 17
M  V30 17 1 16 18
M  V30 18 2 18 19
M  V30 19 1 19 20
M  V30 20 2 20 21
M  V30 21 1 21 22
M  V30 22 1 14 23
M  V30 23 1 23 24
M  V30 24 2 23 25
M  V30 25 1 25 26
M  V30 26 2 26 27
M  V30 27 1 8 3
M  V30 28 1 27 9
M  V30 29 1 27 13
M  V30 30 1 21 15
M  V30 31 1 1 28
M  V30 32 1 1 29
M  V30 33 1 1 30
M  V30 34 1 4 31
M  V30 35 1 5 32
M  V30 36 1 6 33
M  V30 37 1 7 34
M  V30 38 1 10 35
M  V30 39 1 11 36
M  V30 40 1 18 37
M  V30 41 1 19 38
M  V30 42 1 20 39
M  V30 43 1 25 40
M  V30 44 1 26 41
M  V30 END BOND
M  V30 END CTAB
M  END
>  <Dataset>  (238) 
ChEMBL_Kinases

>  <Ligand_Instance>  (238) 
nan

>  <PDB_ID>  (238) 
nan

>  <Standardized_SMILES>  (238) 
COc1ccccc1-c1ccnc2c(-c3c(F)cccc3F)[n+]([O-])ccc12

>  <Name>  (238) 
nan

>  <Pocket>  (238) 
nan

>  <ATP_Site>  (238) 
nan

>  <Peripheral>  (238) 
nan

>  <Num_H_Atoms_ProtBoundConf>  (238) 
nan

>  <Num_Resolved_Atoms>  (238) 
nan

>  <Num_Not_Resolved_Atoms>  (238) 
nan

$$$$
CHEMBL1916358
     RDKit          3D

  0  0  0  0  0  0  0  0  0  0999 V3000
M  V30 BEGIN CTAB
M  V30 COUNTS 37 40 0 0 0
M  V30 BEGIN ATOM
M  V30 1 O 0.201234 -4.366397 0.700050 0 CHG=-1 VAL=1
M  V30 2 N 0.333825 -3.004911 0.535439 0 CHG=1 VAL=4
M  V30 3 C 1.284110 -2.587542 -0.334981 0
M  V30 4 C 1.413056 -1.222077 -0.496444 0
M  V30 5 C 0.627337 -0.335431 0.182437 0
M  V30 6 C 0.810993 1.016225 -0.027893 0
M  V30 7 C 1.802526 1.574914 -0.940171 0
M  V30 8 C 1.516694 1.829192 -2.277333 0
M  V30 9 C 2.488362 2.365385 -3.127755 0
M  V30 10 C 3.771691 2.659455 -2.655549 0
M  V30 11 C 3.959661 2.373500 -1.318756 0
M  V30 12 C 3.062596 1.846830 -0.411701 0
M  V30 13 Cl 3.517373 1.563940 1.247003 0
M  V30 14 C -0.029083 1.852796 0.701638 0
M  V30 15 C -0.974882 1.340573 1.571153 0
M  V30 16 N -1.096567 0.010626 1.724903 0
M  V30 17 C -0.314625 -0.847321 1.048484 0
M  V30 18 C -0.482760 -2.202759 1.244942 0
M  V30 19 C -1.477747 -2.752814 2.160051 0
M  V30 20 C -2.748758 -3.042084 1.703766 0
M  V30 21 Cl -3.227715 -2.771688 0.040149 0
M  V30 22 C -3.686931 -3.567729 2.594124 0
M  V30 23 C -3.257319 -3.760020 3.888774 0
M  V30 24 C -1.985144 -3.472850 4.354771 0
M  V30 25 C -1.057838 -2.948502 3.455891 0
M  V30 26 Cl 0.564009 -2.560254 3.962908 0
M  V30 27 H 1.889607 -3.315976 -0.856653 0
M  V30 28 H 2.162292 -0.859051 -1.183836 0
M  V30 29 H 0.528046 1.610472 -2.671248 0
M  V30 30 H 2.293360 2.574043 -4.175548 0
M  V30 31 H 4.565426 3.068918 -3.240284 0
M  V30 32 H 4.953483 2.592313 -0.918714 0
M  V30 33 H 0.088377 2.921749 0.560339 0
M  V30 34 H -1.593652 2.070318 2.104724 0
M  V30 35 H -4.680139 -3.802062 2.270151 0
M  V30 36 H -3.926126 -4.166320 4.647677 0
M  V30 37 H -1.697124 -3.641886 5.380463 0
M  V30 END ATOM
M  V30 BEGIN BOND
M  V30 1 1 1 2
M  V30 2 2 2 3
M  V30 3 1 3 4
M  V30 4 2 4 5
M  V30 5 1 5 6
M  V30 6 1 6 7
M  V30 7 2 7 8
M  V30 8 1 8 9
M  V30 9 2 9 10
M  V30 10 1 10 11
M  V30 11 2 11 12
M  V30 12 1 12 13
M  V30 13 2 6 14
M  V30 14 1 14 15
M  V30 15 2 15 16
M  V30 16 1 16 17
M  V30 17 2 17 18
M  V30 18 1 18 19
M  V30 19 2 19 20
M  V30 20 1 20 21
M  V30 21 1 20 22
M  V30 22 2 22 23
M  V30 23 1 23 24
M  V30 24 2 24 25
M  V30 25 1 25 26
M  V30 26 1 18 2
M  V30 27 1 25 19
M  V30 28 1 17 5
M  V30 29 1 12 7
M  V30 30 1 3 27
M  V30 31 1 4 28
M  V30 32 1 8 29
M  V30 33 1 9 30
M  V30 34 1 10 31
M  V30 35 1 11 32
M  V30 36 1 14 33
M  V30 37 1 15 34
M  V30 38 1 22 35
M  V30 39 1 23 36
M  V30 40 1 24 37
M  V30 END BOND
M  V30 END CTAB
M  END
>  <Dataset>  (239) 
ChEMBL_Kinases

>  <Ligand_Instance>  (239) 
nan

>  <PDB_ID>  (239) 
nan

>  <Standardized_SMILES>  (239) 
[O-][n+]1ccc2c(-c3ccccc3Cl)ccnc2c1-c1c(Cl)cccc1Cl

>  <Name>  (239) 
nan

>  <Pocket>  (239) 
nan

>  <ATP_Site>  (239) 
nan

>  <Peripheral>  (239) 
nan

>  <Num_H_Atoms_ProtBoundConf>  (239) 
nan

>  <Num_Resolved_Atoms>  (239) 
nan

>  <Num_Not_Resolved_Atoms>  (239) 
nan

$$$$
CHEMBL1916359
     RDKit          3D

  0  0  0  0  0  0  0  0  0  0999 V3000
M  V30 BEGIN CTAB
M  V30 COUNTS 37 40 0 0 0
M  V30 BEGIN ATOM
M  V30 1 O 1.596154 -4.194385 0.352344 0 CHG=-1 VAL=1
M  V30 2 N 1.345934 -2.845872 0.423024 0 CHG=1 VAL=4
M  V30 3 C 2.291822 -1.905329 0.212146 0
M  V30 4 C 2.029334 -0.558919 0.285652 0
M  V30 5 C 0.741300 -0.180596 0.588275 0
M  V30 6 C 0.423167 1.164855 0.674692 0
M  V30 7 C 1.430875 2.218062 0.450511 0
M  V30 8 C 1.476614 2.586411 -0.897333 0
M  V30 9 C 2.357158 3.560259 -1.316696 0
M  V30 10 C 3.194795 4.172802 -0.405887 0
M  V30 11 F 4.066284 5.125862 -0.775981 0
M  V30 12 C 3.130437 3.792763 0.913667 0
M  V30 13 C 2.268857 2.831048 1.360893 0
M  V30 14 Cl 2.079590 2.251809 2.994720 0
M  V30 15 C -0.874197 1.524923 0.979312 0
M  V30 16 C -1.838453 0.556039 1.194190 0
M  V30 17 N -1.545428 -0.759653 1.113880 0
M  V30 18 C -0.280574 -1.096532 0.817026 0
M  V30 19 C 0.079983 -2.440728 0.720768 0
M  V30 20 C -0.970493 -3.427212 0.955509 0
M  V30 21 C -1.681886 -3.817544 -0.170184 0
M  V30 22 Cl -1.373686 -3.194642 -1.781620 0
M  V30 23 C -2.701439 -4.745934 -0.076756 0
M  V30 24 C -3.056847 -5.324665 1.135819 0
M  V30 25 C -2.337104 -4.922658 2.241915 0
M  V30 26 C -1.314456 -3.998593 2.181248 0
M  V30 27 Cl -0.381363 -3.465619 3.560670 0
M  V30 28 H 3.302055 -2.247967 -0.025636 0
M  V30 29 H 2.804806 0.169321 0.112370 0
M  V30 30 H 0.873865 2.181544 -1.702578 0
M  V30 31 H 2.459297 3.907219 -2.341856 0
M  V30 32 H 3.759149 4.230919 1.687463 0
M  V30 33 H -1.183809 2.571213 1.060964 0
M  V30 34 H -2.877882 0.783896 1.437679 0
M  V30 35 H -3.280626 -5.074217 -0.944695 0
M  V30 36 H -3.855208 -6.051095 1.206460 0
M  V30 37 H -2.560376 -5.333209 3.220998 0
M  V30 END ATOM
M  V30 BEGIN BOND
M  V30 1 1 1 2
M  V30 2 2 2 3
M  V30 3 1 3 4
M  V30 4 2 4 5
M  V30 5 1 5 6
M  V30 6 1 6 7
M  V30 7 2 7 8
M  V30 8 1 8 9
M  V30 9 2 9 10
M  V30 10 1 10 11
M  V30 11 1 10 12
M  V30 12 2 12 13
M  V30 13 1 13 14
M  V30 14 2 6 15
M  V30 15 1 15 16
M  V30 16 2 16 17
M  V30 17 1 17 18
M  V30 18 2 18 19
M  V30 19 1 19 20
M  V30 20 2 20 21
M  V30 21 1 21 22
M  V30 22 1 21 23
M  V30 23 2 23 24
M  V30 24 1 24 25
M  V30 25 2 25 26
M  V30 26 1 26 27
M  V30 27 1 19 2
M  V30 28 1 26 20
M  V30 29 1 18 5
M  V30 30 1 13 7
M  V30 31 1 3 28
M  V30 32 1 4 29
M  V30 33 1 8 30
M  V30 34 1 9 31
M  V30 35 1 12 32
M  V30 36 1 15 33
M  V30 37 1 16 34
M  V30 38 1 23 35
M  V30 39 1 24 36
M  V30 40 1 25 37
M  V30 END BOND
M  V30 END CTAB
M  END
>  <Dataset>  (240) 
ChEMBL_Kinases

>  <Ligand_Instance>  (240) 
nan

>  <PDB_ID>  (240) 
nan

>  <Standardized_SMILES>  (240) 
[O-][n+]1ccc2c(-c3ccc(F)cc3Cl)ccnc2c1-c1c(Cl)cccc1Cl

>  <Name>  (240) 
nan

>  <Pocket>  (240) 
nan

>  <ATP_Site>  (240) 
nan

>  <Peripheral>  (240) 
nan

>  <Num_H_Atoms_ProtBoundConf>  (240) 
nan

>  <Num_Resolved_Atoms>  (240) 
nan

>  <Num_Not_Resolved_Atoms>  (240) 
nan

$$$$
CHEMBL1916360
     RDKit          3D

  0  0  0  0  0  0  0  0  0  0999 V3000
M  V30 BEGIN CTAB
M  V30 COUNTS 52 56 0 0 0
M  V30 BEGIN ATOM
M  V30 1 O 2.427052 -4.709545 -0.245215 0 CHG=-1 VAL=1
M  V30 2 N 2.164843 -3.396686 0.080269 0 CHG=1 VAL=4
M  V30 3 C 3.253747 -2.613757 0.342059 0
M  V30 4 C 3.092414 -1.284112 0.677373 0
M  V30 5 C 1.820286 -0.736598 0.749915 0
M  V30 6 C 1.647216 0.589264 1.083601 0
M  V30 7 C 2.851589 1.372628 1.351771 0
M  V30 8 C 3.365041 1.982113 0.218532 0
M  V30 9 C 4.502214 2.774167 0.234539 0
M  V30 10 C 5.118319 2.933664 1.464134 0
M  V30 11 F 6.234246 3.700402 1.527476 0
M  V30 12 C 4.629552 2.338825 2.609259 0
M  V30 13 C 3.490396 1.551272 2.566585 0
M  V30 14 Cl 2.758964 0.740072 3.922612 0
M  V30 15 C 0.361888 1.084490 1.141880 0
M  V30 16 C -0.690827 0.228164 0.863064 0
M  V30 17 C -2.040663 0.799917 0.937600 0
M  V30 18 C -2.705471 0.575681 -0.424125 0
M  V30 19 C -4.031428 1.301335 -0.379172 0
M  V30 20 N -4.877226 0.788371 0.662221 0
M  V30 21 C -4.246495 0.832222 1.948189 0
M  V30 22 C -2.913187 0.075090 1.938186 0
M  V30 23 N -0.549583 -1.069500 0.534946 0
M  V30 24 C 0.725974 -1.539806 0.482584 0
M  V30 25 C 0.901668 -2.868310 0.148346 0
M  V30 26 C -0.135997 -3.797346 -0.148447 0
M  V30 27 C -0.519500 -3.888437 -1.476541 0
M  V30 28 Cl 0.260475 -2.886681 -2.718893 0
M  V30 29 C -1.508226 -4.737069 -1.936103 0
M  V30 30 C -2.163706 -5.551938 -1.022379 0
M  V30 31 C -1.805122 -5.485303 0.308941 0
M  V30 32 C -0.814497 -4.631072 0.750204 0
M  V30 33 Cl -0.305479 -4.492452 2.427341 0
M  V30 34 H 4.266506 -3.000996 0.296901 0
M  V30 35 H 3.953927 -0.691559 0.877535 0
M  V30 36 H 2.922382 1.893442 -0.782282 0
M  V30 37 H 4.907667 3.252628 -0.647526 0
M  V30 38 H 5.095494 2.448433 3.589045 0
M  V30 39 H 0.236822 2.109486 1.400321 0
M  V30 40 H -2.040248 1.863337 1.212649 0
M  V30 41 H -2.890357 -0.509551 -0.499962 0
M  V30 42 H -2.087708 0.989956 -1.229205 0
M  V30 43 H -4.518434 1.215691 -1.356487 0
M  V30 44 H -3.790044 2.354840 -0.128265 0
M  V30 45 H -5.318480 -0.115389 0.457998 0
M  V30 46 H -4.941622 0.412831 2.687343 0
M  V30 47 H -4.024370 1.895341 2.188926 0
M  V30 48 H -3.175064 -0.955331 1.590575 0
M  V30 49 H -2.515141 0.079111 2.958267 0
M  V30 50 H -1.784311 -4.784254 -2.981057 0
M  V30 51 H -2.947943 -6.234694 -1.340328 0
M  V30 52 H -2.283214 -6.098930 1.068489 0
M  V30 END ATOM
M  V30 BEGIN BOND
M  V30 1 1 1 2
M  V30 2 2 2 3
M  V30 3 1 3 4
M  V30 4 2 4 5
M  V30 5 1 5 6
M  V30 6 1 6 7
M  V30 7 2 7 8
M  V30 8 1 8 9
M  V30 9 2 9 10
M  V30 10 1 10 11
M  V30 11 1 10 12
M  V30 12 2 12 13
M  V30 13 1 13 14
M  V30 14 2 6 15
M  V30 15 1 15 16
M  V30 16 1 16 17
M  V30 17 1 17 18
M  V30 18 1 18 19
M  V30 19 1 19 20
M  V30 20 1 20 21
M  V30 21 1 21 22
M  V30 22 2 16 23
M  V30 23 1 23 24
M  V30 24 2 24 25
M  V30 25 1 25 26
M  V30 26 2 26 27
M  V30 27 1 27 28
M  V30 28 1 27 29
M  V30 29 2 29 30
M  V30 30 1 30 31
M  V30 31 2 31 32
M  V30 32 1 32 33
M  V30 33 1 25 2
M  V30 34 1 32 26
M  V30 35 1 24 5
M  V30 36 1 13 7
M  V30 37 1 22 17
M  V30 38 1 3 34
M  V30 39 1 4 35
M  V30 40 1 8 36
M  V30 41 1 9 37
M  V30 42 1 12 38
M  V30 43 1 15 39
M  V30 44 1 17 40
M  V30 45 1 18 41
M  V30 46 1 18 42
M  V30 47 1 19 43
M  V30 48 1 19 44
M  V30 49 1 20 45
M  V30 50 1 21 46
M  V30 51 1 21 47
M  V30 52 1 22 48
M  V30 53 1 22 49
M  V30 54 1 29 50
M  V30 55 1 30 51
M  V30 56 1 31 52
M  V30 END BOND
M  V30 END CTAB
M  END
>  <Dataset>  (241) 
ChEMBL_Kinases

>  <Ligand_Instance>  (241) 
nan

>  <PDB_ID>  (241) 
nan

>  <Standardized_SMILES>  (241) 
[O-][n+]1ccc2c(-c3ccc(F)cc3Cl)cc(C3CCNCC3)nc2c1-c1c(Cl)cccc1Cl

>  <Name>  (241) 
nan

>  <Pocket>  (241) 
nan

>  <ATP_Site>  (241) 
nan

>  <Peripheral>  (241) 
nan

>  <Num_H_Atoms_ProtBoundConf>  (241) 
nan

>  <Num_Resolved_Atoms>  (241) 
nan

>  <Num_Not_Resolved_Atoms>  (241) 
nan

$$$$
CHEMBL1916361
     RDKit          3D

  0  0  0  0  0  0  0  0  0  0999 V3000
M  V30 BEGIN CTAB
M  V30 COUNTS 55 59 0 0 0
M  V30 BEGIN ATOM
M  V30 1 C 3.184037 -4.194874 1.648214 0
M  V30 2 N 2.440376 -3.059007 1.101675 0
M  V30 3 C 2.355432 -2.085287 2.147282 0
M  V30 4 C 2.726180 -0.695897 1.757236 0
M  V30 5 C 2.326191 -0.302026 0.359125 0
M  V30 6 C 0.891380 0.112435 0.291020 0
M  V30 7 C 0.527372 1.407164 -0.016829 0
M  V30 8 C -0.831358 1.699483 -0.056818 0
M  V30 9 C -1.189485 3.076468 -0.384863 0
M  V30 10 C -1.357392 3.308929 -1.751204 0
M  V30 11 C -1.696546 4.560394 -2.216017 0
M  V30 12 C -1.869813 5.587294 -1.315993 0
M  V30 13 F -2.202979 6.821168 -1.759428 0
M  V30 14 C -1.702436 5.352060 0.035737 0
M  V30 15 C -1.363595 4.109110 0.521737 0
M  V30 16 Cl -1.130602 3.715903 2.210406 0
M  V30 17 C -1.786813 0.728666 0.202416 0
M  V30 18 C -3.123005 1.070165 0.149907 0
M  V30 19 C -3.998676 0.046596 0.420196 0
M  V30 20 N -3.619141 -1.215762 0.719779 0 CHG=1 VAL=4
M  V30 21 O -4.522895 -2.218321 0.985587 0 CHG=-1 VAL=1
M  V30 22 C -2.307718 -1.536165 0.767709 0
M  V30 23 C -1.797148 -2.862912 1.079972 0
M  V30 24 C -1.645390 -3.639413 -0.064229 0
M  V30 25 Cl -2.009289 -3.129559 -1.697377 0
M  V30 26 C -1.166502 -4.947768 0.021702 0
M  V30 27 C -0.845209 -5.460550 1.260888 0
M  V30 28 C -0.997706 -4.682923 2.402062 0
M  V30 29 C -1.471893 -3.388460 2.313583 0
M  V30 30 Cl -1.709931 -2.309413 3.658629 0
M  V30 31 C -1.363766 -0.552881 0.505680 0
M  V30 32 N -0.039080 -0.848139 0.547174 0
M  V30 33 C 2.636495 -1.343507 -0.662125 0
M  V30 34 C 3.164350 -2.624742 -0.071693 0
M  V30 35 H 4.254050 -3.860194 1.690088 0
M  V30 36 H 3.096328 -5.064584 0.982291 0
M  V30 37 H 2.898864 -4.404136 2.698056 0
M  V30 38 H 1.311150 -2.046298 2.575326 0
M  V30 39 H 2.996780 -2.338755 3.041278 0
M  V30 40 H 2.229483 0.012012 2.460349 0
M  V30 41 H 3.830473 -0.541844 1.852670 0
M  V30 42 H 2.934158 0.608517 0.122740 0
M  V30 43 H 1.257270 2.158731 -0.217294 0
M  V30 44 H -1.240374 2.559523 -2.523054 0
M  V30 45 H -1.836014 4.782690 -3.265212 0
M  V30 46 H -1.833182 6.147758 0.775986 0
M  V30 47 H -3.438244 2.077190 -0.088791 0
M  V30 48 H -5.062696 0.238581 0.397916 0
M  V30 49 H -1.026764 -5.601737 -0.834323 0
M  V30 50 H -0.473139 -6.468063 1.356853 0
M  V30 51 H -0.757639 -5.049727 3.380885 0
M  V30 52 H 3.376440 -1.027270 -1.430508 0
M  V30 53 H 1.702313 -1.606836 -1.213576 0
M  V30 54 H 4.247813 -2.584198 0.074625 0
M  V30 55 H 2.974571 -3.430523 -0.840195 0
M  V30 END ATOM
M  V30 BEGIN BOND
M  V30 1 1 1 2
M  V30 2 1 2 3
M  V30 3 1 3 4
M  V30 4 1 4 5
M  V30 5 1 5 6
M  V30 6 2 6 7
M  V30 7 1 7 8
M  V30 8 1 8 9
M  V30 9 2 9 10
M  V30 10 1 10 11
M  V30 11 2 11 12
M  V30 12 1 12 13
M  V30 13 1 12 14
M  V30 14 2 14 15
M  V30 15 1 15 16
M  V30 16 2 8 17
M  V30 17 1 17 18
M  V30 18 2 18 19
M  V30 19 1 19 20
M  V30 20 1 20 21
M  V30 21 2 20 22
M  V30 22 1 22 23
M  V30 23 2 23 24
M  V30 24 1 24 25
M  V30 25 1 24 26
M  V30 26 2 26 27
M  V30 27 1 27 28
M  V30 28 2 28 29
M  V30 29 1 29 30
M  V30 30 1 22 31
M  V30 31 2 31 32
M  V30 32 1 5 33
M  V30 33 1 33 34
M  V30 34 1 34 2
M  V30 35 1 32 6
M  V30 36 1 15 9
M  V30 37 1 31 17
M  V30 38 1 29 23
M  V30 39 1 1 35
M  V30 40 1 1 36
M  V30 41 1 1 37
M  V30 42 1 3 38
M  V30 43 1 3 39
M  V30 44 1 4 40
M  V30 45 1 4 41
M  V30 46 1 5 42
M  V30 47 1 7 43
M  V30 48 1 10 44
M  V30 49 1 11 45
M  V30 50 1 14 46
M  V30 51 1 18 47
M  V30 52 1 19 48
M  V30 53 1 26 49
M  V30 54 1 27 50
M  V30 55 1 28 51
M  V30 56 1 33 52
M  V30 57 1 33 53
M  V30 58 1 34 54
M  V30 59 1 34 55
M  V30 END BOND
M  V30 END CTAB
M  END
>  <Dataset>  (242) 
ChEMBL_Kinases

>  <Ligand_Instance>  (242) 
nan

>  <PDB_ID>  (242) 
nan

>  <Standardized_SMILES>  (242) 
CN1CCC(c2cc(-c3ccc(F)cc3Cl)c3cc[n+]([O-])c(-c4c(Cl)cccc4Cl)c3n2)CC1

>  <Name>  (242) 
nan

>  <Pocket>  (242) 
nan

>  <ATP_Site>  (242) 
nan

>  <Peripheral>  (242) 
nan

>  <Num_H_Atoms_ProtBoundConf>  (242) 
nan

>  <Num_Resolved_Atoms>  (242) 
nan

>  <Num_Not_Resolved_Atoms>  (242) 
nan

$$$$
CHEMBL1916519
     RDKit          3D

  0  0  0  0  0  0  0  0  0  0999 V3000
M  V30 BEGIN CTAB
M  V30 COUNTS 61 65 0 0 0
M  V30 BEGIN ATOM
M  V30 1 C 2.067207 -2.956195 4.277285 0
M  V30 2 C 1.874900 -3.236626 2.802635 0
M  V30 3 C 2.334648 -4.666372 2.573174 0
M  V30 4 N 2.614672 -2.310427 1.976723 0
M  V30 5 C 2.128157 -0.987845 2.282342 0
M  V30 6 C 2.704106 0.070206 1.402722 0
M  V30 7 C 2.351055 -0.221394 -0.016617 0
M  V30 8 C 0.922649 0.053508 -0.323857 0
M  V30 9 C 0.638965 1.052481 -1.239810 0
M  V30 10 C -0.641039 1.393334 -1.602097 0
M  V30 11 C -0.975469 2.429517 -2.553830 0
M  V30 12 C -1.124855 2.236503 -3.925518 0
M  V30 13 C -1.447000 3.322609 -4.715130 0
M  V30 14 C -1.632043 4.599455 -4.226158 0
M  V30 15 F -1.947083 5.647857 -5.018168 0
M  V30 16 C -1.482692 4.775941 -2.878619 0
M  V30 17 C -1.159841 3.718658 -2.042279 0
M  V30 18 Cl -0.988446 4.037739 -0.327707 0
M  V30 19 C -1.690418 0.699127 -1.017989 0
M  V30 20 C -3.000562 0.964346 -1.313116 0
M  V30 21 C -3.983642 0.228597 -0.688652 0
M  V30 22 N -3.640248 -0.738188 0.200688 0 CHG=1 VAL=4
M  V30 23 O -4.736793 -1.379043 0.734537 0 CHG=-1 VAL=1
M  V30 24 C -2.357195 -0.999869 0.491474 0
M  V30 25 C -2.208464 -2.070761 1.466955 0
M  V30 26 C -2.153506 -1.992258 2.840900 0
M  V30 27 Cl -2.283558 -0.361685 3.473308 0
M  V30 28 C -2.007786 -3.135281 3.595279 0
M  V30 29 C -1.915354 -4.369697 2.984802 0
M  V30 30 C -1.967759 -4.481782 1.595034 0
M  V30 31 C -2.115930 -3.314883 0.837874 0
M  V30 32 Cl -2.168811 -3.581164 -0.892496 0
M  V30 33 C -1.351859 -0.295070 -0.104048 0
M  V30 34 N -0.080257 -0.629997 0.252517 0
M  V30 35 C 2.775483 -1.601963 -0.375272 0
M  V30 36 C 2.440415 -2.674405 0.594550 0
M  V30 37 H 1.626911 -3.812384 4.828289 0
M  V30 38 H 3.138576 -2.910799 4.527732 0
M  V30 39 H 1.523949 -2.051605 4.623436 0
M  V30 40 H 0.802155 -3.193106 2.583702 0
M  V30 41 H 3.435561 -4.773344 2.610896 0
M  V30 42 H 1.920102 -5.294196 3.383001 0
M  V30 43 H 2.001067 -5.081200 1.602116 0
M  V30 44 H 2.512886 -0.764625 3.321398 0
M  V30 45 H 1.044095 -0.889441 2.326806 0
M  V30 46 H 3.806560 0.158606 1.485737 0
M  V30 47 H 2.266514 1.037953 1.695539 0
M  V30 48 H 2.982730 0.476477 -0.643440 0
M  V30 49 H 1.406559 1.628015 -1.728375 0
M  V30 50 H -0.980184 1.241736 -4.302818 0
M  V30 51 H -1.562013 3.157539 -5.795094 0
M  V30 52 H -1.616898 5.765306 -2.432767 0
M  V30 53 H -3.168392 1.753928 -2.034714 0
M  V30 54 H -4.999118 0.480813 -0.959625 0
M  V30 55 H -1.971904 -3.001716 4.668113 0
M  V30 56 H -1.800444 -5.260620 3.602186 0
M  V30 57 H -1.891980 -5.467363 1.151156 0
M  V30 58 H 2.233041 -1.855842 -1.330322 0
M  V30 59 H 3.856215 -1.606544 -0.693156 0
M  V30 60 H 1.447673 -3.109113 0.408952 0
M  V30 61 H 3.166877 -3.514060 0.415248 0
M  V30 END ATOM
M  V30 BEGIN BOND
M  V30 1 1 1 2
M  V30 2 1 2 3
M  V30 3 1 2 4
M  V30 4 1 4 5
M  V30 5 1 5 6
M  V30 6 1 6 7
M  V30 7 1 7 8
M  V30 8 2 8 9
M  V30 9 1 9 10
M  V30 10 1 10 11
M  V30 11 2 11 12
M  V30 12 1 12 13
M  V30 13 2 13 14
M  V30 14 1 14 15
M  V30 15 1 14 16
M  V30 16 2 16 17
M  V30 17 1 17 18
M  V30 18 2 10 19
M  V30 19 1 19 20
M  V30 20 2 20 21
M  V30 21 1 21 22
M  V30 22 1 22 23
M  V30 23 2 22 24
M  V30 24 1 24 25
M  V30 25 2 25 26
M  V30 26 1 26 27
M  V30 27 1 26 28
M  V30 28 2 28 29
M  V30 29 1 29 30
M  V30 30 2 30 31
M  V30 31 1 31 32
M  V30 32 1 24 33
M  V30 33 2 33 34
M  V30 34 1 7 35
M  V30 35 1 35 36
M  V30 36 1 36 4
M  V30 37 1 34 8
M  V30 38 1 17 11
M  V30 39 1 33 19
M  V30 40 1 31 25
M  V30 41 1 1 37
M  V30 42 1 1 38
M  V30 43 1 1 39
M  V30 44 1 2 40
M  V30 45 1 3 41
M  V30 46 1 3 42
M  V30 47 1 3 43
M  V30 48 1 5 44
M  V30 49 1 5 45
M  V30 50 1 6 46
M  V30 51 1 6 47
M  V30 52 1 7 48
M  V30 53 1 9 49
M  V30 54 1 12 50
M  V30 55 1 13 51
M  V30 56 1 16 52
M  V30 57 1 20 53
M  V30 58 1 21 54
M  V30 59 1 28 55
M  V30 60 1 29 56
M  V30 61 1 30 57
M  V30 62 1 35 58
M  V30 63 1 35 59
M  V30 64 1 36 60
M  V30 65 1 36 61
M  V30 END BOND
M  V30 END CTAB
M  END
>  <Dataset>  (243) 
ChEMBL_Kinases

>  <Ligand_Instance>  (243) 
nan

>  <PDB_ID>  (243) 
nan

>  <Standardized_SMILES>  (243) 
CC(C)N1CCC(c2cc(-c3ccc(F)cc3Cl)c3cc[n+]([O-])c(-c4c(Cl)cccc4Cl)c3n2)CC1

>  <Name>  (243) 
nan

>  <Pocket>  (243) 
nan

>  <ATP_Site>  (243) 
nan

>  <Peripheral>  (243) 
nan

>  <Num_H_Atoms_ProtBoundConf>  (243) 
nan

>  <Num_Resolved_Atoms>  (243) 
nan

>  <Num_Not_Resolved_Atoms>  (243) 
nan

$$$$
CHEMBL1916520
     RDKit          3D

  0  0  0  0  0  0  0  0  0  0999 V3000
M  V30 BEGIN CTAB
M  V30 COUNTS 64 68 0 0 0
M  V30 BEGIN ATOM
M  V30 1 C 0.636521 -0.513726 5.547853 0
M  V30 2 C 1.237984 -1.160992 4.326837 0
M  V30 3 C 2.196778 -2.235546 4.822567 0
M  V30 4 C 0.100887 -1.897694 3.639105 0
M  V30 5 N 1.975801 -0.290680 3.493527 0
M  V30 6 C 2.536042 -0.909700 2.350143 0
M  V30 7 C 2.545186 -0.111711 1.095115 0
M  V30 8 C 1.408473 0.793377 0.850797 0
M  V30 9 C 0.463317 0.394506 -0.210503 0
M  V30 10 C 0.273077 1.230117 -1.304079 0
M  V30 11 C -0.599373 0.940729 -2.359493 0
M  V30 12 C -0.748587 1.867781 -3.478194 0
M  V30 13 C -0.011314 1.872817 -4.644507 0
M  V30 14 C -0.279670 2.822779 -5.609347 0
M  V30 15 C -1.289993 3.755996 -5.383399 0
M  V30 16 F -1.551008 4.688413 -6.334173 0
M  V30 17 C -2.041525 3.759748 -4.207496 0
M  V30 18 C -1.753289 2.790640 -3.245964 0
M  V30 19 Cl -2.742276 2.871195 -1.808921 0
M  V30 20 C -1.297263 -0.256490 -2.275902 0
M  V30 21 C -2.162350 -0.594844 -3.273052 0
M  V30 22 C -2.861194 -1.768236 -3.213850 0
M  V30 23 N -2.662501 -2.567039 -2.142709 0 CHG=1 VAL=4
M  V30 24 O -3.377904 -3.738469 -2.110674 0 CHG=-1 VAL=1
M  V30 25 C -1.798827 -2.220545 -1.155538 0
M  V30 26 C -1.692430 -3.185555 -0.065784 0
M  V30 27 C -0.697924 -4.124447 -0.311340 0
M  V30 28 Cl 0.314789 -4.173847 -1.731758 0
M  V30 29 C -0.449899 -5.128563 0.621314 0
M  V30 30 C -1.202524 -5.167382 1.774443 0
M  V30 31 C -2.193696 -4.227015 2.013207 0
M  V30 32 C -2.443619 -3.229542 1.091912 0
M  V30 33 Cl -3.655424 -1.978483 1.252974 0
M  V30 34 C -1.063118 -1.040407 -1.164880 0
M  V30 35 N -0.222107 -0.754397 -0.154276 0
M  V30 36 C 0.587879 1.127995 2.075789 0
M  V30 37 C 1.422149 1.013067 3.299754 0
M  V30 38 H -0.309547 0.017637 5.321770 0
M  V30 39 H 0.363624 -1.343074 6.238964 0
M  V30 40 H 1.363490 0.109773 6.105460 0
M  V30 41 H 3.133955 -1.710261 5.100694 0
M  V30 42 H 2.383337 -2.913994 3.975976 0
M  V30 43 H 1.781717 -2.780808 5.699233 0
M  V30 44 H 0.113682 -1.812302 2.543389 0
M  V30 45 H 0.035208 -2.953888 4.004572 0
M  V30 46 H -0.898738 -1.463278 3.936167 0
M  V30 47 H 3.603648 -1.159079 2.628226 0
M  V30 48 H 2.108831 -1.925009 2.133622 0
M  V30 49 H 2.581993 -0.827923 0.221560 0
M  V30 50 H 3.529649 0.416099 1.017142 0
M  V30 51 H 1.815150 1.790680 0.513942 0
M  V30 52 H 0.800439 2.169785 -1.400847 0
M  V30 53 H 0.752163 1.095303 -4.709696 0
M  V30 54 H 0.308969 2.797241 -6.497375 0
M  V30 55 H -2.814406 4.528272 -4.114408 0
M  V30 56 H -2.282301 0.083802 -4.108402 0
M  V30 57 H -3.553792 -2.057951 -3.994080 0
M  V30 58 H 0.298741 -5.873983 0.486331 0
M  V30 59 H -1.014436 -5.947026 2.505175 0
M  V30 60 H -2.800723 -4.225364 2.900705 0
M  V30 61 H -0.331797 0.515924 2.168287 0
M  V30 62 H 0.199764 2.187455 2.036258 0
M  V30 63 H 2.281610 1.714284 3.178868 0
M  V30 64 H 0.859171 1.328458 4.172685 0
M  V30 END ATOM
M  V30 BEGIN BOND
M  V30 1 1 1 2
M  V30 2 1 2 3
M  V30 3 1 2 4
M  V30 4 1 2 5
M  V30 5 1 5 6
M  V30 6 1 6 7
M  V30 7 1 7 8
M  V30 8 1 8 9
M  V30 9 2 9 10
M  V30 10 1 10 11
M  V30 11 1 11 12
M  V30 12 2 12 13
M  V30 13 1 13 14
M  V30 14 2 14 15
M  V30 15 1 15 16
M  V30 16 1 15 17
M  V30 17 2 17 18
M  V30 18 1 18 19
M  V30 19 2 11 20
M  V30 20 1 20 21
M  V30 21 2 21 22
M  V30 22 1 22 23
M  V30 23 1 23 24
M  V30 24 2 23 25
M  V30 25 1 25 26
M  V30 26 2 26 27
M  V30 27 1 27 28
M  V30 28 1 27 29
M  V30 29 2 29 30
M  V30 30 1 30 31
M  V30 31 2 31 32
M  V30 32 1 32 33
M  V30 33 1 25 34
M  V30 34 2 34 35
M  V30 35 1 8 36
M  V30 36 1 36 37
M  V30 37 1 37 5
M  V30 38 1 35 9
M  V30 39 1 18 12
M  V30 40 1 34 20
M  V30 41 1 32 26
M  V30 42 1 1 38
M  V30 43 1 1 39
M  V30 44 1 1 40
M  V30 45 1 3 41
M  V30 46 1 3 42
M  V30 47 1 3 43
M  V30 48 1 4 44
M  V30 49 1 4 45
M  V30 50 1 4 46
M  V30 51 1 6 47
M  V30 52 1 6 48
M  V30 53 1 7 49
M  V30 54 1 7 50
M  V30 55 1 8 51
M  V30 56 1 10 52
M  V30 57 1 13 53
M  V30 58 1 14 54
M  V30 59 1 17 55
M  V30 60 1 21 56
M  V30 61 1 22 57
M  V30 62 1 29 58
M  V30 63 1 30 59
M  V30 64 1 31 60
M  V30 65 1 36 61
M  V30 66 1 36 62
M  V30 67 1 37 63
M  V30 68 1 37 64
M  V30 END BOND
M  V30 END CTAB
M  END
>  <Dataset>  (244) 
ChEMBL_Kinases

>  <Ligand_Instance>  (244) 
nan

>  <PDB_ID>  (244) 
nan

>  <Standardized_SMILES>  (244) 
CC(C)(C)N1CCC(c2cc(-c3ccc(F)cc3Cl)c3cc[n+]([O-])c(-c4c(Cl)cccc4Cl)c3n2)CC1

>  <Name>  (244) 
nan

>  <Pocket>  (244) 
nan

>  <ATP_Site>  (244) 
nan

>  <Peripheral>  (244) 
nan

>  <Num_H_Atoms_ProtBoundConf>  (244) 
nan

>  <Num_Resolved_Atoms>  (244) 
nan

>  <Num_Not_Resolved_Atoms>  (244) 
nan

$$$$
CHEMBL1916353
     RDKit          3D

  0  0  0  0  0  0  0  0  0  0999 V3000
M  V30 BEGIN CTAB
M  V30 COUNTS 54 57 0 0 0
M  V30 BEGIN ATOM
M  V30 1 C 6.613707 -1.014036 3.475842 0
M  V30 2 O 7.770551 -0.992741 2.737382 0
M  V30 3 C 7.772664 -1.755966 1.609642 0
M  V30 4 C 6.715315 -1.488359 0.579945 0
M  V30 5 N 5.406423 -1.725201 1.145720 0
M  V30 6 C 4.525220 -1.412080 0.063269 0
M  V30 7 O 5.139637 -1.042323 -1.003930 0
M  V30 8 C 3.043695 -1.470014 0.053849 0
M  V30 9 C 2.274689 -1.849366 1.132424 0
M  V30 10 C 0.897524 -1.891346 1.086794 0
M  V30 11 C 0.236702 -1.544166 -0.074564 0
M  V30 12 C -1.221250 -1.584415 -0.135882 0
M  V30 13 C -1.908237 -0.427057 0.216063 0
M  V30 14 N -1.261557 0.703885 0.603617 0
M  V30 15 C -1.916477 1.831670 0.947050 0
M  V30 16 C -3.306148 1.841172 0.904112 0
M  V30 17 C -3.992305 0.696233 0.510719 0
M  V30 18 C -5.465986 0.770187 0.485880 0
M  V30 19 C -6.048887 0.404959 1.689137 0
M  V30 20 C -7.419272 0.414948 1.846824 0
M  V30 21 C -8.174251 0.803177 0.756770 0
M  V30 22 F -9.525626 0.836851 0.839006 0
M  V30 23 C -7.611606 1.168107 -0.442786 0
M  V30 24 C -6.239767 1.154870 -0.590686 0
M  V30 25 F -5.559766 1.494052 -1.727205 0
M  V30 26 C -3.296487 -0.460649 0.159220 0
M  V30 27 C -4.027309 -1.572821 -0.225044 0
M  V30 28 C -3.277741 -2.674793 -0.556986 0
M  V30 29 N -1.922824 -2.689183 -0.516780 0 CHG=1 VAL=4
M  V30 30 O -1.204341 -3.826703 -0.861263 0 CHG=-1 VAL=1
M  V30 31 C 1.025125 -1.167387 -1.142678 0
M  V30 32 C 0.373206 -0.782337 -2.420349 0
M  V30 33 C 2.404324 -1.119949 -1.113720 0
M  V30 34 H 6.278476 -2.018240 3.806335 0
M  V30 35 H 6.834735 -0.515168 4.500385 0
M  V30 36 H 5.819473 -0.360100 3.074065 0
M  V30 37 H 8.803519 -1.750016 1.115803 0
M  V30 38 H 7.718409 -2.831333 1.974032 0
M  V30 39 H 6.920664 -2.151028 -0.286885 0
M  V30 40 H 6.843456 -0.432796 0.257449 0
M  V30 41 H 4.788082 -2.016101 1.933825 0
M  V30 42 H 2.775276 -2.123462 2.046688 0
M  V30 43 H 0.324365 -2.191525 1.944778 0
M  V30 44 H -1.366090 2.711166 1.250011 0
M  V30 45 H -3.786553 2.771211 1.189305 0
M  V30 46 H -5.493508 0.090457 2.579915 0
M  V30 47 H -7.891053 0.130979 2.784921 0
M  V30 48 H -8.171686 1.479696 -1.323964 0
M  V30 49 H -5.100691 -1.569676 -0.259567 0
M  V30 50 H -3.822844 -3.578838 -0.867719 0
M  V30 51 H 0.761729 -1.397117 -3.261617 0
M  V30 52 H 0.586149 0.282670 -2.697472 0
M  V30 53 H -0.715543 -0.873278 -2.379999 0
M  V30 54 H 2.965646 -0.810173 -2.002983 0
M  V30 END ATOM
M  V30 BEGIN BOND
M  V30 1 1 1 2
M  V30 2 1 2 3
M  V30 3 1 3 4
M  V30 4 1 4 5
M  V30 5 1 5 6
M  V30 6 2 6 7
M  V30 7 1 6 8
M  V30 8 2 8 9
M  V30 9 1 9 10
M  V30 10 2 10 11
M  V30 11 1 11 12
M  V30 12 1 12 13
M  V30 13 2 13 14
M  V30 14 1 14 15
M  V30 15 2 15 16
M  V30 16 1 16 17
M  V30 17 1 17 18
M  V30 18 2 18 19
M  V30 19 1 19 20
M  V30 20 2 20 21
M  V30 21 1 21 22
M  V30 22 1 21 23
M  V30 23 2 23 24
M  V30 24 1 24 25
M  V30 25 2 17 26
M  V30 26 1 26 27
M  V30 27 2 27 28
M  V30 28 1 28 29
M  V30 29 1 29 30
M  V30 30 1 11 31
M  V30 31 1 31 32
M  V30 32 2 31 33
M  V30 33 1 33 8
M  V30 34 2 29 12
M  V30 35 1 26 13
M  V30 36 1 24 18
M  V30 37 1 1 34
M  V30 38 1 1 35
M  V30 39 1 1 36
M  V30 40 1 3 37
M  V30 41 1 3 38
M  V30 42 1 4 39
M  V30 43 1 4 40
M  V30 44 1 5 41
M  V30 45 1 9 42
M  V30 46 1 10 43
M  V30 47 1 15 44
M  V30 48 1 16 45
M  V30 49 1 19 46
M  V30 50 1 20 47
M  V30 51 1 23 48
M  V30 52 1 27 49
M  V30 53 1 28 50
M  V30 54 1 32 51
M  V30 55 1 32 52
M  V30 56 1 32 53
M  V30 57 1 33 54
M  V30 END BOND
M  V30 END CTAB
M  END
>  <Dataset>  (245) 
ChEMBL_Kinases

>  <Ligand_Instance>  (245) 
nan

>  <PDB_ID>  (245) 
nan

>  <Standardized_SMILES>  (245) 
COCCNC(=O)c1ccc(-c2c3nccc(-c4ccc(F)cc4F)c3cc[n+]2[O-])c(C)c1

>  <Name>  (245) 
nan

>  <Pocket>  (245) 
nan

>  <ATP_Site>  (245) 
nan

>  <Peripheral>  (245) 
nan

>  <Num_H_Atoms_ProtBoundConf>  (245) 
nan

>  <Num_Resolved_Atoms>  (245) 
nan

>  <Num_Not_Resolved_Atoms>  (245) 
nan

$$$$
CHEMBL190416
     RDKit          3D

  0  0  0  0  0  0  0  0  0  0999 V3000
M  V30 BEGIN CTAB
M  V30 COUNTS 44 47 0 0 0
M  V30 BEGIN ATOM
M  V30 1 C 0.016245 -5.594148 3.377115 0
M  V30 2 N 0.832007 -4.521623 2.900579 0
M  V30 3 C 1.266933 -4.669532 1.537052 0
M  V30 4 C 1.087737 -3.399535 0.737805 0
M  V30 5 C 1.652778 -2.194299 1.413423 0
M  V30 6 C 1.003274 -0.950777 0.887948 0
M  V30 7 C 1.782489 0.078611 0.349073 0
M  V30 8 C 0.958952 1.128147 -0.074541 0
M  V30 9 C 1.323962 2.389676 -0.688691 0
M  V30 10 C 0.793478 2.499738 -1.971028 0
M  V30 11 C 1.023608 3.637132 -2.740926 0
M  V30 12 N 1.760669 4.623831 -2.234662 0
M  V30 13 C 2.282260 4.538275 -0.999178 0
M  V30 14 C 2.084175 3.436347 -0.198893 0
M  V30 15 C -0.307555 0.687897 0.228469 0
M  V30 16 C -1.498981 1.484805 -0.049728 0
M  V30 17 C -1.848491 2.716076 0.464278 0
M  V30 18 C -3.077319 3.001118 -0.143159 0
M  V30 19 C -3.390845 1.928868 -0.981810 0
M  V30 20 O -2.422668 1.049285 -0.894287 0
M  V30 21 N -0.266162 -0.532920 0.792485 0
M  V30 22 C 1.404979 -2.236602 2.902274 0
M  V30 23 C 0.273896 -3.210545 3.135901 0
M  V30 24 H -0.481005 -5.264474 4.315114 0
M  V30 25 H 0.702898 -6.423421 3.685912 0
M  V30 26 H -0.763935 -5.937179 2.675309 0
M  V30 27 H 0.759386 -5.478896 0.976215 0
M  V30 28 H 2.348639 -4.907108 1.545399 0
M  V30 29 H 0.031732 -3.250877 0.454127 0
M  V30 30 H 1.625529 -3.558598 -0.230127 0
M  V30 31 H 2.753986 -2.085569 1.250600 0
M  V30 32 H 2.869836 0.184412 0.215349 0
M  V30 33 H 0.176210 1.754214 -2.485646 0
M  V30 34 H 0.622613 3.755001 -3.748764 0
M  V30 35 H 2.882633 5.317495 -0.559220 0
M  V30 36 H 2.443094 3.246288 0.797921 0
M  V30 37 H -1.230868 3.241863 1.168970 0
M  V30 38 H -3.538828 3.959806 0.137465 0
M  V30 39 H -4.336350 2.100119 -1.478035 0
M  V30 40 H -1.051135 -1.117998 1.125010 0
M  V30 41 H 1.188513 -1.233302 3.318338 0
M  V30 42 H 2.333803 -2.639426 3.402479 0
M  V30 43 H -0.542043 -3.073402 2.399633 0
M  V30 44 H -0.132246 -3.149594 4.162036 0
M  V30 END ATOM
M  V30 BEGIN BOND
M  V30 1 1 1 2
M  V30 2 1 2 3
M  V30 3 1 3 4
M  V30 4 1 4 5
M  V30 5 1 5 6
M  V30 6 2 6 7
M  V30 7 1 7 8
M  V30 8 1 8 9
M  V30 9 2 9 10
M  V30 10 1 10 11
M  V30 11 2 11 12
M  V30 12 1 12 13
M  V30 13 2 13 14
M  V30 14 2 8 15
M  V30 15 1 15 16
M  V30 16 2 16 17
M  V30 17 1 17 18
M  V30 18 2 18 19
M  V30 19 1 19 20
M  V30 20 1 15 21
M  V30 21 1 5 22
M  V30 22 1 22 23
M  V30 23 1 23 2
M  V30 24 1 21 6
M  V30 25 1 14 9
M  V30 26 1 20 16
M  V30 27 1 1 24
M  V30 28 1 1 25
M  V30 29 1 1 26
M  V30 30 1 3 27
M  V30 31 1 3 28
M  V30 32 1 4 29
M  V30 33 1 4 30
M  V30 34 1 5 31
M  V30 35 1 7 32
M  V30 36 1 10 33
M  V30 37 1 11 34
M  V30 38 1 13 35
M  V30 39 1 14 36
M  V30 40 1 17 37
M  V30 41 1 18 38
M  V30 42 1 19 39
M  V30 43 1 21 40
M  V30 44 1 22 41
M  V30 45 1 22 42
M  V30 46 1 23 43
M  V30 47 1 23 44
M  V30 END BOND
M  V30 END CTAB
M  END
>  <Dataset>  (246) 
ChEMBL_Kinases

>  <Ligand_Instance>  (246) 
nan

>  <PDB_ID>  (246) 
nan

>  <Standardized_SMILES>  (246) 
CN1CCC(c2cc(-c3ccncc3)c(-c3ccco3)[nH]2)CC1

>  <Name>  (246) 
nan

>  <Pocket>  (246) 
nan

>  <ATP_Site>  (246) 
nan

>  <Peripheral>  (246) 
nan

>  <Num_H_Atoms_ProtBoundConf>  (246) 
nan

>  <Num_Resolved_Atoms>  (246) 
nan

>  <Num_Not_Resolved_Atoms>  (246) 
nan

$$$$
CHEMBL190380
     RDKit          3D

  0  0  0  0  0  0  0  0  0  0999 V3000
M  V30 BEGIN CTAB
M  V30 COUNTS 34 36 0 0 0
M  V30 BEGIN ATOM
M  V30 1 C 0.875456 -2.272704 4.069279 0
M  V30 2 N 1.148500 -2.419160 2.646332 0
M  V30 3 C 0.381390 -3.479229 2.013958 0
M  V30 4 C 2.030997 -1.739367 1.732264 0
M  V30 5 N 3.319991 -1.483290 1.951968 0
M  V30 6 C 4.063518 -0.832782 1.037283 0
M  V30 7 C 3.531592 -0.409490 -0.149156 0
M  V30 8 C 2.199376 -0.664019 -0.395353 0
M  V30 9 C 1.310121 -0.391177 -1.546980 0
M  V30 10 C 1.700994 -0.728875 -2.900664 0
M  V30 11 N 2.002718 -1.015737 -3.999250 0
M  V30 12 C 0.135904 0.166765 -1.333620 0
M  V30 13 N -0.474703 0.584013 -0.133778 0
M  V30 14 C -1.792827 1.050589 -0.198820 0
M  V30 15 C -2.533891 1.461824 0.920327 0
M  V30 16 C -3.845445 1.861376 0.685409 0
M  V30 17 C -4.402199 1.858555 -0.580757 0
M  V30 18 C -3.665202 1.452807 -1.673324 0
M  V30 19 C -2.342841 1.047980 -1.451237 0
M  V30 20 S -1.070312 0.505320 -2.610702 0
M  V30 21 N 1.502612 -1.327419 0.572842 0
M  V30 22 H -0.251685 -2.287384 4.216932 0
M  V30 23 H 1.325414 -3.158775 4.594608 0
M  V30 24 H 1.272562 -1.339352 4.500326 0
M  V30 25 H -0.626984 -3.504453 2.440851 0
M  V30 26 H 0.279227 -3.353896 0.913067 0
M  V30 27 H 0.875072 -4.480904 2.173739 0
M  V30 28 H 5.109796 -0.597036 1.156151 0
M  V30 29 H 3.957113 0.121133 -0.991734 0
M  V30 30 H 0.137890 0.514219 0.740717 0
M  V30 31 H -2.176624 1.504729 1.941119 0
M  V30 32 H -4.441753 2.184913 1.541355 0
M  V30 33 H -5.442152 2.175341 -0.761218 0
M  V30 34 H -4.095234 1.451999 -2.663691 0
M  V30 END ATOM
M  V30 BEGIN BOND
M  V30 1 1 1 2
M  V30 2 1 2 3
M  V30 3 1 2 4
M  V30 4 2 4 5
M  V30 5 1 5 6
M  V30 6 2 6 7
M  V30 7 1 7 8
M  V30 8 1 8 9
M  V30 9 1 9 10
M  V30 10 3 10 11
M  V30 11 2 9 12
M  V30 12 1 12 13
M  V30 13 1 13 14
M  V30 14 2 14 15
M  V30 15 1 15 16
M  V30 16 2 16 17
M  V30 17 1 17 18
M  V30 18 2 18 19
M  V30 19 1 19 20
M  V30 20 2 8 21
M  V30 21 1 21 4
M  V30 22 1 20 12
M  V30 23 1 19 14
M  V30 24 1 1 22
M  V30 25 1 1 23
M  V30 26 1 1 24
M  V30 27 1 3 25
M  V30 28 1 3 26
M  V30 29 1 3 27
M  V30 30 1 6 28
M  V30 31 1 7 29
M  V30 32 1 13 30
M  V30 33 1 15 31
M  V30 34 1 16 32
M  V30 35 1 17 33
M  V30 36 1 18 34
M  V30 END BOND
M  V30 END CTAB
M  END
>  <Dataset>  (247) 
ChEMBL_Kinases

>  <Ligand_Instance>  (247) 
nan

>  <PDB_ID>  (247) 
nan

>  <Standardized_SMILES>  (247) 
CN(C)c1nccc(/C(C#N)=C2\Nc3ccccc3S2)n1

>  <Name>  (247) 
nan

>  <Pocket>  (247) 
nan

>  <ATP_Site>  (247) 
nan

>  <Peripheral>  (247) 
nan

>  <Num_H_Atoms_ProtBoundConf>  (247) 
nan

>  <Num_Resolved_Atoms>  (247) 
nan

>  <Num_Not_Resolved_Atoms>  (247) 
nan

$$$$
CHEMBL19032
     RDKit          3D

  0  0  0  0  0  0  0  0  0  0999 V3000
M  V30 BEGIN CTAB
M  V30 COUNTS 47 49 0 0 0
M  V30 BEGIN ATOM
M  V30 1 C -4.681367 -2.881797 -2.694232 0
M  V30 2 O -3.936667 -2.701980 -1.505840 0
M  V30 3 C -2.773059 -1.942496 -1.554986 0
M  V30 4 C -2.307467 -1.350941 -2.720487 0
M  V30 5 C -1.141323 -0.599935 -2.729238 0
M  V30 6 O -0.632071 0.007675 -3.847027 0
M  V30 7 C -1.302572 -0.113273 -5.080233 0
M  V30 8 C -0.472264 -0.467940 -1.543672 0
M  V30 9 C 0.695720 0.250595 -1.410096 0
M  V30 10 O 1.163586 0.811286 -2.443033 0
M  V30 11 C 1.285666 0.318190 -0.166690 0
M  V30 12 O 2.447293 1.073233 -0.168471 0
M  V30 13 C 2.413870 2.487521 0.025779 0
M  V30 14 C 0.828636 -0.263633 0.969213 0
M  V30 15 C 1.418949 -0.217546 2.283307 0
M  V30 16 C 2.623279 0.288017 2.691821 0
M  V30 17 C 3.109677 0.324813 3.974658 0
M  V30 18 C 2.327646 -0.195085 4.982104 0
M  V30 19 O 2.725652 -0.206814 6.310990 0
M  V30 20 C 3.995012 0.336813 6.676591 0
M  V30 21 C 1.100939 -0.723115 4.646351 0
M  V30 22 O 0.297735 -1.251833 5.643449 0
M  V30 23 C -0.976885 -1.802331 5.306762 0
M  V30 24 C 0.683510 -0.722744 3.335214 0
M  V30 25 O -0.283235 -0.932430 0.788463 0
M  V30 26 C -0.891066 -1.033661 -0.361676 0
M  V30 27 C -2.066328 -1.787981 -0.362899 0
M  V30 28 H -5.680171 -3.296596 -2.443800 0
M  V30 29 H -4.176716 -3.687398 -3.294608 0
M  V30 30 H -4.836978 -1.966027 -3.277119 0
M  V30 31 H -2.855042 -1.473768 -3.631822 0
M  V30 32 H -2.373090 0.048337 -4.943729 0
M  V30 33 H -1.198906 -1.170125 -5.461539 0
M  V30 34 H -0.875141 0.513360 -5.870660 0
M  V30 35 H 3.283959 2.732478 0.670763 0
M  V30 36 H 2.568293 3.028649 -0.938514 0
M  V30 37 H 1.469811 2.790283 0.524703 0
M  V30 38 H 3.278521 0.686307 1.940274 0
M  V30 39 H 4.077906 0.748522 4.193351 0
M  V30 40 H 4.044975 1.347175 6.177514 0
M  V30 41 H 4.028413 0.566747 7.762472 0
M  V30 42 H 4.842540 -0.267486 6.351316 0
M  V30 43 H -1.615677 -0.984628 4.925895 0
M  V30 44 H -0.862975 -2.590523 4.506056 0
M  V30 45 H -1.445358 -2.262847 6.194900 0
M  V30 46 H -0.306331 -1.163091 3.159710 0
M  V30 47 H -2.430812 -2.246248 0.530311 0
M  V30 END ATOM
M  V30 BEGIN BOND
M  V30 1 1 1 2
M  V30 2 1 2 3
M  V30 3 2 3 4
M  V30 4 1 4 5
M  V30 5 1 5 6
M  V30 6 1 6 7
M  V30 7 2 5 8
M  V30 8 1 8 9
M  V30 9 2 9 10
M  V30 10 1 9 11
M  V30 11 1 11 12
M  V30 12 1 12 13
M  V30 13 2 11 14
M  V30 14 1 14 15
M  V30 15 2 15 16
M  V30 16 1 16 17
M  V30 17 2 17 18
M  V30 18 1 18 19
M  V30 19 1 19 20
M  V30 20 1 18 21
M  V30 21 1 21 22
M  V30 22 1 22 23
M  V30 23 2 21 24
M  V30 24 1 14 25
M  V30 25 1 25 26
M  V30 26 2 26 27
M  V30 27 1 27 3
M  V30 28 1 26 8
M  V30 29 1 24 15
M  V30 30 1 1 28
M  V30 31 1 1 29
M  V30 32 1 1 30
M  V30 33 1 4 31
M  V30 34 1 7 32
M  V30 35 1 7 33
M  V30 36 1 7 34
M  V30 37 1 13 35
M  V30 38 1 13 36
M  V30 39 1 13 37
M  V30 40 1 16 38
M  V30 41 1 17 39
M  V30 42 1 20 40
M  V30 43 1 20 41
M  V30 44 1 20 42
M  V30 45 1 23 43
M  V30 46 1 23 44
M  V30 47 1 23 45
M  V30 48 1 24 46
M  V30 49 1 27 47
M  V30 END BOND
M  V30 END CTAB
M  END
>  <Dataset>  (248) 
ChEMBL_Kinases

>  <Ligand_Instance>  (248) 
nan

>  <PDB_ID>  (248) 
nan

>  <Standardized_SMILES>  (248) 
COc1cc(OC)c2c(=O)c(OC)c(-c3ccc(OC)c(OC)c3)oc2c1

>  <Name>  (248) 
PENTAMETHYLQUERCETIN

>  <Pocket>  (248) 
nan

>  <ATP_Site>  (248) 
nan

>  <Peripheral>  (248) 
nan

>  <Num_H_Atoms_ProtBoundConf>  (248) 
nan

>  <Num_Resolved_Atoms>  (248) 
nan

>  <Num_Not_Resolved_Atoms>  (248) 
nan

$$$$
CHEMBL190291
     RDKit          3D

  0  0  0  0  0  0  0  0  0  0999 V3000
M  V30 BEGIN CTAB
M  V30 COUNTS 47 50 0 0 0
M  V30 BEGIN ATOM
M  V30 1 C -2.497890 -3.937392 1.564730 0
M  V30 2 N -3.310132 -2.718585 1.600053 0
M  V30 3 C -3.293953 -2.123244 0.322055 0
M  V30 4 C -3.466353 -0.649909 0.237292 0
M  V30 5 C -2.741937 0.091059 1.319105 0
M  V30 6 C -1.287525 0.204222 1.033861 0
M  V30 7 C -0.646745 1.406982 0.766744 0
M  V30 8 C 0.697948 1.080504 0.556133 0
M  V30 9 C 1.712606 2.081376 0.243566 0
M  V30 10 C 2.788411 2.357927 1.028031 0
M  V30 11 C 3.756876 3.298997 0.748999 0
M  V30 12 N 3.585509 3.971390 -0.395712 0
M  V30 13 C 2.534947 3.732825 -1.206554 0
M  V30 14 C 1.545921 2.786960 -0.943378 0
M  V30 15 C 0.799558 -0.282700 0.704641 0
M  V30 16 C 2.047415 -1.035012 0.564590 0
M  V30 17 C 2.719586 -1.057218 -0.654301 0
M  V30 18 C 3.901199 -1.781111 -0.752382 0
M  V30 19 C 4.394743 -2.464460 0.344466 0
M  V30 20 Cl 5.886481 -3.372115 0.203779 0
M  V30 21 C 3.710495 -2.430604 1.552165 0
M  V30 22 C 2.534524 -1.714146 1.661234 0
M  V30 23 N -0.411712 -0.807540 0.994947 0
M  V30 24 C -3.076220 -0.490442 2.634261 0
M  V30 25 C -2.939392 -1.972026 2.735427 0
M  V30 26 H -3.165525 -4.759645 1.895977 0
M  V30 27 H -2.070656 -4.104461 0.559303 0
M  V30 28 H -1.669841 -3.890635 2.312389 0
M  V30 29 H -2.429382 -2.434122 -0.319474 0
M  V30 30 H -4.176575 -2.557616 -0.238133 0
M  V30 31 H -3.025954 -0.299129 -0.726629 0
M  V30 32 H -4.528694 -0.324003 0.187981 0
M  V30 33 H -3.149710 1.142932 1.285241 0
M  V30 34 H -1.070083 2.418793 0.721360 0
M  V30 35 H 2.867382 1.771055 1.949322 0
M  V30 36 H 4.556173 3.407390 1.469979 0
M  V30 37 H 2.542380 4.362983 -2.095392 0
M  V30 38 H 0.741948 2.670829 -1.658021 0
M  V30 39 H 2.322623 -0.510718 -1.525154 0
M  V30 40 H 4.430268 -1.796848 -1.717006 0
M  V30 41 H 4.119362 -2.978171 2.407469 0
M  V30 42 H 1.991168 -1.687202 2.618583 0
M  V30 43 H -0.554077 -1.823272 1.146587 0
M  V30 44 H -2.427638 -0.013251 3.411758 0
M  V30 45 H -4.122540 -0.212616 2.886525 0
M  V30 46 H -3.618920 -2.308049 3.572556 0
M  V30 47 H -1.915986 -2.194250 3.112622 0
M  V30 END ATOM
M  V30 BEGIN BOND
M  V30 1 1 1 2
M  V30 2 1 2 3
M  V30 3 1 3 4
M  V30 4 1 4 5
M  V30 5 1 5 6
M  V30 6 2 6 7
M  V30 7 1 7 8
M  V30 8 1 8 9
M  V30 9 2 9 10
M  V30 10 1 10 11
M  V30 11 2 11 12
M  V30 12 1 12 13
M  V30 13 2 13 14
M  V30 14 2 8 15
M  V30 15 1 15 16
M  V30 16 2 16 17
M  V30 17 1 17 18
M  V30 18 2 18 19
M  V30 19 1 19 20
M  V30 20 1 19 21
M  V30 21 2 21 22
M  V30 22 1 15 23
M  V30 23 1 5 24
M  V30 24 1 24 25
M  V30 25 1 25 2
M  V30 26 1 23 6
M  V30 27 1 14 9
M  V30 28 1 22 16
M  V30 29 1 1 26
M  V30 30 1 1 27
M  V30 31 1 1 28
M  V30 32 1 3 29
M  V30 33 1 3 30
M  V30 34 1 4 31
M  V30 35 1 4 32
M  V30 36 1 5 33
M  V30 37 1 7 34
M  V30 38 1 10 35
M  V30 39 1 11 36
M  V30 40 1 13 37
M  V30 41 1 14 38
M  V30 42 1 17 39
M  V30 43 1 18 40
M  V30 44 1 21 41
M  V30 45 1 22 42
M  V30 46 1 23 43
M  V30 47 1 24 44
M  V30 48 1 24 45
M  V30 49 1 25 46
M  V30 50 1 25 47
M  V30 END BOND
M  V30 END CTAB
M  END
>  <Dataset>  (249) 
ChEMBL_Kinases

>  <Ligand_Instance>  (249) 
nan

>  <PDB_ID>  (249) 
nan

>  <Standardized_SMILES>  (249) 
CN1CCC(c2cc(-c3ccncc3)c(-c3ccc(Cl)cc3)[nH]2)CC1

>  <Name>  (249) 
nan

>  <Pocket>  (249) 
nan

>  <ATP_Site>  (249) 
nan

>  <Peripheral>  (249) 
nan

>  <Num_H_Atoms_ProtBoundConf>  (249) 
nan

>  <Num_Resolved_Atoms>  (249) 
nan

>  <Num_Not_Resolved_Atoms>  (249) 
nan

$$$$
CHEMBL190289
     RDKit          3D

  0  0  0  0  0  0  0  0  0  0999 V3000
M  V30 BEGIN CTAB
M  V30 COUNTS 44 47 0 0 0
M  V30 BEGIN ATOM
M  V30 1 C -0.201594 -5.634758 2.724063 0
M  V30 2 N 0.815676 -4.648078 2.409105 0
M  V30 3 C 1.155385 -4.654655 1.003607 0
M  V30 4 C 0.991981 -3.300516 0.364539 0
M  V30 5 C 1.663022 -2.199980 1.124604 0
M  V30 6 C 1.027188 -0.903152 0.741941 0
M  V30 7 C 1.793870 0.132570 0.200931 0
M  V30 8 C 0.974675 1.232713 -0.072226 0
M  V30 9 C 1.329026 2.508799 -0.632626 0
M  V30 10 C 0.809822 2.852267 -1.884304 0
M  V30 11 C 1.101793 4.057149 -2.484951 0
M  V30 12 N 1.912514 4.961550 -1.874989 0
M  V30 13 C 2.443419 4.672904 -0.653791 0
M  V30 14 C 2.155743 3.455874 -0.034242 0
M  V30 15 C -0.294205 0.817952 0.321952 0
M  V30 16 C -1.553934 1.556196 0.269769 0
M  V30 17 C -2.179405 1.814239 1.499775 0
M  V30 18 C -3.338345 2.511414 1.220776 0
M  V30 19 O -3.402284 2.658545 -0.068198 0
M  V30 20 C -2.386971 2.121019 -0.678422 0
M  V30 21 N -0.231055 -0.440831 0.795814 0
M  V30 22 C 1.537474 -2.387776 2.618430 0
M  V30 23 C 0.386616 -3.336401 2.853067 0
M  V30 24 H -0.817153 -5.240920 3.565019 0
M  V30 25 H 0.233749 -6.607466 2.957840 0
M  V30 26 H -0.874319 -5.773814 1.847456 0
M  V30 27 H 0.449358 -5.345705 0.500010 0
M  V30 28 H 2.174616 -5.046112 0.823158 0
M  V30 29 H -0.079658 -3.129575 0.200408 0
M  V30 30 H 1.456630 -3.352307 -0.641904 0
M  V30 31 H 2.754825 -2.122381 0.882484 0
M  V30 32 H 2.851292 0.203611 -0.021204 0
M  V30 33 H 0.162791 2.242306 -2.479954 0
M  V30 34 H 0.719921 4.363287 -3.454686 0
M  V30 35 H 3.092091 5.373616 -0.144822 0
M  V30 36 H 2.543983 3.173915 0.924627 0
M  V30 37 H -1.969348 1.602013 2.549518 0
M  V30 38 H -4.159226 2.939034 1.797704 0
M  V30 39 H -2.083675 2.031994 -1.697262 0
M  V30 40 H -1.009872 -1.017318 1.161253 0
M  V30 41 H 1.383031 -1.421797 3.135855 0
M  V30 42 H 2.440290 -2.864470 3.050675 0
M  V30 43 H 0.116359 -3.433420 3.923946 0
M  V30 44 H -0.498208 -3.092358 2.232843 0
M  V30 END ATOM
M  V30 BEGIN BOND
M  V30 1 1 1 2
M  V30 2 1 2 3
M  V30 3 1 3 4
M  V30 4 1 4 5
M  V30 5 1 5 6
M  V30 6 2 6 7
M  V30 7 1 7 8
M  V30 8 1 8 9
M  V30 9 2 9 10
M  V30 10 1 10 11
M  V30 11 2 11 12
M  V30 12 1 12 13
M  V30 13 2 13 14
M  V30 14 2 8 15
M  V30 15 1 15 16
M  V30 16 1 16 17
M  V30 17 2 17 18
M  V30 18 1 18 19
M  V30 19 1 19 20
M  V30 20 1 15 21
M  V30 21 1 5 22
M  V30 22 1 22 23
M  V30 23 1 23 2
M  V30 24 1 21 6
M  V30 25 1 14 9
M  V30 26 2 20 16
M  V30 27 1 1 24
M  V30 28 1 1 25
M  V30 29 1 1 26
M  V30 30 1 3 27
M  V30 31 1 3 28
M  V30 32 1 4 29
M  V30 33 1 4 30
M  V30 34 1 5 31
M  V30 35 1 7 32
M  V30 36 1 10 33
M  V30 37 1 11 34
M  V30 38 1 13 35
M  V30 39 1 14 36
M  V30 40 1 17 37
M  V30 41 1 18 38
M  V30 42 1 20 39
M  V30 43 1 21 40
M  V30 44 1 22 41
M  V30 45 1 22 42
M  V30 46 1 23 43
M  V30 47 1 23 44
M  V30 END BOND
M  V30 END CTAB
M  END
>  <Dataset>  (250) 
ChEMBL_Kinases

>  <Ligand_Instance>  (250) 
nan

>  <PDB_ID>  (250) 
nan

>  <Standardized_SMILES>  (250) 
CN1CCC(c2cc(-c3ccncc3)c(-c3ccoc3)[nH]2)CC1

>  <Name>  (250) 
nan

>  <Pocket>  (250) 
nan

>  <ATP_Site>  (250) 
nan

>  <Peripheral>  (250) 
nan

>  <Num_H_Atoms_ProtBoundConf>  (250) 
nan

>  <Num_Resolved_Atoms>  (250) 
nan

>  <Num_Not_Resolved_Atoms>  (250) 
nan

$$$$
CHEMBL190252
     RDKit          3D

  0  0  0  0  0  0  0  0  0  0999 V3000
M  V30 BEGIN CTAB
M  V30 COUNTS 61 65 0 0 0
M  V30 BEGIN ATOM
M  V30 1 C 7.522489 -1.665066 4.640216 0
M  V30 2 N 6.389027 -1.455522 5.480464 0
M  V30 3 C 5.362563 -2.454134 5.349774 0
M  V30 4 C 4.603573 -2.356085 4.057978 0
M  V30 5 N 4.027279 -1.023470 3.978401 0
M  V30 6 C 3.275165 -0.642097 2.833959 0
M  V30 7 C 2.640236 0.570299 2.679602 0
M  V30 8 C 1.915860 0.928960 1.562342 0
M  V30 9 C 1.813762 0.023159 0.526318 0
M  V30 10 C 1.089460 0.227560 -0.726501 0
M  V30 11 O 0.979903 -0.560273 -1.701525 0
M  V30 12 N 0.386330 1.443133 -0.966916 0
M  V30 13 C -0.337836 1.690030 -2.179666 0
M  V30 14 N 0.111457 2.252196 -3.328729 0
M  V30 15 N -0.897910 2.292582 -4.212623 0
M  V30 16 C -2.003697 1.762509 -3.653374 0
M  V30 17 C -1.667700 1.378291 -2.373836 0
M  V30 18 C -2.888671 0.801923 -1.779323 0
M  V30 19 N -3.779707 0.504837 -2.882562 0
M  V30 20 C -4.793870 -0.475534 -2.994425 0
M  V30 21 O -5.518425 -0.634145 -4.036100 0
M  V30 22 C -5.021176 -1.355733 -1.847891 0
M  V30 23 C -6.090367 -2.342902 -2.044391 0
M  V30 24 C -5.808151 -3.581114 -2.584355 0
M  V30 25 C -6.821101 -4.500120 -2.763863 0
M  V30 26 C -8.102084 -4.143739 -2.391301 0
M  V30 27 C -8.449690 -2.918642 -1.844756 0
M  V30 28 C -7.380609 -2.038863 -1.690927 0
M  V30 29 C -3.430018 1.458298 -3.940178 0
M  V30 30 C 2.439676 -1.200707 0.652157 0
M  V30 31 C 3.159690 -1.532099 1.785937 0
M  V30 32 C 4.300082 -0.191742 5.131880 0
M  V30 33 C 5.812800 -0.139442 5.380471 0
M  V30 34 H 8.475853 -1.520262 5.217935 0
M  V30 35 H 7.522266 -2.701869 4.250614 0
M  V30 36 H 7.538889 -0.927190 3.832274 0
M  V30 37 H 5.775043 -3.476143 5.465479 0
M  V30 38 H 4.658847 -2.316345 6.195512 0
M  V30 39 H 3.708150 -3.034154 4.152257 0
M  V30 40 H 5.199067 -2.592336 3.178932 0
M  V30 41 H 2.697374 1.296382 3.462104 0
M  V30 42 H 1.416734 1.877376 1.435172 0
M  V30 43 H 0.357786 2.226182 -0.272711 0
M  V30 44 H -0.759763 2.695964 -5.181137 0
M  V30 45 H -3.405597 1.437123 -1.057161 0
M  V30 46 H -2.640804 -0.163645 -1.266900 0
M  V30 47 H -4.116848 -1.918880 -1.546332 0
M  V30 48 H -5.282293 -0.726771 -0.975272 0
M  V30 49 H -4.827501 -3.889518 -2.884112 0
M  V30 50 H -6.708577 -5.492949 -3.176610 0
M  V30 51 H -8.925872 -4.845408 -2.519300 0
M  V30 52 H -9.467268 -2.688413 -1.569866 0
M  V30 53 H -7.573037 -1.062511 -1.269764 0
M  V30 54 H -3.530373 0.885191 -4.895270 0
M  V30 55 H -4.033630 2.365263 -3.918122 0
M  V30 56 H 2.390374 -1.959395 -0.142960 0
M  V30 57 H 3.631159 -2.496389 1.840959 0
M  V30 58 H 3.750259 -0.500276 6.041828 0
M  V30 59 H 4.024491 0.872362 4.933361 0
M  V30 60 H 5.972954 0.361032 6.360485 0
M  V30 61 H 6.286164 0.512620 4.627776 0
M  V30 END ATOM
M  V30 BEGIN BOND
M  V30 1 1 1 2
M  V30 2 1 2 3
M  V30 3 1 3 4
M  V30 4 1 4 5
M  V30 5 1 5 6
M  V30 6 2 6 7
M  V30 7 1 7 8
M  V30 8 2 8 9
M  V30 9 1 9 10
M  V30 10 2 10 11
M  V30 11 1 10 12
M  V30 12 1 12 13
M  V30 13 2 13 14
M  V30 14 1 14 15
M  V30 15 1 15 16
M  V30 16 2 16 17
M  V30 17 1 17 18
M  V30 18 1 18 19
M  V30 19 1 19 20
M  V30 20 2 20 21
M  V30 21 1 20 22
M  V30 22 1 22 23
M  V30 23 2 23 24
M  V30 24 1 24 25
M  V30 25 2 25 26
M  V30 26 1 26 27
M  V30 27 2 27 28
M  V30 28 1 19 29
M  V30 29 1 9 30
M  V30 30 2 30 31
M  V30 31 1 5 32
M  V30 32 1 32 33
M  V30 33 1 33 2
M  V30 34 1 31 6
M  V30 35 1 17 13
M  V30 36 1 28 23
M  V30 37 1 29 16
M  V30 38 1 1 34
M  V30 39 1 1 35
M  V30 40 1 1 36
M  V30 41 1 3 37
M  V30 42 1 3 38
M  V30 43 1 4 39
M  V30 44 1 4 40
M  V30 45 1 7 41
M  V30 46 1 8 42
M  V30 47 1 12 43
M  V30 48 1 15 44
M  V30 49 1 18 45
M  V30 50 1 18 46
M  V30 51 1 22 47
M  V30 52 1 22 48
M  V30 53 1 24 49
M  V30 54 1 25 50
M  V30 55 1 26 51
M  V30 56 1 27 52
M  V30 57 1 28 53
M  V30 58 1 29 54
M  V30 59 1 29 55
M  V30 60 1 30 56
M  V30 61 1 31 57
M  V30 62 1 32 58
M  V30 63 1 32 59
M  V30 64 1 33 60
M  V30 65 1 33 61
M  V30 END BOND
M  V30 END CTAB
M  END
>  <Dataset>  (251) 
ChEMBL_Kinases

>  <Ligand_Instance>  (251) 
nan

>  <PDB_ID>  (251) 
nan

>  <Standardized_SMILES>  (251) 
CN1CCN(c2ccc(C(=O)Nc3n[nH]c4c3CN(C(=O)Cc3ccccc3)C4)cc2)CC1

>  <Name>  (251) 
nan

>  <Pocket>  (251) 
nan

>  <ATP_Site>  (251) 
nan

>  <Peripheral>  (251) 
nan

>  <Num_H_Atoms_ProtBoundConf>  (251) 
nan

>  <Num_Resolved_Atoms>  (251) 
nan

>  <Num_Not_Resolved_Atoms>  (251) 
nan

$$$$
CHEMBL190250
     RDKit          3D

  0  0  0  0  0  0  0  0  0  0999 V3000
M  V30 BEGIN CTAB
M  V30 COUNTS 46 49 0 0 0
M  V30 BEGIN ATOM
M  V30 1 N -2.377716 -1.999671 -1.429212 0
M  V30 2 C -1.980603 -2.255189 -0.352304 0
M  V30 3 C -1.497128 -2.572661 0.983565 0
M  V30 4 C -2.157892 -3.518550 1.622499 0
M  V30 5 N -1.880059 -3.994264 2.927936 0
M  V30 6 C -2.639229 -5.083049 3.345355 0
M  V30 7 C -2.584302 -5.811556 4.537983 0
M  V30 8 C -3.399545 -6.899422 4.753595 0
M  V30 9 C -4.316152 -7.341308 3.822005 0
M  V30 10 C -4.404102 -6.653587 2.635491 0
M  V30 11 C -3.581597 -5.581207 2.455482 0
M  V30 12 S -3.543875 -4.479446 1.013729 0
M  V30 13 C -0.325606 -1.857533 1.468037 0
M  V30 14 C 0.718739 -2.529505 2.096777 0
M  V30 15 C 1.848015 -1.895949 2.582718 0
M  V30 16 N 1.934998 -0.541382 2.432287 0
M  V30 17 C 0.922482 0.129887 1.818648 0
M  V30 18 N 0.763218 1.524119 1.539908 0
M  V30 19 C 1.643589 2.000124 0.493894 0
M  V30 20 C 1.270589 3.413892 0.127761 0
M  V30 21 C 2.161021 3.937658 -0.943610 0
M  V30 22 C 3.306285 4.678398 -0.868094 0
M  V30 23 C 3.992885 5.029583 -2.019098 0
M  V30 24 C 3.498901 4.616963 -3.254749 0
M  V30 25 N 4.229295 4.996009 -4.438229 0 CHG=1 VAL=4
M  V30 26 O 3.794310 4.616816 -5.558584 0
M  V30 27 O 5.379722 5.745417 -4.413294 0 CHG=-1 VAL=1
M  V30 28 C 2.333137 3.861334 -3.371058 0
M  V30 29 C 1.683297 3.535647 -2.193841 0
M  V30 30 N -0.162683 -0.524358 1.358593 0
M  V30 31 H -1.161587 -3.550929 3.541080 0
M  V30 32 H -1.901923 -5.562318 5.357511 0
M  V30 33 H -3.338620 -7.454115 5.690273 0
M  V30 34 H -4.934450 -8.192315 4.021344 0
M  V30 35 H -5.105870 -6.968731 1.888585 0
M  V30 36 H 0.753985 -3.583277 2.244737 0
M  V30 37 H 2.670768 -2.381158 3.070057 0
M  V30 38 H 0.090291 2.199358 2.008702 0
M  V30 39 H 1.615066 1.302907 -0.344310 0
M  V30 40 H 2.710835 2.018805 0.834091 0
M  V30 41 H 1.420419 4.039496 1.025007 0
M  V30 42 H 0.202799 3.478308 -0.135368 0
M  V30 43 H 3.566846 4.928302 0.154189 0
M  V30 44 H 4.890726 5.616333 -1.883545 0
M  V30 45 H 1.998858 3.571997 -4.356351 0
M  V30 46 H 0.780157 2.943656 -2.402290 0
M  V30 END ATOM
M  V30 BEGIN BOND
M  V30 1 3 1 2
M  V30 2 1 2 3
M  V30 3 2 3 4
M  V30 4 1 4 5
M  V30 5 1 5 6
M  V30 6 2 6 7
M  V30 7 1 7 8
M  V30 8 2 8 9
M  V30 9 1 9 10
M  V30 10 2 10 11
M  V30 11 1 11 12
M  V30 12 1 3 13
M  V30 13 2 13 14
M  V30 14 1 14 15
M  V30 15 2 15 16
M  V30 16 1 16 17
M  V30 17 1 17 18
M  V30 18 1 18 19
M  V30 19 1 19 20
M  V30 20 1 20 21
M  V30 21 2 21 22
M  V30 22 1 22 23
M  V30 23 2 23 24
M  V30 24 1 24 25
M  V30 25 2 25 26
M  V30 26 1 25 27
M  V30 27 1 24 28
M  V30 28 2 28 29
M  V30 29 2 17 30
M  V30 30 1 12 4
M  V30 31 1 30 13
M  V30 32 1 11 6
M  V30 33 1 29 21
M  V30 34 1 5 31
M  V30 35 1 7 32
M  V30 36 1 8 33
M  V30 37 1 9 34
M  V30 38 1 10 35
M  V30 39 1 14 36
M  V30 40 1 15 37
M  V30 41 1 18 38
M  V30 42 1 19 39
M  V30 43 1 19 40
M  V30 44 1 20 41
M  V30 45 1 20 42
M  V30 46 1 22 43
M  V30 47 1 23 44
M  V30 48 1 28 45
M  V30 49 1 29 46
M  V30 END BOND
M  V30 END CTAB
M  END
>  <Dataset>  (252) 
ChEMBL_Kinases

>  <Ligand_Instance>  (252) 
nan

>  <PDB_ID>  (252) 
nan

>  <Standardized_SMILES>  (252) 
N#C/C(=C1/Nc2ccccc2S1)c1ccnc(NCCc2ccc([N+](=O)[O-])cc2)n1

>  <Name>  (252) 
nan

>  <Pocket>  (252) 
nan

>  <ATP_Site>  (252) 
nan

>  <Peripheral>  (252) 
nan

>  <Num_H_Atoms_ProtBoundConf>  (252) 
nan

>  <Num_Resolved_Atoms>  (252) 
nan

>  <Num_Not_Resolved_Atoms>  (252) 
nan

$$$$
CHEMBL190201
     RDKit          3D

  0  0  0  0  0  0  0  0  0  0999 V3000
M  V30 BEGIN CTAB
M  V30 COUNTS 50 53 0 0 0
M  V30 BEGIN ATOM
M  V30 1 C 1.354241 -6.732991 2.962322 0
M  V30 2 O 1.848253 -6.427448 1.671462 0
M  V30 3 C 1.914073 -5.121267 1.249645 0
M  V30 4 C 1.479151 -4.143807 2.140081 0
M  V30 5 C 1.553906 -2.840290 1.697090 0
M  V30 6 C 2.027971 -2.475642 0.444518 0
M  V30 7 C 2.037125 -1.051500 0.142463 0
M  V30 8 O 3.186718 -0.472689 -0.080819 0
M  V30 9 C 3.063850 0.806961 -0.340892 0
M  V30 10 N 3.927320 1.799258 -0.626241 0
M  V30 11 C 3.439036 3.047502 -0.847779 0
M  V30 12 N 2.116343 3.292424 -0.784337 0
M  V30 13 C 1.194628 2.354536 -0.505494 0
M  V30 14 N -0.193782 2.641117 -0.462479 0
M  V30 15 C -0.733807 3.975190 -0.689738 0
M  V30 16 C -0.210543 4.858083 0.423413 0
M  V30 17 O -0.672572 6.168351 0.299667 0
M  V30 18 C 1.717316 1.096974 -0.284493 0
M  V30 19 C 1.045770 -0.069469 0.021642 0
M  V30 20 C -0.335226 -0.418119 0.218090 0
M  V30 21 C -1.008812 -0.880021 -0.927474 0
M  V30 22 C -2.349901 -1.247166 -0.798480 0
M  V30 23 C -2.988134 -1.151925 0.440275 0
M  V30 24 O -4.313747 -1.554102 0.396035 0
M  V30 25 C -5.186467 -1.557094 1.506801 0
M  V30 26 C -2.340868 -0.704994 1.554618 0
M  V30 27 C -1.014986 -0.338487 1.442995 0
M  V30 28 C 2.446519 -3.491598 -0.397703 0
M  V30 29 C 2.391909 -4.810934 -0.001699 0
M  V30 30 H 1.384860 -7.830168 3.142241 0
M  V30 31 H 0.331812 -6.333858 3.125337 0
M  V30 32 H 1.989133 -6.282887 3.764084 0
M  V30 33 H 1.098783 -4.377123 3.133813 0
M  V30 34 H 1.211191 -2.082189 2.400778 0
M  V30 35 H 4.000927 3.940046 -1.085431 0
M  V30 36 H -0.918268 1.923436 -0.270494 0
M  V30 37 H -1.825260 4.004866 -0.672995 0
M  V30 38 H -0.427222 4.369583 -1.682770 0
M  V30 39 H 0.890454 4.834693 0.487884 0
M  V30 40 H -0.569462 4.511967 1.419624 0
M  V30 41 H -0.199004 6.747405 0.926360 0
M  V30 42 H -0.521330 -0.958135 -1.895874 0
M  V30 43 H -2.828606 -1.599341 -1.716846 0
M  V30 44 H -4.668952 -1.630005 2.483779 0
M  V30 45 H -5.869570 -2.446233 1.449063 0
M  V30 46 H -5.762980 -0.591186 1.555195 0
M  V30 47 H -2.882013 -0.651305 2.485961 0
M  V30 48 H -0.461161 0.020772 2.295109 0
M  V30 49 H 2.804763 -3.166478 -1.354671 0
M  V30 50 H 2.728143 -5.596147 -0.684368 0
M  V30 END ATOM
M  V30 BEGIN BOND
M  V30 1 1 1 2
M  V30 2 1 2 3
M  V30 3 2 3 4
M  V30 4 1 4 5
M  V30 5 2 5 6
M  V30 6 1 6 7
M  V30 7 1 7 8
M  V30 8 1 8 9
M  V30 9 2 9 10
M  V30 10 1 10 11
M  V30 11 2 11 12
M  V30 12 1 12 13
M  V30 13 1 13 14
M  V30 14 1 14 15
M  V30 15 1 15 16
M  V30 16 1 16 17
M  V30 17 2 13 18
M  V30 18 1 18 19
M  V30 19 1 19 20
M  V30 20 2 20 21
M  V30 21 1 21 22
M  V30 22 2 22 23
M  V30 23 1 23 24
M  V30 24 1 24 25
M  V30 25 1 23 26
M  V30 26 2 26 27
M  V30 27 1 6 28
M  V30 28 2 28 29
M  V30 29 1 29 3
M  V30 30 2 19 7
M  V30 31 1 27 20
M  V30 32 1 18 9
M  V30 33 1 1 30
M  V30 34 1 1 31
M  V30 35 1 1 32
M  V30 36 1 4 33
M  V30 37 1 5 34
M  V30 38 1 11 35
M  V30 39 1 14 36
M  V30 40 1 15 37
M  V30 41 1 15 38
M  V30 42 1 16 39
M  V30 43 1 16 40
M  V30 44 1 17 41
M  V30 45 1 21 42
M  V30 46 1 22 43
M  V30 47 1 25 44
M  V30 48 1 25 45
M  V30 49 1 25 46
M  V30 50 1 26 47
M  V30 51 1 27 48
M  V30 52 1 28 49
M  V30 53 1 29 50
M  V30 END BOND
M  V30 END CTAB
M  END
>  <Dataset>  (253) 
ChEMBL_Kinases

>  <Ligand_Instance>  (253) 
nan

>  <PDB_ID>  (253) 
nan

>  <Standardized_SMILES>  (253) 
COc1ccc(-c2oc3ncnc(NCCO)c3c2-c2ccc(OC)cc2)cc1

>  <Name>  (253) 
nan

>  <Pocket>  (253) 
nan

>  <ATP_Site>  (253) 
nan

>  <Peripheral>  (253) 
nan

>  <Num_H_Atoms_ProtBoundConf>  (253) 
nan

>  <Num_Resolved_Atoms>  (253) 
nan

>  <Num_Not_Resolved_Atoms>  (253) 
nan

$$$$
CHEMBL190180
     RDKit          3D

  0  0  0  0  0  0  0  0  0  0999 V3000
M  V30 BEGIN CTAB
M  V30 COUNTS 45 48 0 0 0
M  V30 BEGIN ATOM
M  V30 1 C -2.645388 -4.886058 -2.537259 0
M  V30 2 N -1.576821 -3.947762 -2.267760 0
M  V30 3 C -1.056911 -3.996408 -0.943967 0
M  V30 4 C -1.682297 -3.053417 0.037472 0
M  V30 5 C -1.740179 -1.632616 -0.482202 0
M  V30 6 C -0.939166 -0.707266 0.374167 0
M  V30 7 N 0.272157 -0.640157 0.693247 0
M  V30 8 C 0.682600 0.332451 1.497616 0
M  V30 9 C 2.134093 0.295012 1.787993 0
M  V30 10 C 2.849641 1.000434 0.815638 0
M  V30 11 C 4.221911 1.117227 0.857588 0
M  V30 12 C 4.895602 0.511664 1.900691 0
M  V30 13 F 6.237406 0.608585 1.967875 0
M  V30 14 C 4.187135 -0.182564 2.856652 0
M  V30 15 C 2.814666 -0.295274 2.808303 0
M  V30 16 C -0.167930 1.287120 2.008113 0
M  V30 17 C 0.189861 2.349415 2.865400 0
M  V30 18 C -0.001357 3.682674 2.491704 0
M  V30 19 C 0.361751 4.692104 3.353475 0
M  V30 20 N 0.904271 4.484728 4.567289 0
M  V30 21 C 1.094056 3.191765 4.939573 0
M  V30 22 C 0.745454 2.128361 4.108284 0
M  V30 23 S -1.800805 0.751514 1.251810 0
M  V30 24 C -1.130644 -1.644353 -1.843942 0
M  V30 25 C -1.951568 -2.608498 -2.673348 0
M  V30 26 H -3.647853 -4.428311 -2.422298 0
M  V30 27 H -2.483272 -5.786389 -1.930567 0
M  V30 28 H -2.534821 -5.207261 -3.598485 0
M  V30 29 H -1.236051 -5.023996 -0.547962 0
M  V30 30 H 0.048087 -3.891506 -0.992733 0
M  V30 31 H -2.695861 -3.419583 0.271051 0
M  V30 32 H -1.035343 -3.040405 0.949098 0
M  V30 33 H -2.793369 -1.326299 -0.551931 0
M  V30 34 H 2.413361 1.514479 -0.049064 0
M  V30 35 H 4.803347 1.659257 0.115259 0
M  V30 36 H 4.665729 -0.671098 3.687935 0
M  V30 37 H 2.157209 -0.808684 3.494048 0
M  V30 38 H -0.424846 3.964711 1.549892 0
M  V30 39 H 0.251902 5.769332 3.151497 0
M  V30 40 H 1.537344 3.000612 5.929462 0
M  V30 41 H 0.938030 1.125283 4.499842 0
M  V30 42 H -0.069606 -2.015786 -1.787810 0
M  V30 43 H -1.122557 -0.656296 -2.337837 0
M  V30 44 H -1.800284 -2.459955 -3.757458 0
M  V30 45 H -3.039852 -2.509789 -2.386204 0
M  V30 END ATOM
M  V30 BEGIN BOND
M  V30 1 1 1 2
M  V30 2 1 2 3
M  V30 3 1 3 4
M  V30 4 1 4 5
M  V30 5 1 5 6
M  V30 6 2 6 7
M  V30 7 1 7 8
M  V30 8 1 8 9
M  V30 9 2 9 10
M  V30 10 1 10 11
M  V30 11 2 11 12
M  V30 12 1 12 13
M  V30 13 1 12 14
M  V30 14 2 14 15
M  V30 15 2 8 16
M  V30 16 1 16 17
M  V30 17 2 17 18
M  V30 18 1 18 19
M  V30 19 2 19 20
M  V30 20 1 20 21
M  V30 21 2 21 22
M  V30 22 1 16 23
M  V30 23 1 5 24
M  V30 24 1 24 25
M  V30 25 1 25 2
M  V30 26 1 23 6
M  V30 27 1 15 9
M  V30 28 1 22 17
M  V30 29 1 1 26
M  V30 30 1 1 27
M  V30 31 1 1 28
M  V30 32 1 3 29
M  V30 33 1 3 30
M  V30 34 1 4 31
M  V30 35 1 4 32
M  V30 36 1 5 33
M  V30 37 1 10 34
M  V30 38 1 11 35
M  V30 39 1 14 36
M  V30 40 1 15 37
M  V30 41 1 18 38
M  V30 42 1 19 39
M  V30 43 1 21 40
M  V30 44 1 22 41
M  V30 45 1 24 42
M  V30 46 1 24 43
M  V30 47 1 25 44
M  V30 48 1 25 45
M  V30 END BOND
M  V30 END CTAB
M  END
>  <Dataset>  (254) 
ChEMBL_Kinases

>  <Ligand_Instance>  (254) 
nan

>  <PDB_ID>  (254) 
nan

>  <Standardized_SMILES>  (254) 
CN1CCC(c2nc(-c3ccc(F)cc3)c(-c3ccncc3)s2)CC1

>  <Name>  (254) 
nan

>  <Pocket>  (254) 
nan

>  <ATP_Site>  (254) 
nan

>  <Peripheral>  (254) 
nan

>  <Num_H_Atoms_ProtBoundConf>  (254) 
nan

>  <Num_Resolved_Atoms>  (254) 
nan

>  <Num_Not_Resolved_Atoms>  (254) 
nan

$$$$
CHEMBL190035
     RDKit          3D

  0  0  0  0  0  0  0  0  0  0999 V3000
M  V30 BEGIN CTAB
M  V30 COUNTS 19 19 0 0 0
M  V30 BEGIN ATOM
M  V30 1 O 0.188262 -2.383476 2.729977 0
M  V30 2 C 0.374931 -1.175927 3.084138 0
M  V30 3 O -0.603766 -0.632555 3.976867 0
M  V30 4 C 1.557044 -0.405289 2.588205 0
M  V30 5 C 1.302729 0.085897 1.196938 0
M  V30 6 C 1.508218 1.445528 0.902919 0
M  V30 7 C 1.242032 1.878090 -0.386795 0
M  V30 8 C 0.780139 1.030125 -1.402637 0
M  V30 9 C 0.590612 -0.315283 -1.054761 0
M  V30 10 O 0.140380 -1.052403 -2.103147 0
M  V30 11 C 0.849057 -0.772138 0.213853 0
M  V30 12 H -1.562399 -0.936987 3.852502 0
M  V30 13 H 1.643081 0.502320 3.239863 0
M  V30 14 H 2.493112 -0.974899 2.658455 0
M  V30 15 H 1.872636 2.108701 1.658850 0
M  V30 16 H 1.429521 2.965128 -0.534990 0
M  V30 17 H 0.608670 1.476621 -2.343812 0
M  V30 18 H 0.697058 -1.713472 -2.570453 0
M  V30 19 H 0.687180 -1.838353 0.424956 0
M  V30 END ATOM
M  V30 BEGIN BOND
M  V30 1 2 1 2
M  V30 2 1 2 3
M  V30 3 1 2 4
M  V30 4 1 4 5
M  V30 5 2 5 6
M  V30 6 1 6 7
M  V30 7 2 7 8
M  V30 8 1 8 9
M  V30 9 1 9 10
M  V30 10 2 9 11
M  V30 11 1 11 5
M  V30 12 1 3 12
M  V30 13 1 4 13
M  V30 14 1 4 14
M  V30 15 1 6 15
M  V30 16 1 7 16
M  V30 17 1 8 17
M  V30 18 1 10 18
M  V30 19 1 11 19
M  V30 END BOND
M  V30 END CTAB
M  END
>  <Dataset>  (255) 
ChEMBL_Kinases

>  <Ligand_Instance>  (255) 
nan

>  <PDB_ID>  (255) 
nan

>  <Standardized_SMILES>  (255) 
O=C(O)Cc1cccc(O)c1

>  <Name>  (255) 
3-Hydroxyphenylacetate

>  <Pocket>  (255) 
nan

>  <ATP_Site>  (255) 
nan

>  <Peripheral>  (255) 
nan

>  <Num_H_Atoms_ProtBoundConf>  (255) 
nan

>  <Num_Resolved_Atoms>  (255) 
nan

>  <Num_Not_Resolved_Atoms>  (255) 
nan

$$$$
CHEMBL189936
     RDKit          3D

  0  0  0  0  0  0  0  0  0  0999 V3000
M  V30 BEGIN CTAB
M  V30 COUNTS 46 49 0 0 0
M  V30 BEGIN ATOM
M  V30 1 C -2.887951 -4.379680 0.711194 0
M  V30 2 N -3.098558 -3.330085 -0.278269 0
M  V30 3 C -1.915993 -3.275958 -1.079036 0
M  V30 4 C -1.824479 -2.082259 -1.990660 0
M  V30 5 C -2.105293 -0.809787 -1.246158 0
M  V30 6 C -0.888546 -0.387372 -0.475772 0
M  V30 7 C -0.046687 0.703258 -0.564793 0
M  V30 8 C 0.995293 0.768598 0.325934 0
M  V30 9 C 1.909818 1.931083 0.243340 0
M  V30 10 C 3.239492 1.967217 -0.108716 0
M  V30 11 C 3.873129 3.190861 -0.103213 0
M  V30 12 N 3.277316 4.342326 0.222227 0
M  V30 13 C 1.973365 4.330234 0.570733 0
M  V30 14 C 1.273468 3.129102 0.586253 0
M  V30 15 C 1.134932 -0.228493 1.229272 0
M  V30 16 C 2.093031 -0.470400 2.281599 0
M  V30 17 C 1.510629 -0.415301 3.554638 0
M  V30 18 C 2.240935 -0.619552 4.714804 0
M  V30 19 C 3.589354 -0.886166 4.602053 0
M  V30 20 F 4.385063 -1.099605 5.684429 0
M  V30 21 C 4.187714 -0.946111 3.362025 0
M  V30 22 C 3.440782 -0.739850 2.228626 0
M  V30 23 S -0.221109 -1.328890 0.861307 0
M  V30 24 C -3.325770 -0.881143 -0.379963 0
M  V30 25 C -3.413611 -2.130250 0.441516 0
M  V30 26 H -3.030144 -5.392606 0.306221 0
M  V30 27 H -3.586057 -4.200709 1.550176 0
M  V30 28 H -1.859436 -4.314151 1.156078 0
M  V30 29 H -0.980846 -3.380880 -0.466302 0
M  V30 30 H -1.940455 -4.173584 -1.749254 0
M  V30 31 H -2.597727 -2.195234 -2.778324 0
M  V30 32 H -0.802142 -2.066285 -2.392900 0
M  V30 33 H -2.265548 -0.021855 -2.001902 0
M  V30 34 H -0.320908 1.392667 -1.349979 0
M  V30 35 H 3.634579 1.011012 -0.354566 0
M  V30 36 H 4.918250 3.156606 -0.388928 0
M  V30 37 H 1.534945 5.290182 0.826143 0
M  V30 38 H 0.241379 3.268676 0.883614 0
M  V30 39 H 0.449886 -0.210897 3.745852 0
M  V30 40 H 1.794817 -0.577880 5.698778 0
M  V30 41 H 5.248161 -1.150523 3.167203 0
M  V30 42 H 3.820173 -0.769019 1.219995 0
M  V30 43 H -3.290314 -0.015691 0.316215 0
M  V30 44 H -4.232670 -0.767010 -1.021239 0
M  V30 45 H -2.778401 -2.068543 1.334260 0
M  V30 46 H -4.465569 -2.212525 0.793389 0
M  V30 END ATOM
M  V30 BEGIN BOND
M  V30 1 1 1 2
M  V30 2 1 2 3
M  V30 3 1 3 4
M  V30 4 1 4 5
M  V30 5 1 5 6
M  V30 6 2 6 7
M  V30 7 1 7 8
M  V30 8 1 8 9
M  V30 9 2 9 10
M  V30 10 1 10 11
M  V30 11 2 11 12
M  V30 12 1 12 13
M  V30 13 2 13 14
M  V30 14 2 8 15
M  V30 15 1 15 16
M  V30 16 2 16 17
M  V30 17 1 17 18
M  V30 18 2 18 19
M  V30 19 1 19 20
M  V30 20 1 19 21
M  V30 21 2 21 22
M  V30 22 1 15 23
M  V30 23 1 5 24
M  V30 24 1 24 25
M  V30 25 1 25 2
M  V30 26 1 23 6
M  V30 27 1 14 9
M  V30 28 1 22 16
M  V30 29 1 1 26
M  V30 30 1 1 27
M  V30 31 1 1 28
M  V30 32 1 3 29
M  V30 33 1 3 30
M  V30 34 1 4 31
M  V30 35 1 4 32
M  V30 36 1 5 33
M  V30 37 1 7 34
M  V30 38 1 10 35
M  V30 39 1 11 36
M  V30 40 1 13 37
M  V30 41 1 14 38
M  V30 42 1 17 39
M  V30 43 1 18 40
M  V30 44 1 21 41
M  V30 45 1 22 42
M  V30 46 1 24 43
M  V30 47 1 24 44
M  V30 48 1 25 45
M  V30 49 1 25 46
M  V30 END BOND
M  V30 END CTAB
M  END
>  <Dataset>  (256) 
ChEMBL_Kinases

>  <Ligand_Instance>  (256) 
nan

>  <PDB_ID>  (256) 
nan

>  <Standardized_SMILES>  (256) 
CN1CCC(c2cc(-c3ccncc3)c(-c3ccc(F)cc3)s2)CC1

>  <Name>  (256) 
nan

>  <Pocket>  (256) 
nan

>  <ATP_Site>  (256) 
nan

>  <Peripheral>  (256) 
nan

>  <Num_H_Atoms_ProtBoundConf>  (256) 
nan

>  <Num_Resolved_Atoms>  (256) 
nan

>  <Num_Not_Resolved_Atoms>  (256) 
nan

$$$$
CHEMBL189902
     RDKit          3D

  0  0  0  0  0  0  0  0  0  0999 V3000
M  V30 BEGIN CTAB
M  V30 COUNTS 51 54 0 0 0
M  V30 BEGIN ATOM
M  V30 1 C -1.655290 -3.261379 4.050896 0
M  V30 2 O -0.857925 -3.122093 2.891268 0
M  V30 3 C 0.163191 -2.186686 2.839100 0
M  V30 4 C 0.512261 -1.312461 3.858661 0
M  V30 5 C 1.544617 -0.391829 3.766726 0
M  V30 6 C 2.239335 -0.396923 2.539932 0
M  V30 7 O 3.258756 0.506423 2.464253 0
M  V30 8 C 3.616631 1.391859 3.490944 0
M  V30 9 C 1.880841 -1.260724 1.541712 0
M  V30 10 C 2.691059 -1.008546 0.308504 0
M  V30 11 N 2.012891 0.059420 -0.440795 0
M  V30 12 C 1.396619 1.288100 -0.124745 0
M  V30 13 N 1.684171 2.408170 0.552729 0
M  V30 14 N 0.683887 3.264553 0.569756 0
M  V30 15 C -0.351998 2.739760 -0.119966 0
M  V30 16 C -1.573256 3.288588 -0.365732 0
M  V30 17 C -2.471349 2.576593 -1.117269 0
M  V30 18 C -2.089176 1.331379 -1.590253 0
M  V30 19 N -3.057600 0.645502 -2.359202 0 CHG=1 VAL=4
M  V30 20 O -3.193098 -0.145375 -3.285122 0
M  V30 21 O -4.416291 0.793815 -2.130879 0 CHG=-1 VAL=1
M  V30 22 C -0.818372 0.813273 -1.306148 0
M  V30 23 O -0.617747 -0.399922 -1.850164 0
M  V30 24 C -0.979466 -1.650331 -1.494976 0
M  V30 25 C -1.766264 -2.244305 -0.520591 0
M  V30 26 C -1.910097 -3.613707 -0.466543 0
M  V30 27 C -1.277642 -4.442356 -1.375509 0
M  V30 28 C -0.485568 -3.904854 -2.361045 0
M  V30 29 C -0.346060 -2.507562 -2.409524 0
M  V30 30 C 0.089988 1.523669 -0.549092 0
M  V30 31 C 0.854209 -2.175014 1.639817 0
M  V30 32 H -2.671113 -3.684451 3.820285 0
M  V30 33 H -1.204979 -3.865648 4.845926 0
M  V30 34 H -1.894375 -2.245904 4.481201 0
M  V30 35 H -0.095923 -1.402931 4.771584 0
M  V30 36 H 1.653077 0.183951 4.651759 0
M  V30 37 H 3.517630 0.862607 4.458320 0
M  V30 38 H 2.922024 2.275898 3.536157 0
M  V30 39 H 4.668173 1.751050 3.391076 0
M  V30 40 H 3.742281 -0.779238 0.522687 0
M  V30 41 H 2.655644 -1.945277 -0.276113 0
M  V30 42 H 1.995514 -0.150121 -1.492515 0
M  V30 43 H 2.596058 2.587689 1.002218 0
M  V30 44 H -1.840337 4.257170 0.018632 0
M  V30 45 H -3.422482 3.004857 -1.302958 0
M  V30 46 H -2.178054 -1.467642 0.098144 0
M  V30 47 H -2.547950 -3.943383 0.341292 0
M  V30 48 H -1.445977 -5.513919 -1.260047 0
M  V30 49 H -0.035263 -4.628068 -3.021155 0
M  V30 50 H 0.320200 -2.279034 -3.261576 0
M  V30 51 H 0.752296 -2.751353 0.753003 0
M  V30 END ATOM
M  V30 BEGIN BOND
M  V30 1 1 1 2
M  V30 2 1 2 3
M  V30 3 2 3 4
M  V30 4 1 4 5
M  V30 5 2 5 6
M  V30 6 1 6 7
M  V30 7 1 7 8
M  V30 8 1 6 9
M  V30 9 1 9 10
M  V30 10 1 10 11
M  V30 11 1 11 12
M  V30 12 1 12 13
M  V30 13 1 13 14
M  V30 14 2 14 15
M  V30 15 1 15 16
M  V30 16 2 16 17
M  V30 17 1 17 18
M  V30 18 1 18 19
M  V30 19 2 19 20
M  V30 20 1 19 21
M  V30 21 2 18 22
M  V30 22 1 22 23
M  V30 23 1 23 24
M  V30 24 2 24 25
M  V30 25 1 25 26
M  V30 26 2 26 27
M  V30 27 1 27 28
M  V30 28 2 28 29
M  V30 29 1 22 30
M  V30 30 2 9 31
M  V30 31 1 31 3
M  V30 32 2 30 12
M  V30 33 1 30 15
M  V30 34 1 29 24
M  V30 35 1 1 32
M  V30 36 1 1 33
M  V30 37 1 1 34
M  V30 38 1 4 35
M  V30 39 1 5 36
M  V30 40 1 8 37
M  V30 41 1 8 38
M  V30 42 1 8 39
M  V30 43 1 10 40
M  V30 44 1 10 41
M  V30 45 1 11 42
M  V30 46 1 13 43
M  V30 47 1 16 44
M  V30 48 1 17 45
M  V30 49 1 25 46
M  V30 50 1 26 47
M  V30 51 1 27 48
M  V30 52 1 28 49
M  V30 53 1 29 50
M  V30 54 1 31 51
M  V30 END BOND
M  V30 END CTAB
M  END
>  <Dataset>  (257) 
ChEMBL_Kinases

>  <Ligand_Instance>  (257) 
nan

>  <PDB_ID>  (257) 
nan

>  <Standardized_SMILES>  (257) 
COc1ccc(OC)c(CNc2[nH]nc3ccc([N+](=O)[O-])c(Oc4ccccc4)c23)c1

>  <Name>  (257) 
nan

>  <Pocket>  (257) 
nan

>  <ATP_Site>  (257) 
nan

>  <Peripheral>  (257) 
nan

>  <Num_H_Atoms_ProtBoundConf>  (257) 
nan

>  <Num_Resolved_Atoms>  (257) 
nan

>  <Num_Not_Resolved_Atoms>  (257) 
nan

$$$$
CHEMBL189874
     RDKit          3D

  0  0  0  0  0  0  0  0  0  0999 V3000
M  V30 BEGIN CTAB
M  V30 COUNTS 47 51 0 0 0
M  V30 BEGIN ATOM
M  V30 1 F 5.882944 -3.727898 -0.556460 0
M  V30 2 C 5.017866 -4.435433 0.271070 0
M  V30 3 F 5.615526 -4.527811 1.517629 0
M  V30 4 F 4.851827 -5.678892 -0.309407 0
M  V30 5 C 3.751006 -3.682507 0.407645 0
M  V30 6 C 3.580827 -2.479886 -0.236231 0
M  V30 7 C 2.424975 -1.726761 -0.151065 0
M  V30 8 N 2.295754 -0.494937 -0.833165 0
M  V30 9 C 1.210163 0.391030 -0.867781 0
M  V30 10 N 1.275405 1.512913 -1.578971 0
M  V30 11 C 0.298741 2.422224 -1.679190 0
M  V30 12 C -0.880360 2.208333 -1.003880 0
M  V30 13 C -0.985643 1.061877 -0.259216 0
M  V30 14 C -2.120730 0.617929 0.532675 0
M  V30 15 C -1.987988 0.479396 1.920114 0
M  V30 16 C -0.812012 0.729837 2.747938 0
M  V30 17 C -0.453191 2.078354 2.666334 0
M  V30 18 C 0.645522 2.569201 3.371607 0
M  V30 19 C 1.380558 1.701994 4.157442 0
M  V30 20 Cl 2.779639 2.242210 5.077528 0
M  V30 21 C 1.015277 0.373809 4.228940 0
M  V30 22 C -0.065847 -0.119712 3.537664 0
M  V30 23 N -3.197930 0.053529 2.384350 0
M  V30 24 N -4.040207 -0.070495 1.368704 0
M  V30 25 N -5.322193 -0.445046 1.261050 0
M  V30 26 C -5.961509 -0.486104 0.073234 0
M  V30 27 C -5.332608 -0.144033 -1.105582 0
M  V30 28 C -3.998311 0.251801 -1.040147 0
M  V30 29 C -3.429436 0.262578 0.216873 0
M  V30 30 N 0.048813 0.219481 -0.226297 0
M  V30 31 C 1.468306 -2.302630 0.640502 0
M  V30 32 C 1.562871 -3.497660 1.315014 0
M  V30 33 C 2.761526 -4.203557 1.181329 0
M  V30 34 Cl 2.975144 -5.730354 2.001077 0
M  V30 35 H 4.416750 -2.134019 -0.833497 0
M  V30 36 H 3.154310 -0.214416 -1.396308 0
M  V30 37 H 0.384701 3.321153 -2.264967 0
M  V30 38 H -1.743975 2.851106 -0.994258 0
M  V30 39 H -0.945337 2.862286 2.086820 0
M  V30 40 H 0.967086 3.592740 3.347085 0
M  V30 41 H 1.549633 -0.350648 4.825340 0
M  V30 42 H -0.453497 -1.126255 3.508545 0
M  V30 43 H -6.989735 -0.799112 0.085351 0
M  V30 44 H -5.845130 -0.175654 -2.067369 0
M  V30 45 H -3.458135 0.528098 -1.921550 0
M  V30 46 H 0.520445 -1.814687 0.788323 0
M  V30 47 H 0.778241 -3.907642 1.926757 0
M  V30 END ATOM
M  V30 BEGIN BOND
M  V30 1 1 1 2
M  V30 2 1 2 3
M  V30 3 1 2 4
M  V30 4 1 2 5
M  V30 5 2 5 6
M  V30 6 1 6 7
M  V30 7 1 7 8
M  V30 8 1 8 9
M  V30 9 2 9 10
M  V30 10 1 10 11
M  V30 11 2 11 12
M  V30 12 1 12 13
M  V30 13 1 13 14
M  V30 14 1 14 15
M  V30 15 1 15 16
M  V30 16 2 16 17
M  V30 17 1 17 18
M  V30 18 2 18 19
M  V30 19 1 19 20
M  V30 20 1 19 21
M  V30 21 2 21 22
M  V30 22 2 15 23
M  V30 23 1 23 24
M  V30 24 1 24 25
M  V30 25 2 25 26
M  V30 26 1 26 27
M  V30 27 2 27 28
M  V30 28 1 28 29
M  V30 29 2 13 30
M  V30 30 2 7 31
M  V30 31 1 31 32
M  V30 32 2 32 33
M  V30 33 1 33 34
M  V30 34 1 33 5
M  V30 35 1 30 9
M  V30 36 2 29 14
M  V30 37 1 22 16
M  V30 38 1 29 24
M  V30 39 1 6 35
M  V30 40 1 8 36
M  V30 41 1 11 37
M  V30 42 1 12 38
M  V30 43 1 17 39
M  V30 44 1 18 40
M  V30 45 1 21 41
M  V30 46 1 22 42
M  V30 47 1 26 43
M  V30 48 1 27 44
M  V30 49 1 28 45
M  V30 50 1 31 46
M  V30 51 1 32 47
M  V30 END BOND
M  V30 END CTAB
M  END
>  <Dataset>  (258) 
ChEMBL_Kinases

>  <Ligand_Instance>  (258) 
nan

>  <PDB_ID>  (258) 
nan

>  <Standardized_SMILES>  (258) 
FC(F)(F)c1cc(Nc2nccc(-c3c(-c4ccc(Cl)cc4)nn4ncccc34)n2)ccc1Cl

>  <Name>  (258) 
nan

>  <Pocket>  (258) 
nan

>  <ATP_Site>  (258) 
nan

>  <Peripheral>  (258) 
nan

>  <Num_H_Atoms_ProtBoundConf>  (258) 
nan

>  <Num_Resolved_Atoms>  (258) 
nan

>  <Num_Not_Resolved_Atoms>  (258) 
nan

$$$$
CHEMBL189852
     RDKit          3D

  0  0  0  0  0  0  0  0  0  0999 V3000
M  V30 BEGIN CTAB
M  V30 COUNTS 40 43 0 0 0
M  V30 BEGIN ATOM
M  V30 1 N 0.576059 3.403395 3.727048 0
M  V30 2 C 0.550319 2.722322 2.792899 0
M  V30 3 C 0.514576 1.878234 1.632932 0
M  V30 4 C 1.601783 1.283105 1.163091 0
M  V30 5 N 1.790190 0.433706 0.064796 0
M  V30 6 C 3.085299 -0.003333 -0.152943 0
M  V30 7 C 3.565748 -0.834956 -1.156601 0
M  V30 8 C 4.908810 -1.151750 -1.208825 0
M  V30 9 C 5.805401 -0.664842 -0.286324 0
M  V30 10 C 5.371821 0.161296 0.723209 0
M  V30 11 C 4.027957 0.451039 0.738742 0
M  V30 12 S 3.193214 1.502862 1.953447 0
M  V30 13 C -0.749601 1.660808 0.959816 0
M  V30 14 C -1.572924 2.761167 0.817173 0
M  V30 15 C -2.793553 2.633866 0.193825 0
M  V30 16 N -3.153418 1.430079 -0.262324 0
M  V30 17 C -2.372533 0.338162 -0.137243 0
M  V30 18 N -2.748638 -0.935037 -0.614529 0
M  V30 19 C -2.049436 -2.183551 -0.517350 0
M  V30 20 C -1.822456 -2.617151 0.887211 0
M  V30 21 C -0.743985 -2.394470 1.716879 0
M  V30 22 C -0.784155 -2.902328 3.000880 0
M  V30 23 N -1.839077 -3.604490 3.463749 0
M  V30 24 C -2.927977 -3.849463 2.677958 0
M  V30 25 C -2.879108 -3.339942 1.401370 0
M  V30 26 N -1.196009 0.523036 0.477214 0
M  V30 27 H 0.940888 0.193364 -0.508808 0
M  V30 28 H 2.972770 -1.275723 -1.931441 0
M  V30 29 H 5.364154 -1.791011 -1.956927 0
M  V30 30 H 6.878398 -0.895247 -0.295760 0
M  V30 31 H 6.066023 0.545851 1.448991 0
M  V30 32 H -1.256636 3.744907 1.200728 0
M  V30 33 H -3.457452 3.465661 0.064565 0
M  V30 34 H -3.688698 -0.965635 -1.118780 0
M  V30 35 H -1.028787 -2.057435 -0.987487 0
M  V30 36 H -2.526838 -2.970538 -1.100545 0
M  V30 37 H 0.046023 -1.831606 1.260300 0
M  V30 38 H 0.070970 -2.712755 3.627027 0
M  V30 39 H -3.737387 -4.413682 3.102810 0
M  V30 40 H -3.798253 -3.586361 0.845054 0
M  V30 END ATOM
M  V30 BEGIN BOND
M  V30 1 3 1 2
M  V30 2 1 2 3
M  V30 3 2 3 4
M  V30 4 1 4 5
M  V30 5 1 5 6
M  V30 6 2 6 7
M  V30 7 1 7 8
M  V30 8 2 8 9
M  V30 9 1 9 10
M  V30 10 2 10 11
M  V30 11 1 11 12
M  V30 12 1 3 13
M  V30 13 2 13 14
M  V30 14 1 14 15
M  V30 15 2 15 16
M  V30 16 1 16 17
M  V30 17 1 17 18
M  V30 18 1 18 19
M  V30 19 1 19 20
M  V30 20 2 20 21
M  V30 21 1 21 22
M  V30 22 2 22 23
M  V30 23 1 23 24
M  V30 24 2 24 25
M  V30 25 2 17 26
M  V30 26 1 12 4
M  V30 27 1 26 13
M  V30 28 1 11 6
M  V30 29 1 25 20
M  V30 30 1 5 27
M  V30 31 1 7 28
M  V30 32 1 8 29
M  V30 33 1 9 30
M  V30 34 1 10 31
M  V30 35 1 14 32
M  V30 36 1 15 33
M  V30 37 1 18 34
M  V30 38 1 19 35
M  V30 39 1 19 36
M  V30 40 1 21 37
M  V30 41 1 22 38
M  V30 42 1 24 39
M  V30 43 1 25 40
M  V30 END BOND
M  V30 END CTAB
M  END
>  <Dataset>  (259) 
ChEMBL_Kinases

>  <Ligand_Instance>  (259) 
nan

>  <PDB_ID>  (259) 
nan

>  <Standardized_SMILES>  (259) 
N#C/C(=C1/Nc2ccccc2S1)c1ccnc(NCc2ccncc2)n1

>  <Name>  (259) 
nan

>  <Pocket>  (259) 
nan

>  <ATP_Site>  (259) 
nan

>  <Peripheral>  (259) 
nan

>  <Num_H_Atoms_ProtBoundConf>  (259) 
nan

>  <Num_Resolved_Atoms>  (259) 
nan

>  <Num_Not_Resolved_Atoms>  (259) 
nan

$$$$
CHEMBL189841
     RDKit          3D

  0  0  0  0  0  0  0  0  0  0999 V3000
M  V30 BEGIN CTAB
M  V30 COUNTS 44 47 0 0 0
M  V30 BEGIN ATOM
M  V30 1 N 3.549976 0.590099 5.068470 0
M  V30 2 C 3.059132 0.709980 4.004125 0
M  V30 3 C 2.450924 0.874939 2.716448 0
M  V30 4 C 3.080399 0.496588 1.629041 0
M  V30 5 N 2.696656 0.555748 0.264232 0
M  V30 6 C 3.622365 0.063373 -0.659432 0
M  V30 7 C 3.476327 0.027608 -2.052665 0
M  V30 8 C 4.515104 -0.488738 -2.798876 0
M  V30 9 C 5.678248 -0.968061 -2.258591 0
M  V30 10 C 5.842730 -0.942472 -0.890858 0
M  V30 11 C 4.806387 -0.427046 -0.149117 0
M  V30 12 S 4.707816 -0.248759 1.641670 0
M  V30 13 C 1.111954 1.452395 2.633533 0
M  V30 14 C 0.703141 2.553087 3.394345 0
M  V30 15 C -0.580888 2.973758 3.223545 0
M  V30 16 N -1.456266 2.381360 2.366212 0
M  V30 17 C -1.050330 1.304915 1.624824 0
M  V30 18 N -1.916414 0.645567 0.712904 0
M  V30 19 C -1.535332 -0.526826 -0.074485 0
M  V30 20 C -1.201815 -1.631241 0.901795 0
M  V30 21 C -2.414166 -1.928824 1.750144 0
M  V30 22 N -3.517778 -2.353925 0.915059 0
M  V30 23 C -3.615831 -3.693422 0.676713 0
M  V30 24 C -4.734011 -3.888772 -0.137617 0
M  V30 25 N -5.263079 -2.678822 -0.358352 0
M  V30 26 C -4.525430 -1.759917 0.278627 0
M  V30 27 N 0.214747 0.908682 1.808166 0
M  V30 28 H 1.759586 0.961059 0.047233 0
M  V30 29 H 2.609346 0.374873 -2.598637 0
M  V30 30 H 4.442362 -0.533649 -3.884794 0
M  V30 31 H 6.498179 -1.376839 -2.863207 0
M  V30 32 H 6.734754 -1.304479 -0.408919 0
M  V30 33 H 1.436395 2.984494 4.057685 0
M  V30 34 H -0.894511 3.819699 3.808366 0
M  V30 35 H -2.894193 1.008291 0.584528 0
M  V30 36 H -2.338410 -0.846028 -0.744010 0
M  V30 37 H -0.657580 -0.283749 -0.727134 0
M  V30 38 H -0.334496 -1.371446 1.533753 0
M  V30 39 H -0.902494 -2.522647 0.304717 0
M  V30 40 H -2.745668 -0.964315 2.225157 0
M  V30 41 H -2.167105 -2.615182 2.562264 0
M  V30 42 H -3.026422 -4.539609 0.985731 0
M  V30 43 H -5.194355 -4.764235 -0.574279 0
M  V30 44 H -4.632068 -0.698331 0.339273 0
M  V30 END ATOM
M  V30 BEGIN BOND
M  V30 1 3 1 2
M  V30 2 1 2 3
M  V30 3 2 3 4
M  V30 4 1 4 5
M  V30 5 1 5 6
M  V30 6 2 6 7
M  V30 7 1 7 8
M  V30 8 2 8 9
M  V30 9 1 9 10
M  V30 10 2 10 11
M  V30 11 1 11 12
M  V30 12 1 3 13
M  V30 13 2 13 14
M  V30 14 1 14 15
M  V30 15 2 15 16
M  V30 16 1 16 17
M  V30 17 1 17 18
M  V30 18 1 18 19
M  V30 19 1 19 20
M  V30 20 1 20 21
M  V30 21 1 21 22
M  V30 22 1 22 23
M  V30 23 2 23 24
M  V30 24 1 24 25
M  V30 25 2 25 26
M  V30 26 2 17 27
M  V30 27 1 12 4
M  V30 28 1 27 13
M  V30 29 1 11 6
M  V30 30 1 26 22
M  V30 31 1 5 28
M  V30 32 1 7 29
M  V30 33 1 8 30
M  V30 34 1 9 31
M  V30 35 1 10 32
M  V30 36 1 14 33
M  V30 37 1 15 34
M  V30 38 1 18 35
M  V30 39 1 19 36
M  V30 40 1 19 37
M  V30 41 1 20 38
M  V30 42 1 20 39
M  V30 43 1 21 40
M  V30 44 1 21 41
M  V30 45 1 23 42
M  V30 46 1 24 43
M  V30 47 1 26 44
M  V30 END BOND
M  V30 END CTAB
M  END
>  <Dataset>  (260) 
ChEMBL_Kinases

>  <Ligand_Instance>  (260) 
nan

>  <PDB_ID>  (260) 
nan

>  <Standardized_SMILES>  (260) 
N#C/C(=C1/Nc2ccccc2S1)c1ccnc(NCCCn2ccnc2)n1

>  <Name>  (260) 
nan

>  <Pocket>  (260) 
nan

>  <ATP_Site>  (260) 
nan

>  <Peripheral>  (260) 
nan

>  <Num_H_Atoms_ProtBoundConf>  (260) 
nan

>  <Num_Resolved_Atoms>  (260) 
nan

>  <Num_Not_Resolved_Atoms>  (260) 
nan

$$$$
CHEMBL1911195
     RDKit          3D

  0  0  0  0  0  0  0  0  0  0999 V3000
M  V30 BEGIN CTAB
M  V30 COUNTS 51 55 0 0 0
M  V30 BEGIN ATOM
M  V30 1 C 2.570696 -6.693619 2.420575 0
M  V30 2 C 3.325836 -5.512792 1.918605 0
M  V30 3 C 4.702307 -5.454065 1.774594 0
M  V30 4 N 4.968514 -4.207239 1.291747 0
M  V30 5 C 3.824135 -3.526664 1.142854 0
M  V30 6 C 3.688866 -2.156775 0.650332 0
M  V30 7 C 4.781644 -1.402466 0.275457 0
M  V30 8 C 4.572351 -0.116696 -0.179526 0
M  V30 9 C 3.313522 0.435408 -0.271079 0
M  V30 10 C 3.083721 1.817949 -0.758791 0
M  V30 11 C 2.191225 -0.279242 0.091765 0
M  V30 12 C 0.805910 0.183615 0.043017 0
M  V30 13 C 0.139338 0.859746 -0.954540 0
M  V30 14 C -1.184222 1.198937 -0.777279 0
M  V30 15 C -1.873277 0.882741 0.374840 0
M  V30 16 C -1.229601 0.205657 1.390080 0
M  V30 17 C 0.095505 -0.131219 1.206804 0
M  V30 18 N -2.174540 0.018790 2.439298 0
M  V30 19 C -3.428005 0.602378 2.042860 0
M  V30 20 O -4.522738 0.645273 2.700478 0
M  V30 21 C -3.275520 1.187035 0.681097 0
M  V30 22 C -3.591087 2.649751 0.769193 0
M  V30 23 C -5.004714 2.900814 0.305088 0
M  V30 24 O -5.887659 1.917844 0.724188 0
M  V30 25 C -5.632114 0.682667 0.149584 0
M  V30 26 C -4.201411 0.529949 -0.314675 0
M  V30 27 C 2.446060 -1.575334 0.546529 0
M  V30 28 N 2.802619 -4.339815 1.533145 0
M  V30 29 H 2.406883 -6.605748 3.503311 0
M  V30 30 H 3.038556 -7.639661 2.104915 0
M  V30 31 H 1.537736 -6.627632 1.968907 0
M  V30 32 H 5.406359 -6.264691 2.010541 0
M  V30 33 H 5.775455 -1.819812 0.340915 0
M  V30 34 H 5.388467 0.524633 -0.488217 0
M  V30 35 H 3.042281 1.802695 -1.853958 0
M  V30 36 H 3.962406 2.466878 -0.501704 0
M  V30 37 H 2.174275 2.272997 -0.301036 0
M  V30 38 H 0.762554 1.059661 -1.812759 0
M  V30 39 H -1.643991 1.735893 -1.617160 0
M  V30 40 H 0.528654 -0.668110 2.064776 0
M  V30 41 H -1.994086 -0.462195 3.350099 0
M  V30 42 H -2.907864 3.203160 0.079884 0
M  V30 43 H -3.472702 3.081838 1.783184 0
M  V30 44 H -5.034711 3.085508 -0.793056 0
M  V30 45 H -5.335110 3.854275 0.772203 0
M  V30 46 H -5.819589 -0.115472 0.904552 0
M  V30 47 H -6.279171 0.526870 -0.741030 0
M  V30 48 H -3.997786 0.981744 -1.297220 0
M  V30 49 H -3.985625 -0.557955 -0.349758 0
M  V30 50 H 1.604241 -2.184484 0.845647 0
M  V30 51 H 1.783108 -4.099725 1.535384 0
M  V30 END ATOM
M  V30 BEGIN BOND
M  V30 1 1 1 2
M  V30 2 2 2 3
M  V30 3 1 3 4
M  V30 4 2 4 5
M  V30 5 1 5 6
M  V30 6 2 6 7
M  V30 7 1 7 8
M  V30 8 2 8 9
M  V30 9 1 9 10
M  V30 10 1 9 11
M  V30 11 1 11 12
M  V30 12 2 12 13
M  V30 13 1 13 14
M  V30 14 2 14 15
M  V30 15 1 15 16
M  V30 16 2 16 17
M  V30 17 1 16 18
M  V30 18 1 18 19
M  V30 19 2 19 20
M  V30 20 1 19 21
M  V30 21 1 21 22
M  V30 22 1 22 23
M  V30 23 1 23 24
M  V30 24 1 24 25
M  V30 25 1 25 26
M  V30 26 2 11 27
M  V30 27 1 5 28
M  V30 28 1 28 2
M  V30 29 1 27 6
M  V30 30 1 17 12
M  V30 31 1 26 21
M  V30 32 1 21 15
M  V30 33 1 1 29
M  V30 34 1 1 30
M  V30 35 1 1 31
M  V30 36 1 3 32
M  V30 37 1 7 33
M  V30 38 1 8 34
M  V30 39 1 10 35
M  V30 40 1 10 36
M  V30 41 1 10 37
M  V30 42 1 13 38
M  V30 43 1 14 39
M  V30 44 1 17 40
M  V30 45 1 18 41
M  V30 46 1 22 42
M  V30 47 1 22 43
M  V30 48 1 23 44
M  V30 49 1 23 45
M  V30 50 1 25 46
M  V30 51 1 25 47
M  V30 52 1 26 48
M  V30 53 1 26 49
M  V30 54 1 27 50
M  V30 55 1 28 51
M  V30 END BOND
M  V30 END CTAB
M  END
>  <Dataset>  (261) 
ChEMBL_Kinases

>  <Ligand_Instance>  (261) 
nan

>  <PDB_ID>  (261) 
nan

>  <Standardized_SMILES>  (261) 
Cc1cnc(-c2ccc(C)c(-c3ccc4c(c3)NC(=O)C43CCOCC3)c2)[nH]1

>  <Name>  (261) 
nan

>  <Pocket>  (261) 
nan

>  <ATP_Site>  (261) 
nan

>  <Peripheral>  (261) 
nan

>  <Num_H_Atoms_ProtBoundConf>  (261) 
nan

>  <Num_Resolved_Atoms>  (261) 
nan

>  <Num_Not_Resolved_Atoms>  (261) 
nan

$$$$
CHEMBL189045
     RDKit          3D

  0  0  0  0  0  0  0  0  0  0999 V3000
M  V30 BEGIN CTAB
M  V30 COUNTS 37 38 0 0 0
M  V30 BEGIN ATOM
M  V30 1 C 0.536137 -5.233578 5.349735 0
M  V30 2 O 1.392634 -4.921459 4.296963 0
M  V30 3 C 1.204009 -3.928926 3.347986 0
M  V30 4 C 0.124765 -3.074262 3.285986 0
M  V30 5 C 0.035706 -2.106097 2.281429 0
M  V30 6 C 1.055658 -2.029501 1.355359 0
M  V30 7 C 1.016696 -1.039468 0.280595 0
M  V30 8 N 1.944953 -0.871194 -0.675219 0
M  V30 9 N 1.595412 0.109758 -1.484264 0
M  V30 10 C 0.418061 0.583805 -1.041093 0
M  V30 11 N -0.397499 1.651968 -1.564288 0
M  V30 12 C -1.662582 2.147057 -1.068194 0
M  V30 13 C -2.132546 1.493007 0.194417 0
M  V30 14 O -1.275393 1.641921 1.271457 0
M  V30 15 C -0.082701 2.401701 -2.722725 0
M  V30 16 C 1.216128 2.130124 -3.392319 0
M  V30 17 O 2.329597 2.363022 -2.581276 0
M  V30 18 O 0.119030 -0.128360 0.003463 0
M  V30 19 C 2.131011 -2.893141 1.430635 0
M  V30 20 C 2.234363 -3.868239 2.431135 0
M  V30 21 H 0.989509 -5.052733 6.350648 0
M  V30 22 H 0.339393 -6.344863 5.321346 0
M  V30 23 H -0.458241 -4.758151 5.312235 0
M  V30 24 H -0.637885 -3.178456 4.030407 0
M  V30 25 H -0.817218 -1.442589 2.246006 0
M  V30 26 H -1.677674 3.250809 -0.966361 0
M  V30 27 H -2.425154 1.870060 -1.855491 0
M  V30 28 H -2.283327 0.391192 0.072599 0
M  V30 29 H -3.131785 1.890392 0.510399 0
M  V30 30 H -1.801752 1.639443 2.123822 0
M  V30 31 H -0.888482 2.295166 -3.480148 0
M  V30 32 H -0.069428 3.503517 -2.461309 0
M  V30 33 H 1.271299 1.135967 -3.884148 0
M  V30 34 H 1.308170 2.862064 -4.224153 0
M  V30 35 H 2.068370 2.858083 -1.764789 0
M  V30 36 H 2.903811 -2.794066 0.683148 0
M  V30 37 H 3.104605 -4.510393 2.428979 0
M  V30 END ATOM
M  V30 BEGIN BOND
M  V30 1 1 1 2
M  V30 2 1 2 3
M  V30 3 2 3 4
M  V30 4 1 4 5
M  V30 5 2 5 6
M  V30 6 1 6 7
M  V30 7 2 7 8
M  V30 8 1 8 9
M  V30 9 2 9 10
M  V30 10 1 10 11
M  V30 11 1 11 12
M  V30 12 1 12 13
M  V30 13 1 13 14
M  V30 14 1 11 15
M  V30 15 1 15 16
M  V30 16 1 16 17
M  V30 17 1 10 18
M  V30 18 1 6 19
M  V30 19 2 19 20
M  V30 20 1 20 3
M  V30 21 1 18 7
M  V30 22 1 1 21
M  V30 23 1 1 22
M  V30 24 1 1 23
M  V30 25 1 4 24
M  V30 26 1 5 25
M  V30 27 1 12 26
M  V30 28 1 12 27
M  V30 29 1 13 28
M  V30 30 1 13 29
M  V30 31 1 14 30
M  V30 32 1 15 31
M  V30 33 1 15 32
M  V30 34 1 16 33
M  V30 35 1 16 34
M  V30 36 1 17 35
M  V30 37 1 19 36
M  V30 38 1 20 37
M  V30 END BOND
M  V30 END CTAB
M  END
>  <Dataset>  (262) 
ChEMBL_Kinases

>  <Ligand_Instance>  (262) 
nan

>  <PDB_ID>  (262) 
nan

>  <Standardized_SMILES>  (262) 
COc1ccc(-c2nnc(N(CCO)CCO)o2)cc1

>  <Name>  (262) 
nan

>  <Pocket>  (262) 
nan

>  <ATP_Site>  (262) 
nan

>  <Peripheral>  (262) 
nan

>  <Num_H_Atoms_ProtBoundConf>  (262) 
nan

>  <Num_Resolved_Atoms>  (262) 
nan

>  <Num_Not_Resolved_Atoms>  (262) 
nan

$$$$
CHEMBL189094
     RDKit          3D

  0  0  0  0  0  0  0  0  0  0999 V3000
M  V30 BEGIN CTAB
M  V30 COUNTS 29 31 0 0 0
M  V30 BEGIN ATOM
M  V30 1 C -1.664035 -2.439999 0.733879 0
M  V30 2 C -0.482565 -1.955780 1.540176 0
M  V30 3 N 0.237493 -0.870731 0.989018 0
M  V30 4 C 1.237936 -0.884930 0.110098 0
M  V30 5 C 1.934827 -1.902114 -0.645752 0
M  V30 6 N 2.985140 -1.625258 -1.442865 0
M  V30 7 O 3.483440 -2.650178 -2.000479 0
M  V30 8 N 2.800380 -3.710127 -1.619222 0
M  V30 9 C 1.837241 -3.235947 -0.776155 0
M  V30 10 N 0.942919 -4.127854 -0.233813 0
M  V30 11 N 1.569711 0.415330 0.005777 0
M  V30 12 C 0.825723 1.214155 0.769238 0
M  V30 13 C 0.896322 2.579160 0.900233 0
M  V30 14 C -0.017298 3.152681 1.779135 0
M  V30 15 O 0.006611 4.529920 1.952639 0
M  V30 16 C -0.930211 2.345719 2.462575 0
M  V30 17 C -0.947629 0.974971 2.284329 0
M  V30 18 C -0.051220 0.385081 1.418165 0
M  V30 19 H -1.723497 -3.555683 0.664490 0
M  V30 20 H -2.646917 -2.184511 1.228707 0
M  V30 21 H -1.637764 -2.085500 -0.319778 0
M  V30 22 H -0.907040 -1.679683 2.572726 0
M  V30 23 H 0.165614 -2.817609 1.728946 0
M  V30 24 H 0.640713 -4.817415 0.489655 0
M  V30 25 H 0.066274 -4.219708 -0.791049 0
M  V30 26 H 1.615263 3.131370 0.350167 0
M  V30 27 H 0.763893 4.873614 2.557646 0
M  V30 28 H -1.644399 2.801274 3.150627 0
M  V30 29 H -1.634029 0.307350 2.789579 0
M  V30 END ATOM
M  V30 BEGIN BOND
M  V30 1 1 1 2
M  V30 2 1 2 3
M  V30 3 1 3 4
M  V30 4 1 4 5
M  V30 5 2 5 6
M  V30 6 1 6 7
M  V30 7 1 7 8
M  V30 8 2 8 9
M  V30 9 1 9 10
M  V30 10 2 4 11
M  V30 11 1 11 12
M  V30 12 2 12 13
M  V30 13 1 13 14
M  V30 14 1 14 15
M  V30 15 2 14 16
M  V30 16 1 16 17
M  V30 17 2 17 18
M  V30 18 1 18 3
M  V30 19 1 9 5
M  V30 20 1 18 12
M  V30 21 1 1 19
M  V30 22 1 1 20
M  V30 23 1 1 21
M  V30 24 1 2 22
M  V30 25 1 2 23
M  V30 26 1 10 24
M  V30 27 1 10 25
M  V30 28 1 13 26
M  V30 29 1 15 27
M  V30 30 1 16 28
M  V30 31 1 17 29
M  V30 END BOND
M  V30 END CTAB
M  END
>  <Dataset>  (263) 
ChEMBL_Kinases

>  <Ligand_Instance>  (263) 
nan

>  <PDB_ID>  (263) 
nan

>  <Standardized_SMILES>  (263) 
CCn1c(-c2nonc2N)nc2cc(O)ccc21

>  <Name>  (263) 
nan

>  <Pocket>  (263) 
nan

>  <ATP_Site>  (263) 
nan

>  <Peripheral>  (263) 
nan

>  <Num_H_Atoms_ProtBoundConf>  (263) 
nan

>  <Num_Resolved_Atoms>  (263) 
nan

>  <Num_Not_Resolved_Atoms>  (263) 
nan

$$$$
CHEMBL189120
     RDKit          3D

  0  0  0  0  0  0  0  0  0  0999 V3000
M  V30 BEGIN CTAB
M  V30 COUNTS 35 37 0 0 0
M  V30 BEGIN ATOM
M  V30 1 C -1.664826 -1.967175 2.658984 0
M  V30 2 C -0.372025 -1.200566 2.833875 0
M  V30 3 N -0.307609 -0.110328 1.908946 0
M  V30 4 C 0.169916 -0.147490 0.672548 0
M  V30 5 C 0.730049 -1.144715 -0.195786 0
M  V30 6 C 0.972897 -2.481051 -0.075387 0
M  V30 7 N 0.702644 -3.365997 0.970646 0
M  V30 8 N 1.551488 -2.977991 -1.179814 0
M  V30 9 N 1.710028 -2.002025 -2.060490 0
M  V30 10 C 2.299735 -2.154199 -3.371210 0
M  V30 11 C 1.225854 -0.914506 -1.484864 0
M  V30 12 C 1.245712 0.404530 -2.217278 0
M  V30 13 N 0.039085 1.120514 0.260634 0
M  V30 14 C -0.492071 1.923937 1.176449 0
M  V30 15 C -0.781562 3.264921 1.134523 0
M  V30 16 N -1.327591 3.786147 2.256566 0
M  V30 17 C -1.573844 3.040653 3.349099 0
M  V30 18 C -1.284782 1.692468 3.396479 0
M  V30 19 C -0.727206 1.133235 2.266878 0
M  V30 20 H -1.985509 -2.028435 1.589070 0
M  V30 21 H -2.509784 -1.509633 3.217379 0
M  V30 22 H -1.558853 -3.010485 3.061099 0
M  V30 23 H 0.526597 -1.796278 2.961679 0
M  V30 24 H -0.493581 -0.756409 3.897357 0
M  V30 25 H 0.996978 -3.855045 1.843829 0
M  V30 26 H -0.257119 -3.765615 0.881799 0
M  V30 27 H 2.331074 -3.230506 -3.677614 0
M  V30 28 H 3.353897 -1.795542 -3.358230 0
M  V30 29 H 1.780326 -1.556848 -4.161953 0
M  V30 30 H 2.021636 1.074803 -1.838014 0
M  V30 31 H 1.331037 0.232516 -3.297948 0
M  V30 32 H 0.260195 0.931638 -2.086641 0
M  V30 33 H -0.556237 3.796487 0.224776 0
M  V30 34 H -2.011193 3.473226 4.238763 0
M  V30 35 H -1.451194 1.024310 4.233142 0
M  V30 END ATOM
M  V30 BEGIN BOND
M  V30 1 1 1 2
M  V30 2 1 2 3
M  V30 3 1 3 4
M  V30 4 1 4 5
M  V30 5 1 5 6
M  V30 6 1 6 7
M  V30 7 2 6 8
M  V30 8 1 8 9
M  V30 9 1 9 10
M  V30 10 1 9 11
M  V30 11 1 11 12
M  V30 12 2 4 13
M  V30 13 1 13 14
M  V30 14 2 14 15
M  V30 15 1 15 16
M  V30 16 2 16 17
M  V30 17 1 17 18
M  V30 18 2 18 19
M  V30 19 1 19 3
M  V30 20 2 11 5
M  V30 21 1 19 14
M  V30 22 1 1 20
M  V30 23 1 1 21
M  V30 24 1 1 22
M  V30 25 1 2 23
M  V30 26 1 2 24
M  V30 27 1 7 25
M  V30 28 1 7 26
M  V30 29 1 10 27
M  V30 30 1 10 28
M  V30 31 1 10 29
M  V30 32 1 12 30
M  V30 33 1 12 31
M  V30 34 1 12 32
M  V30 35 1 15 33
M  V30 36 1 17 34
M  V30 37 1 18 35
M  V30 END BOND
M  V30 END CTAB
M  END
>  <Dataset>  (264) 
ChEMBL_Kinases

>  <Ligand_Instance>  (264) 
nan

>  <PDB_ID>  (264) 
nan

>  <Standardized_SMILES>  (264) 
CCn1c(-c2c(N)nn(C)c2C)nc2cnccc21

>  <Name>  (264) 
nan

>  <Pocket>  (264) 
nan

>  <ATP_Site>  (264) 
nan

>  <Peripheral>  (264) 
nan

>  <Num_H_Atoms_ProtBoundConf>  (264) 
nan

>  <Num_Resolved_Atoms>  (264) 
nan

>  <Num_Not_Resolved_Atoms>  (264) 
nan

$$$$
CHEMBL189148
     RDKit          3D

  0  0  0  0  0  0  0  0  0  0999 V3000
M  V30 BEGIN CTAB
M  V30 COUNTS 44 48 0 0 0
M  V30 BEGIN ATOM
M  V30 1 Cl 1.435737 -2.646933 5.358215 0
M  V30 2 C 1.602184 -1.427364 4.109262 0
M  V30 3 C 2.372450 -1.801084 3.031333 0
M  V30 4 C 2.561655 -0.910303 1.996333 0
M  V30 5 C 1.998071 0.348495 2.012261 0
M  V30 6 C 2.102731 1.390791 0.995930 0
M  V30 7 N 2.654149 2.620745 0.977320 0
M  V30 8 N 2.468901 3.172441 -0.225016 0
M  V30 9 N 2.884209 4.376681 -0.584136 0
M  V30 10 C 2.645551 4.842204 -1.822815 0
M  V30 11 C 1.953526 4.063879 -2.757181 0
M  V30 12 C 1.541235 2.810367 -2.327917 0
M  V30 13 C 1.785517 2.334154 -1.060695 0
M  V30 14 C 1.561449 1.218817 -0.280793 0
M  V30 15 C 0.826048 0.067527 -0.854818 0
M  V30 16 C 1.318201 -0.589032 -1.989635 0
M  V30 17 C 0.546558 -1.643310 -2.441186 0
M  V30 18 N -0.611890 -2.023994 -1.832439 0
M  V30 19 C -1.061518 -1.377844 -0.745830 0
M  V30 20 N -2.221482 -1.574965 0.047382 0
M  V30 21 C -2.383335 -2.492918 1.123121 0
M  V30 22 C -3.554508 -2.494843 1.862199 0
M  V30 23 C -3.690144 -3.409892 2.896895 0
M  V30 24 C -2.612954 -4.277102 3.118759 0
M  V30 25 C -1.450808 -4.270374 2.380441 0
M  V30 26 C -1.317658 -3.362146 1.354541 0
M  V30 27 N -0.332877 -0.350454 -0.285216 0
M  V30 28 C 1.228885 0.705291 3.101385 0
M  V30 29 C 1.032634 -0.183244 4.147684 0
M  V30 30 H 2.892027 -2.743414 2.844471 0
M  V30 31 H 3.151794 -1.112779 1.105917 0
M  V30 32 H 2.929206 5.805957 -2.243183 0
M  V30 33 H 1.719843 4.366691 -3.777070 0
M  V30 34 H 0.988432 2.098128 -2.961109 0
M  V30 35 H 2.229187 -0.293616 -2.471017 0
M  V30 36 H 0.825435 -2.226093 -3.307247 0
M  V30 37 H -2.973396 -0.928634 -0.274633 0
M  V30 38 H -4.361451 -1.781515 1.631548 0
M  V30 39 H -4.602583 -3.422286 3.482980 0
M  V30 40 H -2.782559 -4.961997 3.937482 0
M  V30 41 H -0.647382 -4.982541 2.610572 0
M  V30 42 H -0.425977 -3.312447 0.739467 0
M  V30 43 H 0.744210 1.639778 3.229443 0
M  V30 44 H 0.428583 0.068361 5.024581 0
M  V30 END ATOM
M  V30 BEGIN BOND
M  V30 1 1 1 2
M  V30 2 2 2 3
M  V30 3 1 3 4
M  V30 4 2 4 5
M  V30 5 1 5 6
M  V30 6 2 6 7
M  V30 7 1 7 8
M  V30 8 1 8 9
M  V30 9 2 9 10
M  V30 10 1 10 11
M  V30 11 2 11 12
M  V30 12 1 12 13
M  V30 13 2 13 14
M  V30 14 1 14 15
M  V30 15 2 15 16
M  V30 16 1 16 17
M  V30 17 2 17 18
M  V30 18 1 18 19
M  V30 19 1 19 20
M  V30 20 1 20 21
M  V30 21 2 21 22
M  V30 22 1 22 23
M  V30 23 2 23 24
M  V30 24 1 24 25
M  V30 25 2 25 26
M  V30 26 2 19 27
M  V30 27 1 5 28
M  V30 28 2 28 29
M  V30 29 1 29 2
M  V30 30 1 14 6
M  V30 31 1 27 15
M  V30 32 1 13 8
M  V30 33 1 26 21
M  V30 34 1 3 30
M  V30 35 1 4 31
M  V30 36 1 10 32
M  V30 37 1 11 33
M  V30 38 1 12 34
M  V30 39 1 16 35
M  V30 40 1 17 36
M  V30 41 1 20 37
M  V30 42 1 22 38
M  V30 43 1 23 39
M  V30 44 1 24 40
M  V30 45 1 25 41
M  V30 46 1 26 42
M  V30 47 1 28 43
M  V30 48 1 29 44
M  V30 END BOND
M  V30 END CTAB
M  END
>  <Dataset>  (265) 
ChEMBL_Kinases

>  <Ligand_Instance>  (265) 
nan

>  <PDB_ID>  (265) 
nan

>  <Standardized_SMILES>  (265) 
Clc1ccc(-c2nn3ncccc3c2-c2ccnc(Nc3ccccc3)n2)cc1

>  <Name>  (265) 
GW829055X

>  <Pocket>  (265) 
nan

>  <ATP_Site>  (265) 
nan

>  <Peripheral>  (265) 
nan

>  <Num_H_Atoms_ProtBoundConf>  (265) 
nan

>  <Num_Resolved_Atoms>  (265) 
nan

>  <Num_Not_Resolved_Atoms>  (265) 
nan

$$$$
CHEMBL189181
     RDKit          3D

  0  0  0  0  0  0  0  0  0  0999 V3000
M  V30 BEGIN CTAB
M  V30 COUNTS 48 51 0 0 0
M  V30 BEGIN ATOM
M  V30 1 C -1.356619 -5.166563 4.918738 0
M  V30 2 C -0.561662 -4.157863 4.172376 0
M  V30 3 O -0.056451 -3.227750 4.841849 0
M  V30 4 N -0.365309 -4.218503 2.773815 0
M  V30 5 C 0.357216 -3.359050 1.915429 0
M  V30 6 C 0.341526 -3.638529 0.573437 0
M  V30 7 C 1.033862 -2.839626 -0.298439 0
M  V30 8 C 1.792119 -1.712409 0.050126 0
M  V30 9 C 2.420318 -1.038141 -1.087015 0
M  V30 10 N 1.649692 0.107268 -1.532335 0
M  V30 11 C 1.846485 1.264014 -0.756928 0
M  V30 12 N 3.011105 1.850382 -1.136397 0
M  V30 13 N 3.242786 2.961304 -0.407739 0
M  V30 14 C 2.250556 3.147133 0.470378 0
M  V30 15 C 1.832275 4.001195 1.485422 0
M  V30 16 C 0.650369 3.767917 2.178004 0
M  V30 17 C -0.143252 2.658825 1.855612 0
M  V30 18 C 0.222418 1.757178 0.837507 0
M  V30 19 O -0.701517 0.789157 0.724448 0
M  V30 20 C -1.566262 0.428940 -0.249703 0
M  V30 21 C -2.695915 1.261590 -0.066785 0
M  V30 22 C -3.822522 1.187472 -0.892474 0
M  V30 23 C -3.867376 0.271842 -1.943054 0
M  V30 24 F -4.887444 0.097647 -2.809770 0
M  V30 25 C -2.788611 -0.534222 -2.130044 0
M  V30 26 C -1.711015 -0.436027 -1.309646 0
M  V30 27 C 1.404498 2.093860 0.235734 0
M  V30 28 C 1.772712 -1.480165 1.398126 0
M  V30 29 C 1.094569 -2.254074 2.307242 0
M  V30 30 H -0.757544 -5.477377 5.799397 0
M  V30 31 H -1.584328 -6.045392 4.279076 0
M  V30 32 H -2.316408 -4.697365 5.241128 0
M  V30 33 H -0.852699 -5.048210 2.369723 0
M  V30 34 H -0.223114 -4.499733 0.201191 0
M  V30 35 H 0.951859 -3.151454 -1.346728 0
M  V30 36 H 3.447981 -0.705860 -0.745921 0
M  V30 37 H 2.574429 -1.764822 -1.915249 0
M  V30 38 H 1.020467 0.036750 -2.363456 0
M  V30 39 H 3.817519 1.762863 -1.799817 0
M  V30 40 H 2.515816 4.837834 1.663297 0
M  V30 41 H 0.407385 4.482632 2.950910 0
M  V30 42 H -1.032083 2.607236 2.477808 0
M  V30 43 H -2.909318 2.038656 0.661402 0
M  V30 44 H -4.732046 1.771740 -0.843458 0
M  V30 45 H -2.663152 -1.285221 -2.884355 0
M  V30 46 H -0.829501 -1.030667 -1.376107 0
M  V30 47 H 2.368156 -0.591140 1.657840 0
M  V30 48 H 1.142053 -1.990484 3.350133 0
M  V30 END ATOM
M  V30 BEGIN BOND
M  V30 1 1 1 2
M  V30 2 2 2 3
M  V30 3 1 2 4
M  V30 4 1 4 5
M  V30 5 2 5 6
M  V30 6 1 6 7
M  V30 7 2 7 8
M  V30 8 1 8 9
M  V30 9 1 9 10
M  V30 10 1 10 11
M  V30 11 1 11 12
M  V30 12 1 12 13
M  V30 13 2 13 14
M  V30 14 1 14 15
M  V30 15 2 15 16
M  V30 16 1 16 17
M  V30 17 2 17 18
M  V30 18 1 18 19
M  V30 19 1 19 20
M  V30 20 2 20 21
M  V30 21 1 21 22
M  V30 22 2 22 23
M  V30 23 1 23 24
M  V30 24 1 23 25
M  V30 25 2 25 26
M  V30 26 1 18 27
M  V30 27 1 8 28
M  V30 28 2 28 29
M  V30 29 1 29 5
M  V30 30 2 27 11
M  V30 31 1 27 14
M  V30 32 1 26 20
M  V30 33 1 1 30
M  V30 34 1 1 31
M  V30 35 1 1 32
M  V30 36 1 4 33
M  V30 37 1 6 34
M  V30 38 1 7 35
M  V30 39 1 9 36
M  V30 40 1 9 37
M  V30 41 1 10 38
M  V30 42 1 12 39
M  V30 43 1 15 40
M  V30 44 1 16 41
M  V30 45 1 17 42
M  V30 46 1 21 43
M  V30 47 1 22 44
M  V30 48 1 25 45
M  V30 49 1 26 46
M  V30 50 1 28 47
M  V30 51 1 29 48
M  V30 END BOND
M  V30 END CTAB
M  END
>  <Dataset>  (266) 
ChEMBL_Kinases

>  <Ligand_Instance>  (266) 
nan

>  <PDB_ID>  (266) 
nan

>  <Standardized_SMILES>  (266) 
CC(=O)Nc1ccc(CNc2[nH]nc3cccc(Oc4ccc(F)cc4)c23)cc1

>  <Name>  (266) 
nan

>  <Pocket>  (266) 
nan

>  <ATP_Site>  (266) 
nan

>  <Peripheral>  (266) 
nan

>  <Num_H_Atoms_ProtBoundConf>  (266) 
nan

>  <Num_Resolved_Atoms>  (266) 
nan

>  <Num_Not_Resolved_Atoms>  (266) 
nan

$$$$
CHEMBL1892026
     RDKit          3D

  0  0  0  0  0  0  0  0  0  0999 V3000
M  V30 BEGIN CTAB
M  V30 COUNTS 36 38 0 0 0
M  V30 BEGIN ATOM
M  V30 1 C -0.137732 -3.011957 1.527427 0
M  V30 2 C -0.131611 -2.850537 0.056300 0
M  V30 3 N 0.583637 -1.886551 -0.425650 0
M  V30 4 N 1.332407 -1.012992 0.368628 0
M  V30 5 C 0.906919 0.343851 0.600082 0
M  V30 6 C 1.611596 1.239063 1.374573 0
M  V30 7 C 1.162823 2.529655 1.566911 0
M  V30 8 C -0.008974 2.971347 0.990245 0
M  V30 9 C -0.539663 4.249894 1.126458 0
M  V30 10 C -1.735005 4.577606 0.492940 0
M  V30 11 C -2.423884 3.659227 -0.280118 0
M  V30 12 C -1.903894 2.384786 -0.421568 0
M  V30 13 C -0.708399 2.048147 0.208756 0
M  V30 14 N -0.241353 0.786413 0.038581 0
M  V30 15 C -0.918706 -3.770828 -0.758982 0
M  V30 16 C -1.661504 -4.779871 -0.182669 0
M  V30 17 C -2.400111 -5.640655 -0.974376 0
M  V30 18 C -2.364469 -5.452423 -2.340477 0
M  V30 19 C -1.618829 -4.440699 -2.907693 0
M  V30 20 C -0.863755 -3.556940 -2.134570 0
M  V30 21 O -0.111625 -2.538843 -2.683469 0
M  V30 22 H -1.122654 -2.698489 1.905634 0
M  V30 23 H 0.666540 -2.433860 2.017873 0
M  V30 24 H 0.016774 -4.062168 1.843132 0
M  V30 25 H 2.239232 -1.286225 0.840101 0
M  V30 26 H 2.534765 0.908392 1.835266 0
M  V30 27 H 1.708476 3.237145 2.171895 0
M  V30 28 H 0.016141 4.942117 1.732224 0
M  V30 29 H -2.140726 5.571066 0.602962 0
M  V30 30 H -3.364302 3.899720 -0.784915 0
M  V30 31 H -2.429122 1.651221 -1.023272 0
M  V30 32 H -1.668508 -4.899413 0.876072 0
M  V30 33 H -2.962168 -6.409065 -0.491423 0
M  V30 34 H -2.948242 -6.132233 -2.971330 0
M  V30 35 H -1.601921 -4.305680 -3.993385 0
M  V30 36 H 0.896451 -2.621481 -2.726512 0
M  V30 END ATOM
M  V30 BEGIN BOND
M  V30 1 1 1 2
M  V30 2 2 2 3
M  V30 3 1 3 4
M  V30 4 1 4 5
M  V30 5 2 5 6
M  V30 6 1 6 7
M  V30 7 2 7 8
M  V30 8 1 8 9
M  V30 9 2 9 10
M  V30 10 1 10 11
M  V30 11 2 11 12
M  V30 12 1 12 13
M  V30 13 2 13 14
M  V30 14 1 2 15
M  V30 15 2 15 16
M  V30 16 1 16 17
M  V30 17 2 17 18
M  V30 18 1 18 19
M  V30 19 2 19 20
M  V30 20 1 20 21
M  V30 21 1 14 5
M  V30 22 1 20 15
M  V30 23 1 13 8
M  V30 24 1 1 22
M  V30 25 1 1 23
M  V30 26 1 1 24
M  V30 27 1 4 25
M  V30 28 1 6 26
M  V30 29 1 7 27
M  V30 30 1 9 28
M  V30 31 1 10 29
M  V30 32 1 11 30
M  V30 33 1 12 31
M  V30 34 1 16 32
M  V30 35 1 17 33
M  V30 36 1 18 34
M  V30 37 1 19 35
M  V30 38 1 21 36
M  V30 END BOND
M  V30 END CTAB
M  END
>  <Dataset>  (267) 
ChEMBL_Kinases

>  <Ligand_Instance>  (267) 
nan

>  <PDB_ID>  (267) 
nan

>  <Standardized_SMILES>  (267) 
C/C(=N\Nc1ccc2ccccc2n1)c1ccccc1O

>  <Name>  (267) 
nan

>  <Pocket>  (267) 
nan

>  <ATP_Site>  (267) 
nan

>  <Peripheral>  (267) 
nan

>  <Num_H_Atoms_ProtBoundConf>  (267) 
nan

>  <Num_Resolved_Atoms>  (267) 
nan

>  <Num_Not_Resolved_Atoms>  (267) 
nan

$$$$
CHEMBL189223
     RDKit          3D

  0  0  0  0  0  0  0  0  0  0999 V3000
M  V30 BEGIN CTAB
M  V30 COUNTS 40 43 0 0 0
M  V30 BEGIN ATOM
M  V30 1 N 2.815993 2.754284 3.605190 0
M  V30 2 C 2.367929 2.194451 2.701360 0
M  V30 3 C 1.788365 1.509990 1.575360 0
M  V30 4 C 2.544072 1.088598 0.570362 0
M  V30 5 N 2.191061 0.413216 -0.604790 0
M  V30 6 C 3.237391 0.097067 -1.458274 0
M  V30 7 C 3.198097 -0.565699 -2.673650 0
M  V30 8 C 4.349647 -0.800217 -3.389723 0
M  V30 9 C 5.571643 -0.380638 -2.912246 0
M  V30 10 C 5.677380 0.283967 -1.708086 0
M  V30 11 C 4.484957 0.483799 -1.047380 0
M  V30 12 S 4.318074 1.329742 0.548908 0
M  V30 13 C 0.347271 1.288393 1.572329 0
M  V30 14 C -0.456373 2.296645 2.097882 0
M  V30 15 C -1.818989 2.099304 2.109816 0
M  V30 16 N -2.350755 0.969100 1.629453 0
M  V30 17 C -1.573647 -0.002564 1.122578 0
M  V30 18 N -2.114639 -1.214061 0.609743 0
M  V30 19 C -3.513287 -1.529985 0.619728 0
M  V30 20 C -3.999818 -1.601638 2.070547 0
M  V30 21 N -3.184354 -2.664338 2.674805 0
M  V30 22 C -2.016021 -2.589516 3.295481 0
M  V30 23 N -1.646969 -3.829422 3.683968 0
M  V30 24 C -2.602762 -4.696357 3.298749 0
M  V30 25 N -3.528347 -3.940079 2.682453 0
M  V30 26 N -0.246549 0.206698 1.118497 0
M  V30 27 H 1.173470 0.190417 -0.767187 0
M  V30 28 H 2.262749 -0.920628 -3.105176 0
M  V30 29 H 4.382116 -1.314730 -4.349162 0
M  V30 30 H 6.488471 -0.557755 -3.465229 0
M  V30 31 H 6.632162 0.616224 -1.329010 0
M  V30 32 H -0.006837 3.215884 2.486443 0
M  V30 33 H -2.392487 2.918496 2.531281 0
M  V30 34 H -1.434239 -1.917684 0.198338 0
M  V30 35 H -3.685364 -2.491984 0.095860 0
M  V30 36 H -4.118633 -0.769288 0.049855 0
M  V30 37 H -5.075569 -1.931489 2.083708 0
M  V30 38 H -3.840416 -0.628793 2.540616 0
M  V30 39 H -1.444803 -1.689818 3.467453 0
M  V30 40 H -2.576508 -5.768038 3.474978 0
M  V30 END ATOM
M  V30 BEGIN BOND
M  V30 1 3 1 2
M  V30 2 1 2 3
M  V30 3 2 3 4
M  V30 4 1 4 5
M  V30 5 1 5 6
M  V30 6 2 6 7
M  V30 7 1 7 8
M  V30 8 2 8 9
M  V30 9 1 9 10
M  V30 10 2 10 11
M  V30 11 1 11 12
M  V30 12 1 3 13
M  V30 13 2 13 14
M  V30 14 1 14 15
M  V30 15 2 15 16
M  V30 16 1 16 17
M  V30 17 1 17 18
M  V30 18 1 18 19
M  V30 19 1 19 20
M  V30 20 1 20 21
M  V30 21 1 21 22
M  V30 22 2 22 23
M  V30 23 1 23 24
M  V30 24 2 24 25
M  V30 25 2 17 26
M  V30 26 1 12 4
M  V30 27 1 26 13
M  V30 28 1 11 6
M  V30 29 1 25 21
M  V30 30 1 5 27
M  V30 31 1 7 28
M  V30 32 1 8 29
M  V30 33 1 9 30
M  V30 34 1 10 31
M  V30 35 1 14 32
M  V30 36 1 15 33
M  V30 37 1 18 34
M  V30 38 1 19 35
M  V30 39 1 19 36
M  V30 40 1 20 37
M  V30 41 1 20 38
M  V30 42 1 22 39
M  V30 43 1 24 40
M  V30 END BOND
M  V30 END CTAB
M  END
>  <Dataset>  (268) 
ChEMBL_Kinases

>  <Ligand_Instance>  (268) 
nan

>  <PDB_ID>  (268) 
nan

>  <Standardized_SMILES>  (268) 
N#C/C(=C1/Nc2ccccc2S1)c1ccnc(NCCn2cncn2)n1

>  <Name>  (268) 
nan

>  <Pocket>  (268) 
nan

>  <ATP_Site>  (268) 
nan

>  <Peripheral>  (268) 
nan

>  <Num_H_Atoms_ProtBoundConf>  (268) 
nan

>  <Num_Resolved_Atoms>  (268) 
nan

>  <Num_Not_Resolved_Atoms>  (268) 
nan

$$$$
CHEMBL189773
     RDKit          3D

  0  0  0  0  0  0  0  0  0  0999 V3000
M  V30 BEGIN CTAB
M  V30 COUNTS 32 34 0 0 0
M  V30 BEGIN ATOM
M  V30 1 N -2.287945 -2.134123 2.373830 0
M  V30 2 C -0.849005 -2.080961 2.542220 0
M  V30 3 C -0.081173 -2.432231 1.326958 0
M  V30 4 C -0.234038 -1.608734 0.111102 0
M  V30 5 N 0.126604 -0.241488 0.154615 0
M  V30 6 C 1.357433 0.248533 -0.068781 0
M  V30 7 C 2.687741 -0.248374 -0.391842 0
M  V30 8 N 3.777746 0.513014 -0.575120 0
M  V30 9 O 4.793265 -0.193300 -0.849478 0
M  V30 10 N 4.491279 -1.470506 -0.876667 0
M  V30 11 C 3.157223 -1.497007 -0.585985 0
M  V30 12 N 2.589944 -2.752378 -0.549040 0
M  V30 13 N 1.216809 1.580591 0.065038 0
M  V30 14 C -0.024587 1.938076 0.356620 0
M  V30 15 C -0.568085 3.167681 0.562778 0
M  V30 16 N -1.879578 3.254177 0.841390 0
M  V30 17 C -2.669300 2.153341 0.921302 0
M  V30 18 C -2.072555 0.927992 0.704592 0
M  V30 19 C -0.741709 0.772819 0.417682 0
M  V30 20 H -2.601555 -3.108853 2.427837 0
M  V30 21 H -2.802256 -1.499552 3.016329 0
M  V30 22 H -0.645248 -2.826457 3.349044 0
M  V30 23 H -0.549098 -1.115705 3.007125 0
M  V30 24 H 0.988883 -2.591113 1.626446 0
M  V30 25 H -0.403016 -3.477619 1.037655 0
M  V30 26 H -1.369504 -1.587336 -0.163063 0
M  V30 27 H 0.151642 -2.135346 -0.771097 0
M  V30 28 H 2.360776 -3.630642 -0.046081 0
M  V30 29 H 2.081685 -3.551864 -0.943676 0
M  V30 30 H 0.074070 4.033166 0.495340 0
M  V30 31 H -3.727497 2.231848 1.146441 0
M  V30 32 H -2.651064 0.018054 0.743858 0
M  V30 END ATOM
M  V30 BEGIN BOND
M  V30 1 1 1 2
M  V30 2 1 2 3
M  V30 3 1 3 4
M  V30 4 1 4 5
M  V30 5 1 5 6
M  V30 6 1 6 7
M  V30 7 2 7 8
M  V30 8 1 8 9
M  V30 9 1 9 10
M  V30 10 2 10 11
M  V30 11 1 11 12
M  V30 12 2 6 13
M  V30 13 1 13 14
M  V30 14 2 14 15
M  V30 15 1 15 16
M  V30 16 2 16 17
M  V30 17 1 17 18
M  V30 18 2 18 19
M  V30 19 1 19 5
M  V30 20 1 11 7
M  V30 21 1 19 14
M  V30 22 1 1 20
M  V30 23 1 1 21
M  V30 24 1 2 22
M  V30 25 1 2 23
M  V30 26 1 3 24
M  V30 27 1 3 25
M  V30 28 1 4 26
M  V30 29 1 4 27
M  V30 30 1 12 28
M  V30 31 1 12 29
M  V30 32 1 15 30
M  V30 33 1 17 31
M  V30 34 1 18 32
M  V30 END BOND
M  V30 END CTAB
M  END
>  <Dataset>  (269) 
ChEMBL_Kinases

>  <Ligand_Instance>  (269) 
nan

>  <PDB_ID>  (269) 
nan

>  <Standardized_SMILES>  (269) 
NCCCn1c(-c2nonc2N)nc2cnccc21

>  <Name>  (269) 
nan

>  <Pocket>  (269) 
nan

>  <ATP_Site>  (269) 
nan

>  <Peripheral>  (269) 
nan

>  <Num_H_Atoms_ProtBoundConf>  (269) 
nan

>  <Num_Resolved_Atoms>  (269) 
nan

>  <Num_Not_Resolved_Atoms>  (269) 
nan

$$$$
CHEMBL189288
     RDKit          3D

  0  0  0  0  0  0  0  0  0  0999 V3000
M  V30 BEGIN CTAB
M  V30 COUNTS 47 51 0 0 0
M  V30 BEGIN ATOM
M  V30 1 F 4.326786 -2.338748 5.792533 0
M  V30 2 C 3.880676 -1.414213 4.925689 0
M  V30 3 C 4.810778 -0.886265 4.032061 0
M  V30 4 C 4.374877 0.073630 3.124410 0
M  V30 5 C 3.047767 0.506894 3.095682 0
M  V30 6 C 2.757642 1.505046 2.100807 0
M  V30 7 N 3.251262 2.751966 2.017290 0
M  V30 8 N 2.765981 3.391748 0.978045 0
M  V30 9 N 3.002775 4.623290 0.556703 0
M  V30 10 C 2.427217 5.135827 -0.528513 0
M  V30 11 C 1.543671 4.346665 -1.246228 0
M  V30 12 C 1.288037 3.063833 -0.819307 0
M  V30 13 C 1.923798 2.582514 0.328644 0
M  V30 14 C 1.908282 1.389345 1.024644 0
M  V30 15 C 1.113143 0.244262 0.635236 0
M  V30 16 C 1.770948 -0.912709 0.294094 0
M  V30 17 C 1.045704 -2.021080 -0.082517 0
M  V30 18 N -0.286892 -1.885296 -0.088416 0
M  V30 19 C -0.972888 -0.784796 0.234224 0
M  V30 20 N -2.382245 -0.638813 0.227910 0
M  V30 21 C -3.368610 -1.599735 -0.116741 0
M  V30 22 C -4.713204 -1.299086 -0.072515 0
M  V30 23 C -5.698584 -2.200987 -0.399452 0
M  V30 24 C -5.376890 -3.480269 -0.796469 0
M  V30 25 Cl -6.644765 -4.617213 -1.208026 0
M  V30 26 C -4.046694 -3.832327 -0.857493 0
M  V30 27 C -3.681828 -5.214389 -1.285244 0
M  V30 28 F -4.128062 -5.510177 -2.557566 0
M  V30 29 F -4.268457 -6.073280 -0.353763 0
M  V30 30 F -2.325132 -5.368637 -1.154790 0
M  V30 31 C -3.088995 -2.888194 -0.518194 0
M  V30 32 N -0.221459 0.262820 0.592169 0
M  V30 33 C 2.151705 -0.054585 4.014849 0
M  V30 34 C 2.564498 -1.010661 4.926133 0
M  V30 35 H 5.864115 -1.183377 4.003156 0
M  V30 36 H 5.129353 0.471685 2.431509 0
M  V30 37 H 2.546114 6.118625 -0.958971 0
M  V30 38 H 1.025163 4.643209 -2.127062 0
M  V30 39 H 0.597932 2.388723 -1.345365 0
M  V30 40 H 2.849869 -0.989777 0.309632 0
M  V30 41 H 1.521017 -2.966885 -0.363422 0
M  V30 42 H -2.772445 0.298501 0.513987 0
M  V30 43 H -5.060245 -0.316487 0.229267 0
M  V30 44 H -6.742109 -1.921495 -0.351265 0
M  V30 45 H -2.092533 -3.243473 -0.593441 0
M  V30 46 H 1.132149 0.321074 3.947786 0
M  V30 47 H 1.840864 -1.410973 5.609895 0
M  V30 END ATOM
M  V30 BEGIN BOND
M  V30 1 1 1 2
M  V30 2 2 2 3
M  V30 3 1 3 4
M  V30 4 2 4 5
M  V30 5 1 5 6
M  V30 6 2 6 7
M  V30 7 1 7 8
M  V30 8 1 8 9
M  V30 9 2 9 10
M  V30 10 1 10 11
M  V30 11 2 11 12
M  V30 12 1 12 13
M  V30 13 2 13 14
M  V30 14 1 14 15
M  V30 15 2 15 16
M  V30 16 1 16 17
M  V30 17 2 17 18
M  V30 18 1 18 19
M  V30 19 1 19 20
M  V30 20 1 20 21
M  V30 21 2 21 22
M  V30 22 1 22 23
M  V30 23 2 23 24
M  V30 24 1 24 25
M  V30 25 1 24 26
M  V30 26 1 26 27
M  V30 27 1 27 28
M  V30 28 1 27 29
M  V30 29 1 27 30
M  V30 30 2 26 31
M  V30 31 2 19 32
M  V30 32 1 5 33
M  V30 33 2 33 34
M  V30 34 1 34 2
M  V30 35 1 14 6
M  V30 36 1 32 15
M  V30 37 1 13 8
M  V30 38 1 31 21
M  V30 39 1 3 35
M  V30 40 1 4 36
M  V30 41 1 10 37
M  V30 42 1 11 38
M  V30 43 1 12 39
M  V30 44 1 16 40
M  V30 45 1 17 41
M  V30 46 1 20 42
M  V30 47 1 22 43
M  V30 48 1 23 44
M  V30 49 1 31 45
M  V30 50 1 33 46
M  V30 51 1 34 47
M  V30 END BOND
M  V30 END CTAB
M  END
>  <Dataset>  (270) 
ChEMBL_Kinases

>  <Ligand_Instance>  (270) 
nan

>  <PDB_ID>  (270) 
nan

>  <Standardized_SMILES>  (270) 
Fc1ccc(-c2nn3ncccc3c2-c2ccnc(Nc3ccc(Cl)c(C(F)(F)F)c3)n2)cc1

>  <Name>  (270) 
nan

>  <Pocket>  (270) 
nan

>  <ATP_Site>  (270) 
nan

>  <Peripheral>  (270) 
nan

>  <Num_H_Atoms_ProtBoundConf>  (270) 
nan

>  <Num_Resolved_Atoms>  (270) 
nan

>  <Num_Not_Resolved_Atoms>  (270) 
nan

$$$$
CHEMBL189299
     RDKit          3D

  0  0  0  0  0  0  0  0  0  0999 V3000
M  V30 BEGIN CTAB
M  V30 COUNTS 30 32 0 0 0
M  V30 BEGIN ATOM
M  V30 1 C -1.871772 0.276550 -0.636546 0
M  V30 2 C -1.537516 -0.634918 0.501733 0
M  V30 3 N -0.316254 -0.360842 1.182953 0
M  V30 4 C 0.906315 -0.794141 0.959555 0
M  V30 5 C 1.586989 -1.646511 0.038726 0
M  V30 6 N 2.867932 -1.964596 0.258807 0
M  V30 7 C 3.601166 -2.790072 -0.469916 0
M  V30 8 C 3.112829 -3.432773 -1.569564 0
M  V30 9 N 1.837703 -3.144500 -1.828888 0
M  V30 10 C 1.148133 -2.298193 -1.051407 0
M  V30 11 N -0.117248 -2.157263 -1.603480 0
M  V30 12 N 1.614523 -0.241662 1.950802 0
M  V30 13 C 0.898334 0.510430 2.772601 0
M  V30 14 C 1.234919 1.235775 3.884754 0
M  V30 15 N 0.259770 1.924323 4.535863 0
M  V30 16 C -1.023072 1.889351 4.086448 0
M  V30 17 C -1.329536 1.141220 2.951977 0
M  V30 18 C -0.368085 0.431855 2.267581 0
M  V30 19 H -0.969990 0.713649 -1.119927 0
M  V30 20 H -2.447522 -0.226797 -1.441714 0
M  V30 21 H -2.563188 1.079060 -0.270955 0
M  V30 22 H -2.420195 -0.543444 1.272319 0
M  V30 23 H -1.675838 -1.683200 0.223657 0
M  V30 24 H 4.623333 -2.880909 -0.075164 0
M  V30 25 H 3.858986 -4.057043 -2.022327 0
M  V30 26 H -1.074082 -2.111475 -1.997926 0
M  V30 27 H -0.768279 -2.984758 -1.555517 0
M  V30 28 H 2.279402 1.200211 4.161256 0
M  V30 29 H -1.799061 2.434591 4.600551 0
M  V30 30 H -2.345823 1.098942 2.576657 0
M  V30 END ATOM
M  V30 BEGIN BOND
M  V30 1 1 1 2
M  V30 2 1 2 3
M  V30 3 1 3 4
M  V30 4 1 4 5
M  V30 5 2 5 6
M  V30 6 1 6 7
M  V30 7 2 7 8
M  V30 8 1 8 9
M  V30 9 2 9 10
M  V30 10 1 10 11
M  V30 11 2 4 12
M  V30 12 1 12 13
M  V30 13 2 13 14
M  V30 14 1 14 15
M  V30 15 2 15 16
M  V30 16 1 16 17
M  V30 17 2 17 18
M  V30 18 1 18 3
M  V30 19 1 10 5
M  V30 20 1 18 13
M  V30 21 1 1 19
M  V30 22 1 1 20
M  V30 23 1 1 21
M  V30 24 1 2 22
M  V30 25 1 2 23
M  V30 26 1 7 24
M  V30 27 1 8 25
M  V30 28 1 11 26
M  V30 29 1 11 27
M  V30 30 1 14 28
M  V30 31 1 16 29
M  V30 32 1 17 30
M  V30 END BOND
M  V30 END CTAB
M  END
>  <Dataset>  (271) 
ChEMBL_Kinases

>  <Ligand_Instance>  (271) 
nan

>  <PDB_ID>  (271) 
nan

>  <Standardized_SMILES>  (271) 
CCn1c(-c2nccnc2N)nc2cnccc21

>  <Name>  (271) 
nan

>  <Pocket>  (271) 
nan

>  <ATP_Site>  (271) 
nan

>  <Peripheral>  (271) 
nan

>  <Num_H_Atoms_ProtBoundConf>  (271) 
nan

>  <Num_Resolved_Atoms>  (271) 
nan

>  <Num_Not_Resolved_Atoms>  (271) 
nan

$$$$
CHEMBL189354
     RDKit          3D

  0  0  0  0  0  0  0  0  0  0999 V3000
M  V30 BEGIN CTAB
M  V30 COUNTS 61 64 0 0 0
M  V30 BEGIN ATOM
M  V30 1 C -1.845698 -3.943842 3.252099 0
M  V30 2 N -1.560789 -3.890334 1.829500 0
M  V30 3 C -2.230667 -2.926984 1.024949 0
M  V30 4 C -3.126885 -2.087459 1.656053 0
M  V30 5 C -3.812564 -1.130393 0.945381 0
M  V30 6 C -3.552928 -1.059679 -0.427762 0
M  V30 7 N -4.319964 -0.026094 -1.081771 0
M  V30 8 C -3.623037 1.190879 -1.081832 0
M  V30 9 O -2.486581 1.285398 -0.561280 0
M  V30 10 N -4.100059 2.408480 -1.646623 0
M  V30 11 C -3.342313 3.632166 -1.619079 0
M  V30 12 C -3.547499 4.440546 -0.523203 0
M  V30 13 C -2.852751 5.640265 -0.422601 0
M  V30 14 C -2.995717 6.584626 0.709928 0
M  V30 15 F -4.224591 6.500939 1.318928 0
M  V30 16 F -1.980228 6.304020 1.620145 0
M  V30 17 F -2.750697 7.854067 0.211024 0
M  V30 18 C -1.970436 5.963660 -1.456708 0
M  V30 19 C -1.749936 5.167719 -2.563969 0
M  V30 20 C -2.458098 3.999693 -2.613408 0
M  V30 21 F -2.305573 3.151809 -3.667205 0
M  V30 22 C -2.655891 -1.900759 -1.056533 0
M  V30 23 C -1.975510 -2.856193 -0.329489 0
M  V30 24 C -0.615328 -4.811602 1.295392 0
M  V30 25 C -0.963209 -6.037993 0.827738 0
M  V30 26 C 0.041285 -6.830626 0.339295 0
M  V30 27 N 1.304606 -6.385773 0.336661 0
M  V30 28 C 1.685964 -5.180405 0.790345 0
M  V30 29 N 3.048288 -4.794595 0.747625 0
M  V30 30 C 3.616617 -3.570982 1.177189 0
M  V30 31 C 2.952492 -2.499187 1.726171 0
M  V30 32 C 3.528636 -1.330295 2.131323 0
M  V30 33 C 4.879649 -1.186434 1.990623 0
M  V30 34 C 5.604272 -2.223304 1.447279 0
M  V30 35 S 7.333966 -2.041751 1.265807 0
M  V30 36 N 7.705552 -1.356920 -0.288619 0
M  V30 37 O 7.926480 -3.416829 1.419856 0
M  V30 38 O 7.871051 -1.170849 2.375474 0
M  V30 39 C 4.973239 -3.361906 1.063038 0
M  V30 40 N 0.672273 -4.454121 1.252007 0
M  V30 41 H -2.929152 -4.046405 3.466327 0
M  V30 42 H -1.520483 -2.942540 3.655638 0
M  V30 43 H -1.234729 -4.693184 3.753222 0
M  V30 44 H -3.319975 -2.154132 2.731091 0
M  V30 45 H -4.504969 -0.489718 1.462189 0
M  V30 46 H -5.259506 0.007608 -1.543276 0
M  V30 47 H -5.056751 2.400222 -2.104519 0
M  V30 48 H -4.228766 4.192235 0.276856 0
M  V30 49 H -1.415096 6.898114 -1.400140 0
M  V30 50 H -1.053714 5.475191 -3.329465 0
M  V30 51 H -2.535751 -1.756561 -2.114809 0
M  V30 52 H -1.276960 -3.509710 -0.824757 0
M  V30 53 H -1.981068 -6.364197 0.843504 0
M  V30 54 H -0.186468 -7.812420 -0.042635 0
M  V30 55 H 3.717836 -5.503578 0.348392 0
M  V30 56 H 1.886087 -2.565694 1.856928 0
M  V30 57 H 2.942497 -0.523092 2.557558 0
M  V30 58 H 5.391508 -0.291314 2.290355 0
M  V30 59 H 8.708693 -1.579553 -0.519190 0
M  V30 60 H 7.123688 -1.905356 -0.981013 0
M  V30 61 H 5.607841 -4.145487 0.639423 0
M  V30 END ATOM
M  V30 BEGIN BOND
M  V30 1 1 1 2
M  V30 2 1 2 3
M  V30 3 2 3 4
M  V30 4 1 4 5
M  V30 5 2 5 6
M  V30 6 1 6 7
M  V30 7 1 7 8
M  V30 8 2 8 9
M  V30 9 1 8 10
M  V30 10 1 10 11
M  V30 11 2 11 12
M  V30 12 1 12 13
M  V30 13 1 13 14
M  V30 14 1 14 15
M  V30 15 1 14 16
M  V30 16 1 14 17
M  V30 17 2 13 18
M  V30 18 1 18 19
M  V30 19 2 19 20
M  V30 20 1 20 21
M  V30 21 1 6 22
M  V30 22 2 22 23
M  V30 23 1 2 24
M  V30 24 2 24 25
M  V30 25 1 25 26
M  V30 26 2 26 27
M  V30 27 1 27 28
M  V30 28 1 28 29
M  V30 29 1 29 30
M  V30 30 2 30 31
M  V30 31 1 31 32
M  V30 32 2 32 33
M  V30 33 1 33 34
M  V30 34 1 34 35
M  V30 35 1 35 36
M  V30 36 2 35 37
M  V30 37 2 35 38
M  V30 38 2 34 39
M  V30 39 2 28 40
M  V30 40 1 23 3
M  V30 41 1 40 24
M  V30 42 1 20 11
M  V30 43 1 39 30
M  V30 44 1 1 41
M  V30 45 1 1 42
M  V30 46 1 1 43
M  V30 47 1 4 44
M  V30 48 1 5 45
M  V30 49 1 7 46
M  V30 50 1 10 47
M  V30 51 1 12 48
M  V30 52 1 18 49
M  V30 53 1 19 50
M  V30 54 1 22 51
M  V30 55 1 23 52
M  V30 56 1 25 53
M  V30 57 1 26 54
M  V30 58 1 29 55
M  V30 59 1 31 56
M  V30 60 1 32 57
M  V30 61 1 33 58
M  V30 62 1 36 59
M  V30 63 1 36 60
M  V30 64 1 39 61
M  V30 END BOND
M  V30 END CTAB
M  END
>  <Dataset>  (272) 
ChEMBL_Kinases

>  <Ligand_Instance>  (272) 
nan

>  <PDB_ID>  (272) 
nan

>  <Standardized_SMILES>  (272) 
CN(c1ccc(NC(=O)Nc2cc(C(F)(F)F)ccc2F)cc1)c1ccnc(Nc2cccc(S(N)(=O)=O)c2)n1

>  <Name>  (272) 
nan

>  <Pocket>  (272) 
nan

>  <ATP_Site>  (272) 
nan

>  <Peripheral>  (272) 
nan

>  <Num_H_Atoms_ProtBoundConf>  (272) 
nan

>  <Num_Resolved_Atoms>  (272) 
nan

>  <Num_Not_Resolved_Atoms>  (272) 
nan

$$$$
CHEMBL189421
     RDKit          3D

  0  0  0  0  0  0  0  0  0  0999 V3000
M  V30 BEGIN CTAB
M  V30 COUNTS 44 47 0 0 0
M  V30 BEGIN ATOM
M  V30 1 N 4.842586 0.205799 3.823645 0
M  V30 2 C 3.921402 0.541259 3.224633 0
M  V30 3 C 2.755911 0.946019 2.491163 0
M  V30 4 C 2.694634 0.665782 1.189153 0
M  V30 5 N 1.628570 0.989451 0.300302 0
M  V30 6 C 1.824008 0.608740 -1.051023 0
M  V30 7 C 0.928127 0.849421 -2.107375 0
M  V30 8 C 1.311708 0.427755 -3.361001 0
M  V30 9 C 2.485643 -0.207276 -3.693661 0
M  V30 10 C 3.323603 -0.415283 -2.614569 0
M  V30 11 C 3.010579 -0.025381 -1.345243 0
M  V30 12 S 3.913645 -0.183835 0.193993 0
M  V30 13 C 1.605586 1.619905 3.136517 0
M  V30 14 C 1.523064 2.767368 3.885889 0
M  V30 15 C 0.284261 3.098302 4.363411 0
M  V30 16 N -0.781466 2.337579 4.109846 0
M  V30 17 C -0.734673 1.206882 3.381757 0
M  V30 18 N -1.904929 0.436926 3.141746 0
M  V30 19 C -2.043671 -0.866435 2.546197 0
M  V30 20 C -1.411044 -0.855067 1.187300 0
M  V30 21 C -1.515720 -2.182017 0.490421 0
M  V30 22 C -0.465584 -3.050112 0.802326 0
M  V30 23 C -0.360083 -4.307323 0.273149 0
M  V30 24 C -1.325321 -4.760951 -0.612655 0
M  V30 25 C -2.356468 -3.896535 -0.912037 0
M  V30 26 F -3.329905 -4.289619 -1.775331 0
M  V30 27 C -2.475485 -2.629410 -0.388188 0
M  V30 28 N 0.501258 0.896254 2.915601 0
M  V30 29 H 0.772232 1.479785 0.668002 0
M  V30 30 H -0.048533 1.346013 -2.012494 0
M  V30 31 H 0.619824 0.615995 -4.198061 0
M  V30 32 H 2.687963 -0.495027 -4.716125 0
M  V30 33 H 4.269363 -0.906359 -2.792028 0
M  V30 34 H 2.478480 3.261164 3.991819 0
M  V30 35 H 0.238224 4.000941 4.954899 0
M  V30 36 H -2.797751 0.927707 3.460962 0
M  V30 37 H -1.579847 -1.658972 3.197805 0
M  V30 38 H -3.141238 -1.078615 2.453404 0
M  V30 39 H -0.355638 -0.572750 1.324227 0
M  V30 40 H -1.877197 -0.036832 0.593883 0
M  V30 41 H 0.359793 -2.821692 1.482456 0
M  V30 42 H 0.445873 -5.008222 0.499844 0
M  V30 43 H -1.273540 -5.747277 -1.049414 0
M  V30 44 H -3.250358 -1.904875 -0.577556 0
M  V30 END ATOM
M  V30 BEGIN BOND
M  V30 1 3 1 2
M  V30 2 1 2 3
M  V30 3 2 3 4
M  V30 4 1 4 5
M  V30 5 1 5 6
M  V30 6 2 6 7
M  V30 7 1 7 8
M  V30 8 2 8 9
M  V30 9 1 9 10
M  V30 10 2 10 11
M  V30 11 1 11 12
M  V30 12 1 3 13
M  V30 13 2 13 14
M  V30 14 1 14 15
M  V30 15 2 15 16
M  V30 16 1 16 17
M  V30 17 1 17 18
M  V30 18 1 18 19
M  V30 19 1 19 20
M  V30 20 1 20 21
M  V30 21 2 21 22
M  V30 22 1 22 23
M  V30 23 2 23 24
M  V30 24 1 24 25
M  V30 25 1 25 26
M  V30 26 2 25 27
M  V30 27 2 17 28
M  V30 28 1 12 4
M  V30 29 1 28 13
M  V30 30 1 11 6
M  V30 31 1 27 21
M  V30 32 1 5 29
M  V30 33 1 7 30
M  V30 34 1 8 31
M  V30 35 1 9 32
M  V30 36 1 10 33
M  V30 37 1 14 34
M  V30 38 1 15 35
M  V30 39 1 18 36
M  V30 40 1 19 37
M  V30 41 1 19 38
M  V30 42 1 20 39
M  V30 43 1 20 40
M  V30 44 1 22 41
M  V30 45 1 23 42
M  V30 46 1 24 43
M  V30 47 1 27 44
M  V30 END BOND
M  V30 END CTAB
M  END
>  <Dataset>  (273) 
ChEMBL_Kinases

>  <Ligand_Instance>  (273) 
nan

>  <PDB_ID>  (273) 
nan

>  <Standardized_SMILES>  (273) 
N#C/C(=C1/Nc2ccccc2S1)c1ccnc(NCCc2cccc(F)c2)n1

>  <Name>  (273) 
nan

>  <Pocket>  (273) 
nan

>  <ATP_Site>  (273) 
nan

>  <Peripheral>  (273) 
nan

>  <Num_H_Atoms_ProtBoundConf>  (273) 
nan

>  <Num_Resolved_Atoms>  (273) 
nan

>  <Num_Not_Resolved_Atoms>  (273) 
nan

$$$$
CHEMBL189434
     RDKit          3D

  0  0  0  0  0  0  0  0  0  0999 V3000
M  V30 BEGIN CTAB
M  V30 COUNTS 42 45 0 0 0
M  V30 BEGIN ATOM
M  V30 1 O -0.531156 -4.623378 2.993197 0
M  V30 2 C 0.515759 -4.293201 2.132977 0
M  V30 3 C -0.097427 -4.055157 0.775633 0
M  V30 4 N 0.820415 -3.701951 -0.251198 0
M  V30 5 C 1.333165 -2.497137 -0.657924 0
M  V30 6 N 2.104321 -3.244517 -1.617252 0
M  V30 7 C 2.962340 -2.707488 -2.497807 0
M  V30 8 N 3.179667 -1.383850 -2.559701 0
M  V30 9 C 2.548726 -0.520416 -1.741799 0
M  V30 10 O 2.325085 0.684270 -1.332126 0
M  V30 11 C 1.461135 0.790462 -0.358885 0
M  V30 12 C 1.085420 2.070386 0.231316 0
M  V30 13 C 0.353531 2.925110 -0.562289 0
M  V30 14 C -0.072364 4.164028 -0.140242 0
M  V30 15 C 0.282659 4.503109 1.145635 0
M  V30 16 C 1.018558 3.691319 1.998269 0
M  V30 17 C 1.423597 2.443072 1.512829 0
M  V30 18 C 1.062312 -0.540901 -0.094178 0
M  V30 19 C 0.058560 -0.599321 1.006133 0
M  V30 20 C -1.224461 -0.378840 0.488618 0
M  V30 21 C -2.260994 -0.366676 1.408399 0
M  V30 22 C -1.985447 -0.566614 2.739930 0
M  V30 23 C -0.739500 -0.780020 3.233783 0
M  V30 24 C 0.301013 -0.795872 2.346681 0
M  V30 25 C 1.814781 -1.365489 -1.039955 0
M  V30 26 H -0.953011 -3.823723 3.418118 0
M  V30 27 H 1.159265 -3.480661 2.491404 0
M  V30 28 H 1.149431 -5.225692 2.099327 0
M  V30 29 H -0.836600 -3.184277 0.846584 0
M  V30 30 H -0.805021 -4.895405 0.576931 0
M  V30 31 H 0.821888 -4.692508 -0.384018 0
M  V30 32 H 3.642368 -3.117495 -3.308243 0
M  V30 33 H 0.079964 2.643295 -1.578098 0
M  V30 34 H -0.648787 4.823338 -0.786083 0
M  V30 35 H -0.033771 5.477974 1.516602 0
M  V30 36 H 1.298370 3.962614 3.012047 0
M  V30 37 H 2.008934 1.727166 2.113116 0
M  V30 38 H -1.487001 -0.217429 -0.543215 0
M  V30 39 H -3.320692 -0.199303 1.129023 0
M  V30 40 H -2.810673 -0.551972 3.429750 0
M  V30 41 H -0.491089 -0.939961 4.287086 0
M  V30 42 H 1.351622 -0.949436 2.551339 0
M  V30 END ATOM
M  V30 BEGIN BOND
M  V30 1 1 1 2
M  V30 2 1 2 3
M  V30 3 1 3 4
M  V30 4 1 4 5
M  V30 5 2 5 6
M  V30 6 1 6 7
M  V30 7 2 7 8
M  V30 8 1 8 9
M  V30 9 1 9 10
M  V30 10 1 10 11
M  V30 11 1 11 12
M  V30 12 2 12 13
M  V30 13 1 13 14
M  V30 14 2 14 15
M  V30 15 1 15 16
M  V30 16 2 16 17
M  V30 17 2 11 18
M  V30 18 1 18 19
M  V30 19 2 19 20
M  V30 20 1 20 21
M  V30 21 2 21 22
M  V30 22 1 22 23
M  V30 23 2 23 24
M  V30 24 1 18 25
M  V30 25 1 25 5
M  V30 26 2 25 9
M  V30 27 1 17 12
M  V30 28 1 24 19
M  V30 29 1 1 26
M  V30 30 1 2 27
M  V30 31 1 2 28
M  V30 32 1 3 29
M  V30 33 1 3 30
M  V30 34 1 4 31
M  V30 35 1 7 32
M  V30 36 1 13 33
M  V30 37 1 14 34
M  V30 38 1 15 35
M  V30 39 1 16 36
M  V30 40 1 17 37
M  V30 41 1 20 38
M  V30 42 1 21 39
M  V30 43 1 22 40
M  V30 44 1 23 41
M  V30 45 1 24 42
M  V30 END BOND
M  V30 END CTAB
M  END
>  <Dataset>  (274) 
ChEMBL_Kinases

>  <Ligand_Instance>  (274) 
nan

>  <PDB_ID>  (274) 
nan

>  <Standardized_SMILES>  (274) 
OCCNc1ncnc2oc(-c3ccccc3)c(-c3ccccc3)c12

>  <Name>  (274) 
nan

>  <Pocket>  (274) 
nan

>  <ATP_Site>  (274) 
nan

>  <Peripheral>  (274) 
nan

>  <Num_H_Atoms_ProtBoundConf>  (274) 
nan

>  <Num_Resolved_Atoms>  (274) 
nan

>  <Num_Not_Resolved_Atoms>  (274) 
nan

$$$$
CHEMBL189459
     RDKit          3D

  0  0  0  0  0  0  0  0  0  0999 V3000
M  V30 BEGIN CTAB
M  V30 COUNTS 47 51 0 0 0
M  V30 BEGIN ATOM
M  V30 1 C -0.078043 -0.874795 6.573363 0
M  V30 2 C -0.129679 -1.082259 5.101081 0
M  V30 3 C 0.960986 -0.650804 4.353875 0
M  V30 4 C 0.962634 -0.821240 2.979587 0
M  V30 5 C -0.141454 -1.425616 2.388412 0
M  V30 6 C -0.368211 -1.700348 1.056094 0
M  V30 7 C 0.460357 -1.441866 -0.112137 0
M  V30 8 C 1.040290 -2.307429 -1.012545 0
M  V30 9 C 1.779808 -1.766533 -2.032419 0
M  V30 10 N 1.950278 -0.453406 -2.174034 0
M  V30 11 C 1.389437 0.399405 -1.301289 0
M  V30 12 N 1.603105 1.787469 -1.501646 0
M  V30 13 C 2.090641 2.746053 -0.578923 0
M  V30 14 C 2.218307 4.067828 -0.933890 0
M  V30 15 C 2.698006 4.986201 -0.027087 0
M  V30 16 C 3.055669 4.609002 1.238197 0
M  V30 17 C 2.951401 3.299486 1.655069 0
M  V30 18 C 2.466850 2.426577 0.708249 0
M  V30 19 N 0.667295 -0.116193 -0.305086 0
M  V30 20 C -1.609870 -2.297919 1.055120 0
M  V30 21 C -2.414032 -2.832033 -0.037313 0
M  V30 22 C -3.570718 -2.248759 -0.508692 0
M  V30 23 C -4.321805 -2.757834 -1.524955 0
M  V30 24 C -3.934565 -3.929716 -2.148911 0
M  V30 25 F -4.632552 -4.486188 -3.161475 0
M  V30 26 C -2.775160 -4.567877 -1.718985 0
M  V30 27 C -2.044036 -3.998495 -0.670096 0
M  V30 28 N -2.070044 -2.360561 2.327251 0
M  V30 29 N -1.174130 -1.827904 3.146005 0
M  V30 30 N -1.169380 -1.659743 4.476562 0
M  V30 31 H -0.416667 -1.825340 7.078064 0
M  V30 32 H -0.801899 -0.109791 6.890277 0
M  V30 33 H 0.952306 -0.709309 6.919154 0
M  V30 34 H 1.837749 -0.178344 4.757258 0
M  V30 35 H 1.786210 -0.503953 2.355135 0
M  V30 36 H 0.831064 -3.342605 -0.788532 0
M  V30 37 H 2.218388 -2.500110 -2.720253 0
M  V30 38 H 1.357176 2.086918 -2.456887 0
M  V30 39 H 1.936445 4.371349 -1.931823 0
M  V30 40 H 2.794480 6.023997 -0.318234 0
M  V30 41 H 3.435445 5.333372 1.954328 0
M  V30 42 H 3.222767 2.977414 2.633030 0
M  V30 43 H 2.364838 1.374500 0.989902 0
M  V30 44 H -3.911608 -1.335562 -0.054123 0
M  V30 45 H -5.235054 -2.269573 -1.875733 0
M  V30 46 H -2.469664 -5.486906 -2.207178 0
M  V30 47 H -1.173275 -4.564829 -0.412173 0
M  V30 END ATOM
M  V30 BEGIN BOND
M  V30 1 1 1 2
M  V30 2 1 2 3
M  V30 3 2 3 4
M  V30 4 1 4 5
M  V30 5 2 5 6
M  V30 6 1 6 7
M  V30 7 2 7 8
M  V30 8 1 8 9
M  V30 9 2 9 10
M  V30 10 1 10 11
M  V30 11 1 11 12
M  V30 12 1 12 13
M  V30 13 2 13 14
M  V30 14 1 14 15
M  V30 15 2 15 16
M  V30 16 1 16 17
M  V30 17 2 17 18
M  V30 18 2 11 19
M  V30 19 1 6 20
M  V30 20 1 20 21
M  V30 21 2 21 22
M  V30 22 1 22 23
M  V30 23 2 23 24
M  V30 24 1 24 25
M  V30 25 1 24 26
M  V30 26 2 26 27
M  V30 27 2 20 28
M  V30 28 1 28 29
M  V30 29 1 29 30
M  V30 30 2 30 2
M  V30 31 1 29 5
M  V30 32 1 19 7
M  V30 33 1 27 21
M  V30 34 1 18 13
M  V30 35 1 1 31
M  V30 36 1 1 32
M  V30 37 1 1 33
M  V30 38 1 3 34
M  V30 39 1 4 35
M  V30 40 1 8 36
M  V30 41 1 9 37
M  V30 42 1 12 38
M  V30 43 1 14 39
M  V30 44 1 15 40
M  V30 45 1 16 41
M  V30 46 1 17 42
M  V30 47 1 18 43
M  V30 48 1 22 44
M  V30 49 1 23 45
M  V30 50 1 26 46
M  V30 51 1 27 47
M  V30 END BOND
M  V30 END CTAB
M  END
>  <Dataset>  (275) 
ChEMBL_Kinases

>  <Ligand_Instance>  (275) 
nan

>  <PDB_ID>  (275) 
nan

>  <Standardized_SMILES>  (275) 
Cc1ccc2c(-c3ccnc(Nc4ccccc4)n3)c(-c3ccc(F)cc3)nn2n1

>  <Name>  (275) 
GW833373X

>  <Pocket>  (275) 
nan

>  <ATP_Site>  (275) 
nan

>  <Peripheral>  (275) 
nan

>  <Num_H_Atoms_ProtBoundConf>  (275) 
nan

>  <Num_Resolved_Atoms>  (275) 
nan

>  <Num_Not_Resolved_Atoms>  (275) 
nan

$$$$
CHEMBL189535
     RDKit          3D

  0  0  0  0  0  0  0  0  0  0999 V3000
M  V30 BEGIN CTAB
M  V30 COUNTS 52 55 0 0 0
M  V30 BEGIN ATOM
M  V30 1 C 0.064342 -5.603789 3.617141 0
M  V30 2 C 1.070231 -5.030114 2.683070 0
M  V30 3 O 2.260964 -5.165267 2.811373 0
M  V30 4 C 0.560089 -4.245647 1.526209 0
M  V30 5 N 1.588801 -3.707840 0.700465 0
M  V30 6 C 2.369787 -2.687797 1.277018 0
M  V30 7 C 3.205421 -1.887129 0.349070 0
M  V30 8 C 2.402677 -1.455436 -0.879976 0
M  V30 9 C 1.347408 -0.491758 -0.547118 0
M  V30 10 C 1.455695 0.872383 -0.834279 0
M  V30 11 C 0.290002 1.507132 -0.396180 0
M  V30 12 C -0.147024 2.900202 -0.431627 0
M  V30 13 C -0.361002 3.723717 -1.528472 0
M  V30 14 C -0.780745 5.024438 -1.321949 0
M  V30 15 N -0.990283 5.523484 -0.091191 0
M  V30 16 C -0.795853 4.766428 0.975206 0
M  V30 17 C -0.377907 3.464649 0.816201 0
M  V30 18 C -0.524123 0.532262 0.154508 0
M  V30 19 C -1.865142 0.568200 0.778858 0
M  V30 20 C -2.813553 1.034896 -0.140094 0
M  V30 21 C -4.138079 1.130538 0.277986 0
M  V30 22 C -4.454224 0.764049 1.569705 0
M  V30 23 F -5.726937 0.816667 2.093728 0
M  V30 24 C -3.509000 0.306900 2.461655 0
M  V30 25 C -2.185083 0.203497 2.068628 0
M  V30 26 N 0.141347 -0.652349 0.046730 0
M  V30 27 C 1.906877 -2.680828 -1.543753 0
M  V30 28 C 1.436021 -3.788583 -0.687118 0
M  V30 29 H 0.423860 -5.607909 4.674833 0
M  V30 30 H -0.253925 -6.623834 3.312077 0
M  V30 31 H -0.876362 -4.983069 3.623539 0
M  V30 32 H 0.019086 -3.370940 1.997374 0
M  V30 33 H -0.098725 -4.899911 0.948180 0
M  V30 34 H 3.018240 -3.064871 2.119967 0
M  V30 35 H 1.666536 -1.986263 1.812799 0
M  V30 36 H 4.045803 -2.494602 -0.019539 0
M  V30 37 H 3.619358 -0.998737 0.873655 0
M  V30 38 H 3.159279 -0.901666 -1.501509 0
M  V30 39 H 2.257707 1.441833 -1.310768 0
M  V30 40 H -0.165383 3.231030 -2.469271 0
M  V30 41 H -0.931342 5.622864 -2.227460 0
M  V30 42 H -0.969947 5.180126 1.978536 0
M  V30 43 H -0.240106 2.903834 1.741125 0
M  V30 44 H -2.632043 1.334891 -1.147902 0
M  V30 45 H -4.977900 1.477358 -0.331113 0
M  V30 46 H -3.709055 0.005352 3.492977 0
M  V30 47 H -1.335158 -0.139283 2.656483 0
M  V30 48 H -0.202674 -1.593508 0.368834 0
M  V30 49 H 1.165417 -2.392097 -2.343345 0
M  V30 50 H 2.771720 -3.082256 -2.152015 0
M  V30 51 H 0.330029 -3.908820 -0.900010 0
M  V30 52 H 1.849221 -4.788967 -1.019556 0
M  V30 END ATOM
M  V30 BEGIN BOND
M  V30 1 1 1 2
M  V30 2 2 2 3
M  V30 3 1 2 4
M  V30 4 1 4 5
M  V30 5 1 5 6
M  V30 6 1 6 7
M  V30 7 1 7 8
M  V30 8 1 8 9
M  V30 9 2 9 10
M  V30 10 1 10 11
M  V30 11 1 11 12
M  V30 12 2 12 13
M  V30 13 1 13 14
M  V30 14 2 14 15
M  V30 15 1 15 16
M  V30 16 2 16 17
M  V30 17 2 11 18
M  V30 18 1 18 19
M  V30 19 2 19 20
M  V30 20 1 20 21
M  V30 21 2 21 22
M  V30 22 1 22 23
M  V30 23 1 22 24
M  V30 24 2 24 25
M  V30 25 1 18 26
M  V30 26 1 8 27
M  V30 27 1 27 28
M  V30 28 1 28 5
M  V30 29 1 26 9
M  V30 30 1 17 12
M  V30 31 1 25 19
M  V30 32 1 1 29
M  V30 33 1 1 30
M  V30 34 1 1 31
M  V30 35 1 4 32
M  V30 36 1 4 33
M  V30 37 1 6 34
M  V30 38 1 6 35
M  V30 39 1 7 36
M  V30 40 1 7 37
M  V30 41 1 8 38
M  V30 42 1 10 39
M  V30 43 1 13 40
M  V30 44 1 14 41
M  V30 45 1 16 42
M  V30 46 1 17 43
M  V30 47 1 20 44
M  V30 48 1 21 45
M  V30 49 1 24 46
M  V30 50 1 25 47
M  V30 51 1 26 48
M  V30 52 1 27 49
M  V30 53 1 27 50
M  V30 54 1 28 51
M  V30 55 1 28 52
M  V30 END BOND
M  V30 END CTAB
M  END
>  <Dataset>  (276) 
ChEMBL_Kinases

>  <Ligand_Instance>  (276) 
nan

>  <PDB_ID>  (276) 
nan

>  <Standardized_SMILES>  (276) 
CC(=O)CN1CCC(c2cc(-c3ccncc3)c(-c3ccc(F)cc3)[nH]2)CC1

>  <Name>  (276) 
nan

>  <Pocket>  (276) 
nan

>  <ATP_Site>  (276) 
nan

>  <Peripheral>  (276) 
nan

>  <Num_H_Atoms_ProtBoundConf>  (276) 
nan

>  <Num_Resolved_Atoms>  (276) 
nan

>  <Num_Not_Resolved_Atoms>  (276) 
nan

$$$$
CHEMBL189736
     RDKit          3D

  0  0  0  0  0  0  0  0  0  0999 V3000
M  V30 BEGIN CTAB
M  V30 COUNTS 59 63 0 0 0
M  V30 BEGIN ATOM
M  V30 1 C 3.269041 2.277810 4.810055 0
M  V30 2 N 2.872964 0.973644 4.277492 0
M  V30 3 C 3.255758 -0.111163 5.206025 0
M  V30 4 C 3.526292 -0.918441 3.913027 0
M  V30 5 C 3.901858 0.422607 3.407430 0
M  V30 6 C 3.871100 0.758112 1.980939 0
M  V30 7 N 2.737539 0.411862 1.195905 0
M  V30 8 C 3.018759 0.975462 -0.141228 0
M  V30 9 C 1.772201 0.893947 -0.976041 0
M  V30 10 C 1.584597 -0.575411 -1.302901 0
M  V30 11 C 0.141967 -0.923649 -1.242189 0
M  V30 12 C -0.747481 -0.803528 -0.195613 0
M  V30 13 C -2.014752 -1.243114 -0.548564 0
M  V30 14 C -3.165130 -1.232271 0.364448 0
M  V30 15 C -3.475162 0.048385 0.793441 0
M  V30 16 C -4.538749 0.228456 1.661755 0
M  V30 17 N -5.271948 -0.803673 2.095005 0
M  V30 18 C -4.958502 -2.032667 1.670872 0
M  V30 19 C -3.914312 -2.301512 0.804918 0
M  V30 20 C -1.890053 -1.645042 -1.858416 0
M  V30 21 C -3.005226 -2.184402 -2.629003 0
M  V30 22 C -4.151848 -1.478846 -2.928065 0
M  V30 23 C -5.115851 -2.125530 -3.664517 0
M  V30 24 C -5.004641 -3.423760 -4.116491 0
M  V30 25 F -5.977033 -4.047031 -4.848313 0
M  V30 26 C -3.838713 -4.084796 -3.790227 0
M  V30 27 C -2.809406 -3.497373 -3.044066 0
M  V30 28 N -0.630371 -1.448968 -2.234642 0
M  V30 29 C 2.443928 -1.448159 -0.429074 0
M  V30 30 C 2.538407 -0.996631 1.003356 0
M  V30 31 H 2.588892 2.615374 5.604447 0
M  V30 32 H 3.295679 2.981649 3.971864 0
M  V30 33 H 4.284709 2.105692 5.264477 0
M  V30 34 H 4.210600 0.042625 5.718966 0
M  V30 35 H 2.451843 -0.506995 5.822457 0
M  V30 36 H 4.358644 -1.644192 4.045610 0
M  V30 37 H 2.587110 -1.381600 3.639315 0
M  V30 38 H 4.894475 0.716120 3.890259 0
M  V30 39 H 4.824394 0.366882 1.512123 0
M  V30 40 H 4.004662 1.881969 1.869202 0
M  V30 41 H 3.819305 0.347712 -0.569364 0
M  V30 42 H 3.385014 2.027482 -0.030549 0
M  V30 43 H 0.918855 1.257813 -0.399702 0
M  V30 44 H 1.935227 1.464131 -1.919963 0
M  V30 45 H 1.917645 -0.771641 -2.348120 0
M  V30 46 H -0.497920 -0.417565 0.774877 0
M  V30 47 H -2.951244 0.947662 0.507143 0
M  V30 48 H -4.798352 1.234481 2.012305 0
M  V30 49 H -5.531421 -2.898265 2.001119 0
M  V30 50 H -3.599261 -3.245144 0.419682 0
M  V30 51 H -4.249291 -0.472584 -2.583385 0
M  V30 52 H -6.022205 -1.570016 -3.901868 0
M  V30 53 H -3.745649 -5.118588 -4.148827 0
M  V30 54 H -1.918638 -4.072635 -2.821801 0
M  V30 55 H -0.295778 -1.686757 -3.211217 0
M  V30 56 H 1.938846 -2.457377 -0.398246 0
M  V30 57 H 3.424553 -1.611800 -0.903371 0
M  V30 58 H 1.585408 -1.302878 1.533834 0
M  V30 59 H 3.427533 -1.510812 1.422962 0
M  V30 END ATOM
M  V30 BEGIN BOND
M  V30 1 1 1 2
M  V30 2 1 2 3
M  V30 3 1 3 4
M  V30 4 1 4 5
M  V30 5 1 5 6
M  V30 6 1 6 7
M  V30 7 1 7 8
M  V30 8 1 8 9
M  V30 9 1 9 10
M  V30 10 1 10 11
M  V30 11 2 11 12
M  V30 12 1 12 13
M  V30 13 1 13 14
M  V30 14 2 14 15
M  V30 15 1 15 16
M  V30 16 2 16 17
M  V30 17 1 17 18
M  V30 18 2 18 19
M  V30 19 2 13 20
M  V30 20 1 20 21
M  V30 21 2 21 22
M  V30 22 1 22 23
M  V30 23 2 23 24
M  V30 24 1 24 25
M  V30 25 1 24 26
M  V30 26 2 26 27
M  V30 27 1 20 28
M  V30 28 1 10 29
M  V30 29 1 29 30
M  V30 30 1 5 2
M  V30 31 1 30 7
M  V30 32 1 28 11
M  V30 33 1 19 14
M  V30 34 1 27 21
M  V30 35 1 1 31
M  V30 36 1 1 32
M  V30 37 1 1 33
M  V30 38 1 3 34
M  V30 39 1 3 35
M  V30 40 1 4 36
M  V30 41 1 4 37
M  V30 42 1 5 38
M  V30 43 1 6 39
M  V30 44 1 6 40
M  V30 45 1 8 41
M  V30 46 1 8 42
M  V30 47 1 9 43
M  V30 48 1 9 44
M  V30 49 1 10 45
M  V30 50 1 12 46
M  V30 51 1 15 47
M  V30 52 1 16 48
M  V30 53 1 18 49
M  V30 54 1 19 50
M  V30 55 1 22 51
M  V30 56 1 23 52
M  V30 57 1 26 53
M  V30 58 1 27 54
M  V30 59 1 28 55
M  V30 60 1 29 56
M  V30 61 1 29 57
M  V30 62 1 30 58
M  V30 63 1 30 59
M  V30 END BOND
M  V30 END CTAB
M  END
>  <Dataset>  (277) 
ChEMBL_Kinases

>  <Ligand_Instance>  (277) 
nan

>  <PDB_ID>  (277) 
nan

>  <Standardized_SMILES>  (277) 
CN1CCC1CN1CCC(c2cc(-c3ccncc3)c(-c3ccc(F)cc3)[nH]2)CC1

>  <Name>  (277) 
nan

>  <Pocket>  (277) 
nan

>  <ATP_Site>  (277) 
nan

>  <Peripheral>  (277) 
nan

>  <Num_H_Atoms_ProtBoundConf>  (277) 
nan

>  <Num_Resolved_Atoms>  (277) 
nan

>  <Num_Not_Resolved_Atoms>  (277) 
nan

$$$$
CHEMBL189231
     RDKit          3D

  0  0  0  0  0  0  0  0  0  0999 V3000
M  V30 BEGIN CTAB
M  V30 COUNTS 37 40 0 0 0
M  V30 BEGIN ATOM
M  V30 1 N 0.643030 -3.121819 2.946241 0
M  V30 2 C 1.597711 -2.266800 3.474866 0
M  V30 3 N 2.244173 -2.714880 4.568917 0
M  V30 4 O 3.049619 -1.729277 4.847140 0
M  V30 5 N 2.924827 -0.767434 4.020559 0
M  V30 6 C 2.009156 -1.032825 3.102811 0
M  V30 7 C 1.689825 -0.108096 2.041780 0
M  V30 8 N 2.309717 1.082975 1.979096 0
M  V30 9 C 1.910281 1.815035 0.947265 0
M  V30 10 C 2.375903 3.073031 0.643772 0
M  V30 11 N 1.844925 3.676748 -0.460264 0
M  V30 12 C 0.908620 3.011968 -1.176607 0
M  V30 13 C 0.476346 1.733127 -0.815957 0
M  V30 14 C 0.965228 1.080008 0.269337 0
M  V30 15 N 0.890423 -0.045966 0.978007 0
M  V30 16 C -0.021527 -1.007953 0.467111 0
M  V30 17 C -1.485004 -0.641963 0.597724 0
M  V30 18 C -2.295696 -1.825105 0.139836 0
M  V30 19 C -2.057377 -2.258191 -1.261549 0
M  V30 20 C -0.812307 -1.662691 -1.835878 0
M  V30 21 C 0.324058 -1.465326 -0.938314 0
M  V30 22 H -0.335327 -2.863948 3.214277 0
M  V30 23 H 0.482118 -3.965522 2.357624 0
M  V30 24 H 3.125809 3.567250 1.244898 0
M  V30 25 H 0.489768 3.495517 -2.052565 0
M  V30 26 H -0.257791 1.214040 -1.374373 0
M  V30 27 H 0.058191 -1.932945 1.037526 0
M  V30 28 H -1.772350 0.320428 0.180392 0
M  V30 29 H -1.762637 -0.541117 1.691386 0
M  V30 30 H -1.986526 -2.671097 0.821029 0
M  V30 31 H -3.380102 -1.691400 0.360235 0
M  V30 32 H -2.016312 -3.376820 -1.273340 0
M  V30 33 H -2.955878 -2.046428 -1.921429 0
M  V30 34 H -1.059046 -0.742147 -2.448212 0
M  V30 35 H -0.481516 -2.375237 -2.657007 0
M  V30 36 H 1.043674 -0.737360 -1.354997 0
M  V30 37 H 0.913644 -2.434203 -0.918365 0
M  V30 END ATOM
M  V30 BEGIN BOND
M  V30 1 1 1 2
M  V30 2 2 2 3
M  V30 3 1 3 4
M  V30 4 1 4 5
M  V30 5 2 5 6
M  V30 6 1 6 7
M  V30 7 2 7 8
M  V30 8 1 8 9
M  V30 9 2 9 10
M  V30 10 1 10 11
M  V30 11 2 11 12
M  V30 12 1 12 13
M  V30 13 2 13 14
M  V30 14 1 14 15
M  V30 15 1 15 16
M  V30 16 1 16 17
M  V30 17 1 17 18
M  V30 18 1 18 19
M  V30 19 1 19 20
M  V30 20 1 20 21
M  V30 21 1 6 2
M  V30 22 1 15 7
M  V30 23 1 21 16
M  V30 24 1 14 9
M  V30 25 1 1 22
M  V30 26 1 1 23
M  V30 27 1 10 24
M  V30 28 1 12 25
M  V30 29 1 13 26
M  V30 30 1 16 27
M  V30 31 1 17 28
M  V30 32 1 17 29
M  V30 33 1 18 30
M  V30 34 1 18 31
M  V30 35 1 19 32
M  V30 36 1 19 33
M  V30 37 1 20 34
M  V30 38 1 20 35
M  V30 39 1 21 36
M  V30 40 1 21 37
M  V30 END BOND
M  V30 END CTAB
M  END
>  <Dataset>  (278) 
ChEMBL_Kinases

>  <Ligand_Instance>  (278) 
nan

>  <PDB_ID>  (278) 
nan

>  <Standardized_SMILES>  (278) 
Nc1nonc1-c1nc2cnccc2n1C1CCCCC1

>  <Name>  (278) 
nan

>  <Pocket>  (278) 
nan

>  <ATP_Site>  (278) 
nan

>  <Peripheral>  (278) 
nan

>  <Num_H_Atoms_ProtBoundConf>  (278) 
nan

>  <Num_Resolved_Atoms>  (278) 
nan

>  <Num_Not_Resolved_Atoms>  (278) 
nan

$$$$
CHEMBL1911194
     RDKit          3D

  0  0  0  0  0  0  0  0  0  0999 V3000
M  V30 BEGIN CTAB
M  V30 COUNTS 50 54 0 0 0
M  V30 BEGIN ATOM
M  V30 1 C 5.022177 -5.143678 2.197939 0
M  V30 2 C 5.252836 -3.906668 1.368597 0
M  V30 3 N 6.378318 -3.482589 0.768216 0
M  V30 4 N 6.123269 -2.331851 0.138582 0
M  V30 5 C 4.831284 -2.007890 0.329879 0
M  V30 6 C 4.142639 -0.827107 -0.187244 0
M  V30 7 C 4.755729 0.134170 -0.962759 0
M  V30 8 C 4.018072 1.213136 -1.402587 0
M  V30 9 C 2.683341 1.347953 -1.082254 0
M  V30 10 C 1.910725 2.518322 -1.570285 0
M  V30 11 C 2.016150 0.419654 -0.310565 0
M  V30 12 C 0.611449 0.484581 0.076558 0
M  V30 13 C -0.126166 1.514648 0.561919 0
M  V30 14 C -1.461629 1.340651 0.860870 0
M  V30 15 C -2.112577 0.136759 0.688422 0
M  V30 16 C -1.355983 -0.924723 0.189238 0
M  V30 17 C -0.018300 -0.752133 -0.110721 0
M  V30 18 N -2.263112 -2.027766 0.112338 0
M  V30 19 C -3.559120 -1.656463 0.556050 0
M  V30 20 O -4.567398 -2.435279 0.597723 0
M  V30 21 C -3.511515 -0.214247 0.953636 0
M  V30 22 C -3.736064 -0.176756 2.448051 0
M  V30 23 C -5.134144 -0.604049 2.826276 0
M  V30 24 O -5.984875 -0.497920 1.750248 0
M  V30 25 C -5.811531 0.639571 0.980913 0
M  V30 26 C -4.518680 0.581419 0.191263 0
M  V30 27 C 2.806510 -0.644783 0.104378 0
M  V30 28 N 4.313269 -2.990413 1.089717 0
M  V30 29 H 5.323734 -4.981792 3.248916 0
M  V30 30 H 5.522504 -5.981744 1.708197 0
M  V30 31 H 3.933712 -5.363996 2.198388 0
M  V30 32 H 5.802193 -0.042158 -1.170519 0
M  V30 33 H 4.520063 1.956795 -2.010911 0
M  V30 34 H 2.022262 3.369307 -0.852136 0
M  V30 35 H 2.273331 2.799564 -2.584537 0
M  V30 36 H 0.828570 2.305588 -1.685333 0
M  V30 37 H 0.436395 2.424492 0.675097 0
M  V30 38 H -1.922594 2.264588 1.243823 0
M  V30 39 H 0.460578 -1.666580 -0.495641 0
M  V30 40 H -2.021514 -3.000985 -0.227377 0
M  V30 41 H -3.499721 0.808887 2.867109 0
M  V30 42 H -3.035596 -0.906468 2.903845 0
M  V30 43 H -5.483861 -0.047072 3.723762 0
M  V30 44 H -5.157846 -1.691540 3.129885 0
M  V30 45 H -5.814425 1.511207 1.663712 0
M  V30 46 H -6.659667 0.701817 0.287474 0
M  V30 47 H -4.221101 1.621872 -0.011099 0
M  V30 48 H -4.759050 0.030204 -0.752672 0
M  V30 49 H 2.323366 -1.404312 0.716751 0
M  V30 50 H 3.325517 -3.055660 1.428133 0
M  V30 END ATOM
M  V30 BEGIN BOND
M  V30 1 1 1 2
M  V30 2 2 2 3
M  V30 3 1 3 4
M  V30 4 2 4 5
M  V30 5 1 5 6
M  V30 6 2 6 7
M  V30 7 1 7 8
M  V30 8 2 8 9
M  V30 9 1 9 10
M  V30 10 1 9 11
M  V30 11 1 11 12
M  V30 12 2 12 13
M  V30 13 1 13 14
M  V30 14 2 14 15
M  V30 15 1 15 16
M  V30 16 2 16 17
M  V30 17 1 16 18
M  V30 18 1 18 19
M  V30 19 2 19 20
M  V30 20 1 19 21
M  V30 21 1 21 22
M  V30 22 1 22 23
M  V30 23 1 23 24
M  V30 24 1 24 25
M  V30 25 1 25 26
M  V30 26 2 11 27
M  V30 27 1 5 28
M  V30 28 1 28 2
M  V30 29 1 27 6
M  V30 30 1 17 12
M  V30 31 1 26 21
M  V30 32 1 21 15
M  V30 33 1 1 29
M  V30 34 1 1 30
M  V30 35 1 1 31
M  V30 36 1 7 32
M  V30 37 1 8 33
M  V30 38 1 10 34
M  V30 39 1 10 35
M  V30 40 1 10 36
M  V30 41 1 13 37
M  V30 42 1 14 38
M  V30 43 1 17 39
M  V30 44 1 18 40
M  V30 45 1 22 41
M  V30 46 1 22 42
M  V30 47 1 23 43
M  V30 48 1 23 44
M  V30 49 1 25 45
M  V30 50 1 25 46
M  V30 51 1 26 47
M  V30 52 1 26 48
M  V30 53 1 27 49
M  V30 54 1 28 50
M  V30 END BOND
M  V30 END CTAB
M  END
>  <Dataset>  (279) 
ChEMBL_Kinases

>  <Ligand_Instance>  (279) 
nan

>  <PDB_ID>  (279) 
nan

>  <Standardized_SMILES>  (279) 
Cc1nnc(-c2ccc(C)c(-c3ccc4c(c3)NC(=O)C43CCOCC3)c2)[nH]1

>  <Name>  (279) 
nan

>  <Pocket>  (279) 
nan

>  <ATP_Site>  (279) 
nan

>  <Peripheral>  (279) 
nan

>  <Num_H_Atoms_ProtBoundConf>  (279) 
nan

>  <Num_Resolved_Atoms>  (279) 
nan

>  <Num_Not_Resolved_Atoms>  (279) 
nan

$$$$
CHEMBL1911193
     RDKit          3D

  0  0  0  0  0  0  0  0  0  0999 V3000
M  V30 BEGIN CTAB
M  V30 COUNTS 49 53 0 0 0
M  V30 BEGIN ATOM
M  V30 1 C 3.735109 -6.398301 -0.498300 0
M  V30 2 C 3.689936 -5.122880 -1.273340 0
M  V30 3 N 4.416240 -4.857015 -2.378336 0
M  V30 4 N 4.121524 -3.619789 -2.808448 0
M  V30 5 C 3.207795 -3.114313 -1.966872 0
M  V30 6 C 2.602086 -1.783211 -2.059497 0
M  V30 7 C 2.926684 -0.908254 -3.047127 0
M  V30 8 C 2.354161 0.350321 -3.134937 0
M  V30 9 C 1.418831 0.726156 -2.181041 0
M  V30 10 C 0.766042 2.042384 -2.203597 0
M  V30 11 C 1.071138 -0.126304 -1.178485 0
M  V30 12 C 0.107770 0.130300 -0.110726 0
M  V30 13 C 0.482572 -0.230993 1.182809 0
M  V30 14 C -0.378898 -0.021074 2.265456 0
M  V30 15 C -1.611843 0.558307 1.991687 0
M  V30 16 C -2.018493 0.929439 0.724596 0
M  V30 17 C -1.133966 0.702358 -0.311579 0
M  V30 18 N -3.326642 1.485015 0.820884 0
M  V30 19 C -3.729260 1.448762 2.205248 0
M  V30 20 O -4.832006 1.860866 2.654269 0
M  V30 21 C -2.649439 0.850989 3.035130 0
M  V30 22 C -3.167403 -0.394973 3.675314 0
M  V30 23 C -3.147490 -0.127725 5.170287 0
M  V30 24 C -2.957086 1.374179 5.308004 0
M  V30 25 C -2.146740 1.773048 4.092225 0
M  V30 26 C 1.669212 -1.386805 -1.122180 0
M  V30 27 N 2.931292 -4.040967 -1.007106 0
M  V30 28 H 4.806582 -6.709487 -0.369875 0
M  V30 29 H 3.092105 -7.184425 -0.914163 0
M  V30 30 H 3.371369 -6.229293 0.547566 0
M  V30 31 H 3.660336 -1.192171 -3.802445 0
M  V30 32 H 2.610237 1.051345 -3.921104 0
M  V30 33 H -0.067042 2.142978 -2.920019 0
M  V30 34 H 0.525452 2.386505 -1.173714 0
M  V30 35 H 1.530597 2.789910 -2.566355 0
M  V30 36 H 1.462102 -0.686254 1.367382 0
M  V30 37 H -0.044109 -0.314932 3.232253 0
M  V30 38 H -1.418950 0.979791 -1.312956 0
M  V30 39 H -3.884389 1.849085 0.030472 0
M  V30 40 H -4.230033 -0.592162 3.378398 0
M  V30 41 H -2.601399 -1.308910 3.415302 0
M  V30 42 H -4.083099 -0.459140 5.664828 0
M  V30 43 H -2.301773 -0.677335 5.654858 0
M  V30 44 H -3.964238 1.844363 5.255506 0
M  V30 45 H -2.448352 1.651581 6.254481 0
M  V30 46 H -1.060122 1.697061 4.260887 0
M  V30 47 H -2.460645 2.831490 3.866886 0
M  V30 48 H 1.428381 -2.110871 -0.340499 0
M  V30 49 H 2.268762 -3.966100 -0.206431 0
M  V30 END ATOM
M  V30 BEGIN BOND
M  V30 1 1 1 2
M  V30 2 2 2 3
M  V30 3 1 3 4
M  V30 4 2 4 5
M  V30 5 1 5 6
M  V30 6 2 6 7
M  V30 7 1 7 8
M  V30 8 2 8 9
M  V30 9 1 9 10
M  V30 10 1 9 11
M  V30 11 1 11 12
M  V30 12 2 12 13
M  V30 13 1 13 14
M  V30 14 2 14 15
M  V30 15 1 15 16
M  V30 16 2 16 17
M  V30 17 1 16 18
M  V30 18 1 18 19
M  V30 19 2 19 20
M  V30 20 1 19 21
M  V30 21 1 21 22
M  V30 22 1 22 23
M  V30 23 1 23 24
M  V30 24 1 24 25
M  V30 25 2 11 26
M  V30 26 1 5 27
M  V30 27 1 27 2
M  V30 28 1 26 6
M  V30 29 1 17 12
M  V30 30 1 25 21
M  V30 31 1 21 15
M  V30 32 1 1 28
M  V30 33 1 1 29
M  V30 34 1 1 30
M  V30 35 1 7 31
M  V30 36 1 8 32
M  V30 37 1 10 33
M  V30 38 1 10 34
M  V30 39 1 10 35
M  V30 40 1 13 36
M  V30 41 1 14 37
M  V30 42 1 17 38
M  V30 43 1 18 39
M  V30 44 1 22 40
M  V30 45 1 22 41
M  V30 46 1 23 42
M  V30 47 1 23 43
M  V30 48 1 24 44
M  V30 49 1 24 45
M  V30 50 1 25 46
M  V30 51 1 25 47
M  V30 52 1 26 48
M  V30 53 1 27 49
M  V30 END BOND
M  V30 END CTAB
M  END
>  <Dataset>  (280) 
ChEMBL_Kinases

>  <Ligand_Instance>  (280) 
nan

>  <PDB_ID>  (280) 
nan

>  <Standardized_SMILES>  (280) 
Cc1nnc(-c2ccc(C)c(-c3ccc4c(c3)NC(=O)C43CCCC3)c2)[nH]1

>  <Name>  (280) 
nan

>  <Pocket>  (280) 
nan

>  <ATP_Site>  (280) 
nan

>  <Peripheral>  (280) 
nan

>  <Num_H_Atoms_ProtBoundConf>  (280) 
nan

>  <Num_Resolved_Atoms>  (280) 
nan

>  <Num_Not_Resolved_Atoms>  (280) 
nan

$$$$
CHEMBL1911192
     RDKit          3D

  0  0  0  0  0  0  0  0  0  0999 V3000
M  V30 BEGIN CTAB
M  V30 COUNTS 48 52 0 0 0
M  V30 BEGIN ATOM
M  V30 1 C 4.520123 -5.942783 -0.258108 0
M  V30 2 C 4.375889 -4.832622 -1.247105 0
M  V30 3 N 4.935192 -4.512551 -2.427149 0
M  V30 4 O 4.415134 -3.403601 -2.855113 0
M  V30 5 C 3.517638 -2.947757 -2.012755 0
M  V30 6 C 2.712804 -1.733369 -2.130921 0
M  V30 7 C 2.868169 -0.925074 -3.238680 0
M  V30 8 C 2.100609 0.217498 -3.334465 0
M  V30 9 C 1.194271 0.555910 -2.351682 0
M  V30 10 C 0.356236 1.767138 -2.416915 0
M  V30 11 C 1.033784 -0.252964 -1.235671 0
M  V30 12 C 0.110843 -0.010438 -0.124228 0
M  V30 13 C 0.656351 -0.201538 1.151477 0
M  V30 14 C -0.160343 0.010370 2.243814 0
M  V30 15 C -1.481584 0.399063 2.154813 0
M  V30 16 C -1.990671 0.579506 0.879177 0
M  V30 17 C -1.209575 0.378800 -0.245007 0
M  V30 18 N -3.357539 0.978206 0.924380 0
M  V30 19 C -3.718902 1.049413 2.319734 0
M  V30 20 O -4.863895 1.374863 2.701844 0
M  V30 21 C -2.537743 0.683675 3.139657 0
M  V30 22 C -2.824121 -0.429562 4.093566 0
M  V30 23 C -3.583515 0.263268 5.211955 0
M  V30 24 C -3.311792 1.732006 5.080316 0
M  V30 25 C -2.236811 1.872520 4.013597 0
M  V30 26 C 1.820127 -1.408635 -1.153651 0
M  V30 27 N 3.481227 -3.832441 -0.999224 0
M  V30 28 H 5.115442 -5.582898 0.584168 0
M  V30 29 H 5.019537 -6.826032 -0.719811 0
M  V30 30 H 3.530587 -6.278944 0.115424 0
M  V30 31 H 3.550642 -1.123842 -4.039493 0
M  V30 32 H 2.171811 0.901358 -4.181986 0
M  V30 33 H 0.110135 2.202027 -1.436955 0
M  V30 34 H -0.529171 1.636633 -3.090288 0
M  V30 35 H 0.991219 2.554125 -2.920467 0
M  V30 36 H 1.686888 -0.507051 1.315486 0
M  V30 37 H 0.226579 -0.127948 3.261087 0
M  V30 38 H -1.585300 0.513558 -1.250949 0
M  V30 39 H -4.003654 1.186882 0.127954 0
M  V30 40 H -3.435180 -1.256770 3.650449 0
M  V30 41 H -1.886079 -0.802685 4.521750 0
M  V30 42 H -4.661726 0.046662 5.054616 0
M  V30 43 H -3.225672 -0.114693 6.213434 0
M  V30 44 H -4.236464 2.268700 4.769837 0
M  V30 45 H -2.970495 2.139047 6.063680 0
M  V30 46 H -1.223015 1.875175 4.438570 0
M  V30 47 H -2.466112 2.789220 3.434783 0
M  V30 48 H 1.742147 -2.088643 -0.300224 0
M  V30 END ATOM
M  V30 BEGIN BOND
M  V30 1 1 1 2
M  V30 2 2 2 3
M  V30 3 1 3 4
M  V30 4 1 4 5
M  V30 5 1 5 6
M  V30 6 2 6 7
M  V30 7 1 7 8
M  V30 8 2 8 9
M  V30 9 1 9 10
M  V30 10 1 9 11
M  V30 11 1 11 12
M  V30 12 2 12 13
M  V30 13 1 13 14
M  V30 14 2 14 15
M  V30 15 1 15 16
M  V30 16 2 16 17
M  V30 17 1 16 18
M  V30 18 1 18 19
M  V30 19 2 19 20
M  V30 20 1 19 21
M  V30 21 1 21 22
M  V30 22 1 22 23
M  V30 23 1 23 24
M  V30 24 1 24 25
M  V30 25 2 11 26
M  V30 26 2 5 27
M  V30 27 1 27 2
M  V30 28 1 26 6
M  V30 29 1 17 12
M  V30 30 1 25 21
M  V30 31 1 21 15
M  V30 32 1 1 28
M  V30 33 1 1 29
M  V30 34 1 1 30
M  V30 35 1 7 31
M  V30 36 1 8 32
M  V30 37 1 10 33
M  V30 38 1 10 34
M  V30 39 1 10 35
M  V30 40 1 13 36
M  V30 41 1 14 37
M  V30 42 1 17 38
M  V30 43 1 18 39
M  V30 44 1 22 40
M  V30 45 1 22 41
M  V30 46 1 23 42
M  V30 47 1 23 43
M  V30 48 1 24 44
M  V30 49 1 24 45
M  V30 50 1 25 46
M  V30 51 1 25 47
M  V30 52 1 26 48
M  V30 END BOND
M  V30 END CTAB
M  END
>  <Dataset>  (281) 
ChEMBL_Kinases

>  <Ligand_Instance>  (281) 
nan

>  <PDB_ID>  (281) 
nan

>  <Standardized_SMILES>  (281) 
Cc1noc(-c2ccc(C)c(-c3ccc4c(c3)NC(=O)C43CCCC3)c2)n1

>  <Name>  (281) 
nan

>  <Pocket>  (281) 
nan

>  <ATP_Site>  (281) 
nan

>  <Peripheral>  (281) 
nan

>  <Num_H_Atoms_ProtBoundConf>  (281) 
nan

>  <Num_Resolved_Atoms>  (281) 
nan

>  <Num_Not_Resolved_Atoms>  (281) 
nan

$$$$
CHEMBL1911191
     RDKit          3D

  0  0  0  0  0  0  0  0  0  0999 V3000
M  V30 BEGIN CTAB
M  V30 COUNTS 48 52 0 0 0
M  V30 BEGIN ATOM
M  V30 1 C 1.729863 -7.225074 -0.247675 0
M  V30 2 C 1.761756 -6.172131 -1.297184 0
M  V30 3 N 1.764255 -4.842152 -1.049489 0
M  V30 4 C 1.796733 -4.145298 -2.217697 0
M  V30 5 C 1.807601 -2.685780 -2.284096 0
M  V30 6 C 2.471667 -2.001462 -3.280795 0
M  V30 7 C 2.426579 -0.624283 -3.262335 0
M  V30 8 C 1.745374 0.057489 -2.287746 0
M  V30 9 C 1.698548 1.538349 -2.269972 0
M  V30 10 C 1.074497 -0.577730 -1.282781 0
M  V30 11 C 0.315955 0.035830 -0.192860 0
M  V30 12 C 0.566087 -0.525624 1.066070 0
M  V30 13 C -0.051276 -0.085690 2.219790 0
M  V30 14 C -0.949129 0.955090 2.091331 0
M  V30 15 C -1.219399 1.532185 0.864228 0
M  V30 16 C -0.589302 1.074942 -0.276230 0
M  V30 17 N -2.184463 2.587405 1.011970 0
M  V30 18 C -2.505887 2.638422 2.414655 0
M  V30 19 O -3.346962 3.503678 2.788618 0
M  V30 20 C -1.743546 1.616258 3.147462 0
M  V30 21 C -0.920726 2.243698 4.219442 0
M  V30 22 C -1.910164 2.423303 5.351918 0
M  V30 23 C -3.092035 1.552457 5.039576 0
M  V30 24 C -2.608111 0.656629 3.916868 0
M  V30 25 C 1.124040 -1.976999 -1.307000 0
M  V30 26 N 1.813529 -5.103077 -3.170565 0
M  V30 27 O 1.792333 -6.265717 -2.595360 0
M  V30 28 H 2.376170 -8.049821 -0.582270 0
M  V30 29 H 0.666275 -7.529324 -0.072626 0
M  V30 30 H 2.173349 -6.799773 0.694617 0
M  V30 31 H 2.994036 -2.581717 -4.026169 0
M  V30 32 H 2.944957 -0.081681 -4.040643 0
M  V30 33 H 0.919407 1.922938 -2.943240 0
M  V30 34 H 1.606449 1.974347 -1.264771 0
M  V30 35 H 2.673511 1.920072 -2.677039 0
M  V30 36 H 1.273280 -1.352729 1.200307 0
M  V30 37 H 0.160295 -0.538233 3.184024 0
M  V30 38 H -0.738057 1.463102 -1.270113 0
M  V30 39 H -2.541979 3.168039 0.212006 0
M  V30 40 H -0.108473 1.576382 4.587381 0
M  V30 41 H -0.541347 3.237908 3.883626 0
M  V30 42 H -1.457234 2.106978 6.332957 0
M  V30 43 H -2.254166 3.483783 5.461258 0
M  V30 44 H -3.434622 0.964744 5.915822 0
M  V30 45 H -3.924165 2.168248 4.618076 0
M  V30 46 H -1.975342 -0.101403 4.380587 0
M  V30 47 H -3.443901 0.242604 3.321624 0
M  V30 48 H 0.607765 -2.546393 -0.530829 0
M  V30 END ATOM
M  V30 BEGIN BOND
M  V30 1 1 1 2
M  V30 2 2 2 3
M  V30 3 1 3 4
M  V30 4 1 4 5
M  V30 5 2 5 6
M  V30 6 1 6 7
M  V30 7 2 7 8
M  V30 8 1 8 9
M  V30 9 1 8 10
M  V30 10 1 10 11
M  V30 11 2 11 12
M  V30 12 1 12 13
M  V30 13 2 13 14
M  V30 14 1 14 15
M  V30 15 2 15 16
M  V30 16 1 15 17
M  V30 17 1 17 18
M  V30 18 2 18 19
M  V30 19 1 18 20
M  V30 20 1 20 21
M  V30 21 1 21 22
M  V30 22 1 22 23
M  V30 23 1 23 24
M  V30 24 2 10 25
M  V30 25 2 4 26
M  V30 26 1 26 27
M  V30 27 1 27 2
M  V30 28 1 25 5
M  V30 29 1 16 11
M  V30 30 1 24 20
M  V30 31 1 20 14
M  V30 32 1 1 28
M  V30 33 1 1 29
M  V30 34 1 1 30
M  V30 35 1 6 31
M  V30 36 1 7 32
M  V30 37 1 9 33
M  V30 38 1 9 34
M  V30 39 1 9 35
M  V30 40 1 12 36
M  V30 41 1 13 37
M  V30 42 1 16 38
M  V30 43 1 17 39
M  V30 44 1 21 40
M  V30 45 1 21 41
M  V30 46 1 22 42
M  V30 47 1 22 43
M  V30 48 1 23 44
M  V30 49 1 23 45
M  V30 50 1 24 46
M  V30 51 1 24 47
M  V30 52 1 25 48
M  V30 END BOND
M  V30 END CTAB
M  END
>  <Dataset>  (282) 
ChEMBL_Kinases

>  <Ligand_Instance>  (282) 
nan

>  <PDB_ID>  (282) 
nan

>  <Standardized_SMILES>  (282) 
Cc1nc(-c2ccc(C)c(-c3ccc4c(c3)NC(=O)C43CCCC3)c2)no1

>  <Name>  (282) 
nan

>  <Pocket>  (282) 
nan

>  <ATP_Site>  (282) 
nan

>  <Peripheral>  (282) 
nan

>  <Num_H_Atoms_ProtBoundConf>  (282) 
nan

>  <Num_Resolved_Atoms>  (282) 
nan

>  <Num_Not_Resolved_Atoms>  (282) 
nan

$$$$
CHEMBL1911190
     RDKit          3D

  0  0  0  0  0  0  0  0  0  0999 V3000
M  V30 BEGIN CTAB
M  V30 COUNTS 48 52 0 0 0
M  V30 BEGIN ATOM
M  V30 1 C 4.495785 -5.823398 -0.396639 0
M  V30 2 C 4.372974 -4.704303 -1.387202 0
M  V30 3 N 4.984092 -4.436185 -2.558711 0
M  V30 4 N 4.450168 -3.294330 -2.973462 0
M  V30 5 C 3.520284 -2.851285 -2.080353 0
M  V30 6 C 2.727252 -1.629296 -2.200975 0
M  V30 7 C 2.875160 -0.794096 -3.289559 0
M  V30 8 C 2.079648 0.352580 -3.327870 0
M  V30 9 C 1.177186 0.656693 -2.329628 0
M  V30 10 C 0.333550 1.854976 -2.351685 0
M  V30 11 C 1.034717 -0.184007 -1.243228 0
M  V30 12 C 0.118910 0.009546 -0.110029 0
M  V30 13 C 0.613136 -0.201730 1.184046 0
M  V30 14 C -0.160564 -0.048553 2.324861 0
M  V30 15 C -1.482020 0.330806 2.173681 0
M  V30 16 C -2.002519 0.548828 0.890873 0
M  V30 17 C -1.206443 0.388164 -0.228406 0
M  V30 18 N -3.391114 0.932736 0.995388 0
M  V30 19 C -3.729030 0.948861 2.399467 0
M  V30 20 O -4.883061 1.253922 2.736720 0
M  V30 21 C -2.532462 0.569077 3.181826 0
M  V30 22 C -2.757242 -0.544553 4.141305 0
M  V30 23 C -3.581394 0.109786 5.230337 0
M  V30 24 C -3.331105 1.614912 5.107897 0
M  V30 25 C -2.227804 1.746238 4.073580 0
M  V30 26 C 1.837313 -1.332627 -1.213218 0
M  V30 27 O 3.510801 -3.751190 -1.125957 0
M  V30 28 H 4.880431 -5.479449 0.579933 0
M  V30 29 H 5.114570 -6.656173 -0.828758 0
M  V30 30 H 3.472063 -6.264779 -0.259144 0
M  V30 31 H 3.577739 -1.017368 -4.080788 0
M  V30 32 H 2.149722 1.053484 -4.162590 0
M  V30 33 H 0.090606 2.258714 -1.352388 0
M  V30 34 H -0.549140 1.748584 -3.014728 0
M  V30 35 H 0.955495 2.659612 -2.841701 0
M  V30 36 H 1.661372 -0.501991 1.291961 0
M  V30 37 H 0.269848 -0.224454 3.307247 0
M  V30 38 H -1.593023 0.552015 -1.215129 0
M  V30 39 H -3.987383 1.146949 0.159601 0
M  V30 40 H -3.253270 -1.440642 3.718835 0
M  V30 41 H -1.772565 -0.778383 4.598759 0
M  V30 42 H -4.656690 -0.145607 5.157843 0
M  V30 43 H -3.262693 -0.274688 6.229606 0
M  V30 44 H -4.261736 2.139305 4.808835 0
M  V30 45 H -3.040012 1.975657 6.110356 0
M  V30 46 H -1.263244 1.713890 4.577123 0
M  V30 47 H -2.377720 2.665659 3.445632 0
M  V30 48 H 1.743440 -2.019118 -0.358838 0
M  V30 END ATOM
M  V30 BEGIN BOND
M  V30 1 1 1 2
M  V30 2 2 2 3
M  V30 3 1 3 4
M  V30 4 2 4 5
M  V30 5 1 5 6
M  V30 6 2 6 7
M  V30 7 1 7 8
M  V30 8 2 8 9
M  V30 9 1 9 10
M  V30 10 1 9 11
M  V30 11 1 11 12
M  V30 12 2 12 13
M  V30 13 1 13 14
M  V30 14 2 14 15
M  V30 15 1 15 16
M  V30 16 2 16 17
M  V30 17 1 16 18
M  V30 18 1 18 19
M  V30 19 2 19 20
M  V30 20 1 19 21
M  V30 21 1 21 22
M  V30 22 1 22 23
M  V30 23 1 23 24
M  V30 24 1 24 25
M  V30 25 2 11 26
M  V30 26 1 5 27
M  V30 27 1 27 2
M  V30 28 1 26 6
M  V30 29 1 17 12
M  V30 30 1 25 21
M  V30 31 1 21 15
M  V30 32 1 1 28
M  V30 33 1 1 29
M  V30 34 1 1 30
M  V30 35 1 7 31
M  V30 36 1 8 32
M  V30 37 1 10 33
M  V30 38 1 10 34
M  V30 39 1 10 35
M  V30 40 1 13 36
M  V30 41 1 14 37
M  V30 42 1 17 38
M  V30 43 1 18 39
M  V30 44 1 22 40
M  V30 45 1 22 41
M  V30 46 1 23 42
M  V30 47 1 23 43
M  V30 48 1 24 44
M  V30 49 1 24 45
M  V30 50 1 25 46
M  V30 51 1 25 47
M  V30 52 1 26 48
M  V30 END BOND
M  V30 END CTAB
M  END
>  <Dataset>  (283) 
ChEMBL_Kinases

>  <Ligand_Instance>  (283) 
nan

>  <PDB_ID>  (283) 
nan

>  <Standardized_SMILES>  (283) 
Cc1nnc(-c2ccc(C)c(-c3ccc4c(c3)NC(=O)C43CCCC3)c2)o1

>  <Name>  (283) 
nan

>  <Pocket>  (283) 
nan

>  <ATP_Site>  (283) 
nan

>  <Peripheral>  (283) 
nan

>  <Num_H_Atoms_ProtBoundConf>  (283) 
nan

>  <Num_Resolved_Atoms>  (283) 
nan

>  <Num_Not_Resolved_Atoms>  (283) 
nan

$$$$
CHEMBL191113
     RDKit          3D

  0  0  0  0  0  0  0  0  0  0999 V3000
M  V30 BEGIN CTAB
M  V30 COUNTS 61 65 0 0 0
M  V30 BEGIN ATOM
M  V30 1 C 4.077847 2.185565 4.165006 0
M  V30 2 C 2.920723 1.254838 4.201133 0
M  V30 3 C 1.593878 1.954921 3.998889 0
M  V30 4 S 2.997050 -0.094851 3.072996 0
M  V30 5 O 4.255045 -0.879218 3.401163 0
M  V30 6 O 1.864397 -1.052176 3.290593 0
M  V30 7 N 3.025869 0.342334 1.418546 0
M  V30 8 C 3.952360 1.065876 0.772787 0
M  V30 9 N 5.154790 1.659168 1.221197 0
M  V30 10 N 3.678414 1.243167 -0.533328 0
M  V30 11 C 2.505915 0.607483 -0.788833 0
M  V30 12 C 1.759241 0.458995 -1.933164 0
M  V30 13 C 0.594218 -0.251133 -1.887167 0
M  V30 14 C 0.203106 -0.799734 -0.683719 0
M  V30 15 C -1.053334 -1.575409 -0.601860 0
M  V30 16 N -2.293244 -1.097616 -0.894995 0
M  V30 17 C -3.188453 -2.092576 -0.704304 0
M  V30 18 C -4.663621 -1.950585 -0.926313 0
M  V30 19 C -4.924868 -1.733234 -2.398212 0
M  V30 20 C -4.708856 -0.328901 -2.858398 0
M  V30 21 N -5.090143 0.682500 -1.915340 0
M  V30 22 C -5.968718 0.173936 -0.882824 0
M  V30 23 C -5.232882 -0.862818 -0.049937 0
M  V30 24 N -2.509946 -3.191435 -0.292454 0
M  V30 25 C -1.198464 -2.904129 -0.220447 0
M  V30 26 C -0.043092 -3.700692 0.158343 0
M  V30 27 C 0.853735 -3.859290 -0.873232 0
M  V30 28 C 2.026418 -4.581331 -0.736070 0
M  V30 29 C 2.280930 -5.156034 0.500578 0
M  V30 30 C 1.388661 -5.002371 1.538795 0
M  V30 31 C 0.223008 -4.282413 1.396019 0
M  V30 32 C 0.953118 -0.646339 0.449568 0
M  V30 33 C 2.151656 0.076466 0.431165 0
M  V30 34 H 4.183775 2.651891 5.188659 0
M  V30 35 H 5.048118 1.676989 4.006899 0
M  V30 36 H 3.993795 2.972710 3.388310 0
M  V30 37 H 2.888440 0.841801 5.257439 0
M  V30 38 H 1.121652 2.200875 4.983314 0
M  V30 39 H 1.712200 2.905067 3.433531 0
M  V30 40 H 0.881528 1.263699 3.500805 0
M  V30 41 H 5.664525 2.369876 1.778650 0
M  V30 42 H 6.049756 1.221852 0.852295 0
M  V30 43 H 2.094328 0.902750 -2.863763 0
M  V30 44 H -0.047911 -0.413546 -2.738837 0
M  V30 45 H -2.440605 -0.133940 -1.202180 0
M  V30 46 H -5.117327 -2.923581 -0.644134 0
M  V30 47 H -4.172856 -2.377941 -2.939902 0
M  V30 48 H -5.960370 -2.055912 -2.627857 0
M  V30 49 H -3.671603 -0.139118 -3.261518 0
M  V30 50 H -5.364105 -0.199115 -3.769632 0
M  V30 51 H -4.336236 1.289715 -1.577536 0
M  V30 52 H -6.841960 -0.258810 -1.399578 0
M  V30 53 H -6.239345 1.013019 -0.222916 0
M  V30 54 H -4.410386 -0.317140 0.462538 0
M  V30 55 H -5.929863 -1.271738 0.700066 0
M  V30 56 H 0.741640 -3.446636 -1.878733 0
M  V30 57 H 2.752140 -4.720413 -1.539635 0
M  V30 58 H 3.174110 -5.740264 0.704432 0
M  V30 59 H 1.557992 -5.435970 2.509499 0
M  V30 60 H -0.539048 -4.102220 2.141630 0
M  V30 61 H 0.595043 -1.097477 1.357404 0
M  V30 END ATOM
M  V30 BEGIN BOND
M  V30 1 1 1 2
M  V30 2 1 2 3
M  V30 3 1 2 4
M  V30 4 2 4 5
M  V30 5 2 4 6
M  V30 6 1 4 7
M  V30 7 1 7 8
M  V30 8 1 8 9
M  V30 9 2 8 10
M  V30 10 1 10 11
M  V30 11 2 11 12
M  V30 12 1 12 13
M  V30 13 2 13 14
M  V30 14 1 14 15
M  V30 15 1 15 16
M  V30 16 1 16 17
M  V30 17 1 17 18
M  V30 18 1 18 19
M  V30 19 1 19 20
M  V30 20 1 20 21
M  V30 21 1 21 22
M  V30 22 1 22 23
M  V30 23 2 17 24
M  V30 24 1 24 25
M  V30 25 1 25 26
M  V30 26 2 26 27
M  V30 27 1 27 28
M  V30 28 2 28 29
M  V30 29 1 29 30
M  V30 30 2 30 31
M  V30 31 1 14 32
M  V30 32 2 32 33
M  V30 33 1 33 7
M  V30 34 1 33 11
M  V30 35 2 25 15
M  V30 36 1 31 26
M  V30 37 1 23 18
M  V30 38 1 1 34
M  V30 39 1 1 35
M  V30 40 1 1 36
M  V30 41 1 2 37
M  V30 42 1 3 38
M  V30 43 1 3 39
M  V30 44 1 3 40
M  V30 45 1 9 41
M  V30 46 1 9 42
M  V30 47 1 12 43
M  V30 48 1 13 44
M  V30 49 1 16 45
M  V30 50 1 18 46
M  V30 51 1 19 47
M  V30 52 1 19 48
M  V30 53 1 20 49
M  V30 54 1 20 50
M  V30 55 1 21 51
M  V30 56 1 22 52
M  V30 57 1 22 53
M  V30 58 1 23 54
M  V30 59 1 23 55
M  V30 60 1 27 56
M  V30 61 1 28 57
M  V30 62 1 29 58
M  V30 63 1 30 59
M  V30 64 1 31 60
M  V30 65 1 32 61
M  V30 END BOND
M  V30 END CTAB
M  END
>  <Dataset>  (284) 
ChEMBL_Kinases

>  <Ligand_Instance>  (284) 
nan

>  <PDB_ID>  (284) 
nan

>  <Standardized_SMILES>  (284) 
CC(C)S(=O)(=O)n1c(N)nc2ccc(-c3[nH]c(C4CCNCC4)nc3-c3ccccc3)cc21

>  <Name>  (284) 
nan

>  <Pocket>  (284) 
nan

>  <ATP_Site>  (284) 
nan

>  <Peripheral>  (284) 
nan

>  <Num_H_Atoms_ProtBoundConf>  (284) 
nan

>  <Num_Resolved_Atoms>  (284) 
nan

>  <Num_Not_Resolved_Atoms>  (284) 
nan

$$$$
CHEMBL191105
     RDKit          3D

  0  0  0  0  0  0  0  0  0  0999 V3000
M  V30 BEGIN CTAB
M  V30 COUNTS 38 40 0 0 0
M  V30 BEGIN ATOM
M  V30 1 C 1.697933 -2.119790 1.406739 0
M  V30 2 N 0.352883 -2.403947 0.997822 0
M  V30 3 C -0.089232 -3.554555 1.787991 0
M  V30 4 C 0.213274 -2.767645 -0.386585 0
M  V30 5 C 0.477918 -1.678108 -1.358416 0
M  V30 6 C -0.416006 -0.478676 -1.281914 0
M  V30 7 N -0.414387 0.203778 -0.013330 0
M  V30 8 C 0.448336 1.159350 0.375656 0
M  V30 9 C 1.574372 1.703637 -0.345995 0
M  V30 10 N 2.067773 1.434491 -1.546873 0
M  V30 11 O 3.106535 2.165385 -1.812294 0
M  V30 12 N 3.342043 2.951355 -0.791060 0
M  V30 13 C 2.399587 2.690559 0.151558 0
M  V30 14 N 2.369961 3.378989 1.395955 0
M  V30 15 N 0.079932 1.552322 1.609117 0
M  V30 16 C -1.008986 0.841780 1.983155 0
M  V30 17 C -1.717662 0.926237 3.164062 0
M  V30 18 N -2.789588 0.116859 3.319745 0
M  V30 19 C -3.168646 -0.753421 2.358374 0
M  V30 20 C -2.449185 -0.825513 1.184288 0
M  V30 21 C -1.343045 -0.031451 0.953009 0
M  V30 22 H 2.352457 -1.692590 0.637705 0
M  V30 23 H 2.235753 -3.042931 1.770746 0
M  V30 24 H 1.670967 -1.434526 2.301419 0
M  V30 25 H -0.353516 -3.199337 2.805670 0
M  V30 26 H -0.949058 -4.066349 1.295026 0
M  V30 27 H 0.754719 -4.266365 1.899627 0
M  V30 28 H 0.957410 -3.601592 -0.549847 0
M  V30 29 H -0.779628 -3.240827 -0.541415 0
M  V30 30 H 1.521643 -1.304786 -1.170526 0
M  V30 31 H 0.511772 -2.071646 -2.409337 0
M  V30 32 H -0.109082 0.242334 -2.082106 0
M  V30 33 H -1.477144 -0.740135 -1.562462 0
M  V30 34 H 1.665031 4.152177 1.439323 0
M  V30 35 H 2.935433 3.243685 2.279514 0
M  V30 36 H -1.465667 1.601030 3.969845 0
M  V30 37 H -4.028405 -1.402240 2.483357 0
M  V30 38 H -2.701775 -1.508670 0.364634 0
M  V30 END ATOM
M  V30 BEGIN BOND
M  V30 1 1 1 2
M  V30 2 1 2 3
M  V30 3 1 2 4
M  V30 4 1 4 5
M  V30 5 1 5 6
M  V30 6 1 6 7
M  V30 7 1 7 8
M  V30 8 1 8 9
M  V30 9 2 9 10
M  V30 10 1 10 11
M  V30 11 1 11 12
M  V30 12 2 12 13
M  V30 13 1 13 14
M  V30 14 2 8 15
M  V30 15 1 15 16
M  V30 16 2 16 17
M  V30 17 1 17 18
M  V30 18 2 18 19
M  V30 19 1 19 20
M  V30 20 2 20 21
M  V30 21 1 21 7
M  V30 22 1 13 9
M  V30 23 1 21 16
M  V30 24 1 1 22
M  V30 25 1 1 23
M  V30 26 1 1 24
M  V30 27 1 3 25
M  V30 28 1 3 26
M  V30 29 1 3 27
M  V30 30 1 4 28
M  V30 31 1 4 29
M  V30 32 1 5 30
M  V30 33 1 5 31
M  V30 34 1 6 32
M  V30 35 1 6 33
M  V30 36 1 14 34
M  V30 37 1 14 35
M  V30 38 1 17 36
M  V30 39 1 19 37
M  V30 40 1 20 38
M  V30 END BOND
M  V30 END CTAB
M  END
>  <Dataset>  (285) 
ChEMBL_Kinases

>  <Ligand_Instance>  (285) 
nan

>  <PDB_ID>  (285) 
nan

>  <Standardized_SMILES>  (285) 
CN(C)CCCn1c(-c2nonc2N)nc2cnccc21

>  <Name>  (285) 
nan

>  <Pocket>  (285) 
nan

>  <ATP_Site>  (285) 
nan

>  <Peripheral>  (285) 
nan

>  <Num_H_Atoms_ProtBoundConf>  (285) 
nan

>  <Num_Resolved_Atoms>  (285) 
nan

>  <Num_Not_Resolved_Atoms>  (285) 
nan

$$$$
CHEMBL191104
     RDKit          3D

  0  0  0  0  0  0  0  0  0  0999 V3000
M  V30 BEGIN CTAB
M  V30 COUNTS 31 33 0 0 0
M  V30 BEGIN ATOM
M  V30 1 C -2.357729 -1.312674 2.053100 0
M  V30 2 C -1.921523 -0.748513 0.783169 0
M  V30 3 N -0.683694 -0.091268 0.695009 0
M  V30 4 C 0.504102 -0.660372 0.458231 0
M  V30 5 C 0.983626 -2.008760 0.264431 0
M  V30 6 C 0.277179 -3.178194 0.307198 0
M  V30 7 C 0.797678 -4.438799 0.136380 0
M  V30 8 C 2.146187 -4.582361 -0.100488 0
M  V30 9 N 2.866775 -3.452711 -0.147550 0
M  V30 10 C 2.317976 -2.239136 0.024650 0
M  V30 11 N 3.294151 -1.202423 -0.071552 0
M  V30 12 N 1.386276 0.351349 0.414877 0
M  V30 13 C 0.808867 1.541259 0.616288 0
M  V30 14 C 1.380911 2.795055 0.645031 0
M  V30 15 N 0.496353 3.807336 0.878035 0
M  V30 16 C -0.824628 3.568206 1.061386 0
M  V30 17 C -1.390351 2.294176 1.029742 0
M  V30 18 C -0.520147 1.254496 0.796384 0
M  V30 19 H -3.349614 -0.948203 2.393131 0
M  V30 20 H -1.607227 -1.320242 2.869666 0
M  V30 21 H -2.555768 -2.414902 1.905662 0
M  V30 22 H -2.053138 -1.462535 -0.046500 0
M  V30 23 H -2.729892 0.037485 0.509072 0
M  V30 24 H -0.768292 -3.166007 0.501008 0
M  V30 25 H 0.194872 -5.317608 0.180194 0
M  V30 26 H 2.578297 -5.561880 -0.237915 0
M  V30 27 H 3.488126 -0.809405 0.872603 0
M  V30 28 H 3.869030 -0.719849 -0.787285 0
M  V30 29 H 2.429937 2.929288 0.494191 0
M  V30 30 H -1.475693 4.430566 1.243925 0
M  V30 31 H -2.428011 2.102313 1.173393 0
M  V30 END ATOM
M  V30 BEGIN BOND
M  V30 1 1 1 2
M  V30 2 1 2 3
M  V30 3 1 3 4
M  V30 4 1 4 5
M  V30 5 2 5 6
M  V30 6 1 6 7
M  V30 7 2 7 8
M  V30 8 1 8 9
M  V30 9 2 9 10
M  V30 10 1 10 11
M  V30 11 2 4 12
M  V30 12 1 12 13
M  V30 13 2 13 14
M  V30 14 1 14 15
M  V30 15 2 15 16
M  V30 16 1 16 17
M  V30 17 2 17 18
M  V30 18 1 18 3
M  V30 19 1 10 5
M  V30 20 1 18 13
M  V30 21 1 1 19
M  V30 22 1 1 20
M  V30 23 1 1 21
M  V30 24 1 2 22
M  V30 25 1 2 23
M  V30 26 1 6 24
M  V30 27 1 7 25
M  V30 28 1 8 26
M  V30 29 1 11 27
M  V30 30 1 11 28
M  V30 31 1 14 29
M  V30 32 1 16 30
M  V30 33 1 17 31
M  V30 END BOND
M  V30 END CTAB
M  END
>  <Dataset>  (286) 
ChEMBL_Kinases

>  <Ligand_Instance>  (286) 
nan

>  <PDB_ID>  (286) 
nan

>  <Standardized_SMILES>  (286) 
CCn1c(-c2cccnc2N)nc2cnccc21

>  <Name>  (286) 
nan

>  <Pocket>  (286) 
nan

>  <ATP_Site>  (286) 
nan

>  <Peripheral>  (286) 
nan

>  <Num_H_Atoms_ProtBoundConf>  (286) 
nan

>  <Num_Resolved_Atoms>  (286) 
nan

>  <Num_Not_Resolved_Atoms>  (286) 
nan

$$$$
CHEMBL191058
     RDKit          3D

  0  0  0  0  0  0  0  0  0  0999 V3000
M  V30 BEGIN CTAB
M  V30 COUNTS 48 51 0 0 0
M  V30 BEGIN ATOM
M  V30 1 C -0.207871 -5.981631 3.575898 0
M  V30 2 N -0.696189 -5.262922 2.425237 0
M  V30 3 C 0.331795 -5.040914 1.455102 0
M  V30 4 C 0.180993 -3.686756 0.853626 0
M  V30 5 C 0.327743 -2.651532 1.953208 0
M  V30 6 C 0.321312 -1.329091 1.272314 0
M  V30 7 C 1.321277 -0.382924 1.232093 0
M  V30 8 C 0.851935 0.691733 0.472657 0
M  V30 9 C 1.633000 1.898473 0.202653 0
M  V30 10 C 2.064632 2.388534 -1.013606 0
M  V30 11 C 2.792180 3.552739 -1.023423 0
M  V30 12 C 3.102575 4.240639 0.125831 0
M  V30 13 F 3.825542 5.380869 0.014973 0
M  V30 14 C 2.673163 3.756627 1.357176 0
M  V30 15 C 1.933231 2.574099 1.376457 0
M  V30 16 C -0.424828 0.336975 0.086703 0
M  V30 17 C -1.182995 1.277798 -0.733234 0
M  V30 18 C -1.558961 0.801346 -1.984830 0
M  V30 19 C -2.278254 1.632975 -2.818956 0
M  V30 20 C -2.646876 2.932702 -2.464472 0
M  V30 21 F -3.352732 3.747441 -3.284034 0
M  V30 22 C -2.232796 3.320540 -1.208464 0
M  V30 23 C -1.514125 2.551704 -0.319523 0
M  V30 24 N -0.736996 -0.888950 0.576158 0
M  V30 25 C -0.841234 -2.835453 2.890209 0
M  V30 26 C -1.532761 -4.150216 2.705638 0
M  V30 27 H 0.844797 -5.732277 3.825196 0
M  V30 28 H -0.215842 -7.065346 3.293412 0
M  V30 29 H -0.877615 -5.891022 4.446580 0
M  V30 30 H 1.358275 -5.111559 1.886422 0
M  V30 31 H 0.287788 -5.810858 0.647593 0
M  V30 32 H -0.868619 -3.611397 0.476496 0
M  V30 33 H 0.839025 -3.499901 -0.011847 0
M  V30 34 H 1.303743 -2.827558 2.479846 0
M  V30 35 H 2.292912 -0.510126 1.729451 0
M  V30 36 H 1.771175 1.778931 -1.855285 0
M  V30 37 H 3.101620 3.885734 -2.006477 0
M  V30 38 H 2.926751 4.313843 2.264344 0
M  V30 39 H 1.649039 2.285055 2.378335 0
M  V30 40 H -1.305621 -0.195100 -2.320865 0
M  V30 41 H -2.574217 1.255671 -3.806088 0
M  V30 42 H -2.498891 4.320157 -0.897787 0
M  V30 43 H -1.209586 2.887657 0.649414 0
M  V30 44 H -1.692570 -1.302340 0.362898 0
M  V30 45 H -1.574284 -2.033436 2.657989 0
M  V30 46 H -0.550956 -2.705395 3.954026 0
M  V30 47 H -2.058160 -4.371919 3.674108 0
M  V30 48 H -2.357501 -4.100828 1.941571 0
M  V30 END ATOM
M  V30 BEGIN BOND
M  V30 1 1 1 2
M  V30 2 1 2 3
M  V30 3 1 3 4
M  V30 4 1 4 5
M  V30 5 1 5 6
M  V30 6 2 6 7
M  V30 7 1 7 8
M  V30 8 1 8 9
M  V30 9 2 9 10
M  V30 10 1 10 11
M  V30 11 2 11 12
M  V30 12 1 12 13
M  V30 13 1 12 14
M  V30 14 2 14 15
M  V30 15 2 8 16
M  V30 16 1 16 17
M  V30 17 2 17 18
M  V30 18 1 18 19
M  V30 19 2 19 20
M  V30 20 1 20 21
M  V30 21 1 20 22
M  V30 22 2 22 23
M  V30 23 1 16 24
M  V30 24 1 5 25
M  V30 25 1 25 26
M  V30 26 1 26 2
M  V30 27 1 24 6
M  V30 28 1 15 9
M  V30 29 1 23 17
M  V30 30 1 1 27
M  V30 31 1 1 28
M  V30 32 1 1 29
M  V30 33 1 3 30
M  V30 34 1 3 31
M  V30 35 1 4 32
M  V30 36 1 4 33
M  V30 37 1 5 34
M  V30 38 1 7 35
M  V30 39 1 10 36
M  V30 40 1 11 37
M  V30 41 1 14 38
M  V30 42 1 15 39
M  V30 43 1 18 40
M  V30 44 1 19 41
M  V30 45 1 22 42
M  V30 46 1 23 43
M  V30 47 1 24 44
M  V30 48 1 25 45
M  V30 49 1 25 46
M  V30 50 1 26 47
M  V30 51 1 26 48
M  V30 END BOND
M  V30 END CTAB
M  END
>  <Dataset>  (287) 
ChEMBL_Kinases

>  <Ligand_Instance>  (287) 
nan

>  <PDB_ID>  (287) 
nan

>  <Standardized_SMILES>  (287) 
CN1CCC(c2cc(-c3ccc(F)cc3)c(-c3ccc(F)cc3)[nH]2)CC1

>  <Name>  (287) 
nan

>  <Pocket>  (287) 
nan

>  <ATP_Site>  (287) 
nan

>  <Peripheral>  (287) 
nan

>  <Num_H_Atoms_ProtBoundConf>  (287) 
nan

>  <Num_Resolved_Atoms>  (287) 
nan

>  <Num_Not_Resolved_Atoms>  (287) 
nan

$$$$
CHEMBL191053
     RDKit          3D

  0  0  0  0  0  0  0  0  0  0999 V3000
M  V30 BEGIN CTAB
M  V30 COUNTS 52 55 0 0 0
M  V30 BEGIN ATOM
M  V30 1 C -3.307284 4.222493 2.381564 0
M  V30 2 C -2.231160 4.577298 1.403807 0
M  V30 3 C -1.238374 3.488877 1.187568 0
M  V30 4 N -0.150395 3.510103 0.362175 0
M  V30 5 C 0.448934 2.333643 0.484118 0
M  V30 6 C 1.674977 2.018969 -0.281337 0
M  V30 7 C 1.662541 0.993122 -1.189431 0
M  V30 8 C 2.776017 0.652458 -1.933707 0
M  V30 9 C 3.953678 1.362154 -1.768641 0
M  V30 10 F 5.113702 1.113728 -2.449866 0
M  V30 11 C 3.981576 2.400225 -0.855785 0
M  V30 12 C 2.858689 2.733073 -0.114668 0
M  V30 13 C -0.272049 1.558782 1.400301 0
M  V30 14 C 0.236259 0.205412 1.676131 0
M  V30 15 C 1.490611 0.126078 2.245415 0
M  V30 16 C 2.089385 -1.077311 2.556867 0
M  V30 17 C 1.378940 -2.228599 2.275233 0
M  V30 18 N 1.608673 -3.522334 2.423257 0
M  V30 19 C 0.539351 -4.194150 1.963102 0
M  V30 20 N 0.622452 -5.595252 2.054851 0
M  V30 21 N -0.426212 -3.397278 1.499497 0
M  V30 22 S -1.918631 -3.840745 0.828268 0
M  V30 23 O -2.664573 -4.626295 1.901515 0
M  V30 24 O -2.802548 -2.643582 0.558066 0
M  V30 25 C -1.851634 -4.789636 -0.637900 0
M  V30 26 C -1.203586 -3.997240 -1.762793 0
M  V30 27 C -1.180425 -6.114480 -0.528678 0
M  V30 28 C 0.105831 -2.178635 1.698504 0
M  V30 29 C -0.476274 -0.941234 1.393379 0
M  V30 30 N -1.317986 2.298827 1.824728 0
M  V30 31 H -3.570907 3.130666 2.273969 0
M  V30 32 H -4.223130 4.797282 2.083060 0
M  V30 33 H -3.011321 4.436520 3.425548 0
M  V30 34 H -1.656183 5.476777 1.732489 0
M  V30 35 H -2.692089 4.867324 0.416037 0
M  V30 36 H 0.772055 0.410909 -1.354999 0
M  V30 37 H 2.806961 -0.144831 -2.655576 0
M  V30 38 H 4.875710 2.992490 -0.683034 0
M  V30 39 H 2.855663 3.540361 0.605131 0
M  V30 40 H 2.075688 1.008462 2.479662 0
M  V30 41 H 3.075484 -1.165548 3.005342 0
M  V30 42 H 0.566238 -6.567724 1.708775 0
M  V30 43 H 0.567574 -6.567648 1.713547 0
M  V30 44 H -2.907039 -5.010542 -0.988557 0
M  V30 45 H -1.371094 -4.492446 -2.748714 0
M  V30 46 H -1.715732 -3.010642 -1.841554 0
M  V30 47 H -0.149909 -3.779971 -1.565016 0
M  V30 48 H -1.450745 -6.680079 0.381017 0
M  V30 49 H -0.088628 -5.961365 -0.651975 0
M  V30 50 H -1.482238 -6.732184 -1.406527 0
M  V30 51 H -1.445202 -0.784517 0.950524 0
M  V30 52 H -1.967305 1.891691 2.509000 0
M  V30 END ATOM
M  V30 BEGIN BOND
M  V30 1 1 1 2
M  V30 2 1 2 3
M  V30 3 2 3 4
M  V30 4 1 4 5
M  V30 5 1 5 6
M  V30 6 2 6 7
M  V30 7 1 7 8
M  V30 8 2 8 9
M  V30 9 1 9 10
M  V30 10 1 9 11
M  V30 11 2 11 12
M  V30 12 2 5 13
M  V30 13 1 13 14
M  V30 14 2 14 15
M  V30 15 1 15 16
M  V30 16 2 16 17
M  V30 17 1 17 18
M  V30 18 2 18 19
M  V30 19 1 19 20
M  V30 20 1 19 21
M  V30 21 1 21 22
M  V30 22 2 22 23
M  V30 23 2 22 24
M  V30 24 1 22 25
M  V30 25 1 25 26
M  V30 26 1 25 27
M  V30 27 1 21 28
M  V30 28 2 28 29
M  V30 29 1 13 30
M  V30 30 1 30 3
M  V30 31 1 12 6
M  V30 32 1 29 14
M  V30 33 1 28 17
M  V30 34 1 1 31
M  V30 35 1 1 32
M  V30 36 1 1 33
M  V30 37 1 2 34
M  V30 38 1 2 35
M  V30 39 1 7 36
M  V30 40 1 8 37
M  V30 41 1 11 38
M  V30 42 1 12 39
M  V30 43 1 15 40
M  V30 44 1 16 41
M  V30 45 1 20 42
M  V30 46 1 20 43
M  V30 47 1 25 44
M  V30 48 1 26 45
M  V30 49 1 26 46
M  V30 50 1 26 47
M  V30 51 1 27 48
M  V30 52 1 27 49
M  V30 53 1 27 50
M  V30 54 1 29 51
M  V30 55 1 30 52
M  V30 END BOND
M  V30 END CTAB
M  END
>  <Dataset>  (288) 
ChEMBL_Kinases

>  <Ligand_Instance>  (288) 
nan

>  <PDB_ID>  (288) 
nan

>  <Standardized_SMILES>  (288) 
CCc1nc(-c2ccc(F)cc2)c(-c2ccc3nc(N)n(S(=O)(=O)C(C)C)c3c2)[nH]1

>  <Name>  (288) 
nan

>  <Pocket>  (288) 
nan

>  <ATP_Site>  (288) 
nan

>  <Peripheral>  (288) 
nan

>  <Num_H_Atoms_ProtBoundConf>  (288) 
nan

>  <Num_Resolved_Atoms>  (288) 
nan

>  <Num_Not_Resolved_Atoms>  (288) 
nan

$$$$
CHEMBL1910509
     RDKit          3D

  0  0  0  0  0  0  0  0  0  0999 V3000
M  V30 BEGIN CTAB
M  V30 COUNTS 25 27 0 0 0
M  V30 BEGIN ATOM
M  V30 1 O -0.074764 -2.247788 4.807983 0
M  V30 2 C 0.210354 -2.652064 3.654725 0
M  V30 3 N 1.092922 -3.646858 3.138733 0
M  V30 4 C 1.456529 -3.477578 1.783329 0
M  V30 5 O 2.242685 -4.290986 1.182122 0
M  V30 6 C 0.880172 -2.309981 1.096179 0
M  V30 7 C 1.335774 -1.759916 -0.014654 0
M  V30 8 C 0.606479 -0.603303 -0.515071 0
M  V30 9 C 0.082772 -0.381017 -1.759788 0
M  V30 10 N -0.502753 0.816800 -1.869418 0
M  V30 11 C -0.384877 1.434255 -0.692904 0
M  V30 12 C -0.792869 2.677543 -0.254754 0
M  V30 13 C -0.530865 3.103599 1.044400 0
M  V30 14 C 0.146887 2.272770 1.909017 0
M  V30 15 C 0.540073 1.026011 1.426737 0
M  V30 16 C 0.292922 0.581977 0.151582 0
M  V30 17 S -0.550600 -1.957316 2.160446 0
M  V30 18 H 1.420066 -4.422329 3.755857 0
M  V30 19 H 2.204178 -2.199347 -0.467036 0
M  V30 20 H 0.118747 -1.082713 -2.600696 0
M  V30 21 H -0.979876 1.240904 -2.703429 0
M  V30 22 H -1.333947 3.379686 -0.895325 0
M  V30 23 H -0.834892 4.069403 1.422100 0
M  V30 24 H 0.360483 2.590612 2.930120 0
M  V30 25 H 1.079847 0.433000 2.139707 0
M  V30 END ATOM
M  V30 BEGIN BOND
M  V30 1 2 1 2
M  V30 2 1 2 3
M  V30 3 1 3 4
M  V30 4 2 4 5
M  V30 5 1 4 6
M  V30 6 2 6 7
M  V30 7 1 7 8
M  V30 8 2 8 9
M  V30 9 1 9 10
M  V30 10 1 10 11
M  V30 11 2 11 12
M  V30 12 1 12 13
M  V30 13 2 13 14
M  V30 14 1 14 15
M  V30 15 2 15 16
M  V30 16 1 6 17
M  V30 17 1 17 2
M  V30 18 1 16 8
M  V30 19 1 16 11
M  V30 20 1 3 18
M  V30 21 1 7 19
M  V30 22 1 9 20
M  V30 23 1 10 21
M  V30 24 1 12 22
M  V30 25 1 13 23
M  V30 26 1 14 24
M  V30 27 1 15 25
M  V30 END BOND
M  V30 END CTAB
M  END
>  <Dataset>  (289) 
ChEMBL_Kinases

>  <Ligand_Instance>  (289) 
nan

>  <PDB_ID>  (289) 
nan

>  <Standardized_SMILES>  (289) 
O=C1NC(=O)/C(=C/c2c[nH]c3ccccc23)S1

>  <Name>  (289) 
nan

>  <Pocket>  (289) 
nan

>  <ATP_Site>  (289) 
nan

>  <Peripheral>  (289) 
nan

>  <Num_H_Atoms_ProtBoundConf>  (289) 
nan

>  <Num_Resolved_Atoms>  (289) 
nan

>  <Num_Not_Resolved_Atoms>  (289) 
nan

$$$$
CHEMBL1910377
     RDKit          3D

  0  0  0  0  0  0  0  0  0  0999 V3000
M  V30 BEGIN CTAB
M  V30 COUNTS 37 40 0 0 0
M  V30 BEGIN ATOM
M  V30 1 O 1.740403 -6.777276 3.011112 0
M  V30 2 C 1.890762 -5.495245 2.510706 0
M  V30 3 C 1.011623 -4.460216 2.774820 0
M  V30 4 C 1.257104 -3.238682 2.229716 0
M  V30 5 C 2.331829 -2.934652 1.417196 0
M  V30 6 C 2.504822 -1.580766 0.878164 0
M  V30 7 C 3.735009 -0.976183 0.603542 0
M  V30 8 C 3.695508 0.306484 0.097587 0
M  V30 9 N 2.567903 0.998480 -0.143416 0
M  V30 10 C 1.344946 0.447686 0.109701 0
M  V30 11 C 0.069775 1.130968 -0.123818 0
M  V30 12 C 0.004561 2.414166 -0.629942 0
M  V30 13 C -1.338042 2.727001 -0.715535 0
M  V30 14 C -2.066279 3.828692 -1.131038 0
M  V30 15 C -3.448702 3.770464 -1.068546 0
M  V30 16 C -4.129443 2.662231 -0.610290 0
M  V30 17 O -5.527540 2.731856 -0.598023 0
M  V30 18 C -3.395181 1.550475 -0.191116 0
M  V30 19 C -2.016468 1.614503 -0.255794 0
M  V30 20 N -1.157002 0.619456 0.113667 0
M  V30 21 C 1.377535 -0.837078 0.616725 0
M  V30 22 C 3.212596 -3.960405 1.149000 0
M  V30 23 C 2.966218 -5.220525 1.706801 0
M  V30 24 H 0.942469 -6.962104 3.614711 0
M  V30 25 H 0.151899 -4.660698 3.411532 0
M  V30 26 H 0.521382 -2.457242 2.477726 0
M  V30 27 H 4.607384 -1.553620 0.806905 0
M  V30 28 H 4.656254 0.763474 -0.111308 0
M  V30 29 H 0.826806 3.059899 -0.908657 0
M  V30 30 H -1.528879 4.691084 -1.487719 0
M  V30 31 H -3.986091 4.635270 -1.395734 0
M  V30 32 H -6.017113 1.921364 -0.204477 0
M  V30 33 H -3.949040 0.693755 0.164043 0
M  V30 34 H -1.386694 -0.317378 0.491021 0
M  V30 35 H 0.392525 -1.279092 0.820003 0
M  V30 36 H 4.063538 -3.793740 0.528797 0
M  V30 37 H 3.671270 -6.018831 1.484909 0
M  V30 END ATOM
M  V30 BEGIN BOND
M  V30 1 1 1 2
M  V30 2 2 2 3
M  V30 3 1 3 4
M  V30 4 2 4 5
M  V30 5 1 5 6
M  V30 6 2 6 7
M  V30 7 1 7 8
M  V30 8 2 8 9
M  V30 9 1 9 10
M  V30 10 1 10 11
M  V30 11 2 11 12
M  V30 12 1 12 13
M  V30 13 2 13 14
M  V30 14 1 14 15
M  V30 15 2 15 16
M  V30 16 1 16 17
M  V30 17 1 16 18
M  V30 18 2 18 19
M  V30 19 1 19 20
M  V30 20 2 10 21
M  V30 21 1 5 22
M  V30 22 2 22 23
M  V30 23 1 23 2
M  V30 24 1 21 6
M  V30 25 1 20 11
M  V30 26 1 19 13
M  V30 27 1 1 24
M  V30 28 1 3 25
M  V30 29 1 4 26
M  V30 30 1 7 27
M  V30 31 1 8 28
M  V30 32 1 12 29
M  V30 33 1 14 30
M  V30 34 1 15 31
M  V30 35 1 17 32
M  V30 36 1 18 33
M  V30 37 1 20 34
M  V30 38 1 21 35
M  V30 39 1 22 36
M  V30 40 1 23 37
M  V30 END BOND
M  V30 END CTAB
M  END
>  <Dataset>  (290) 
ChEMBL_Kinases

>  <Ligand_Instance>  (290) 
nan

>  <PDB_ID>  (290) 
nan

>  <Standardized_SMILES>  (290) 
Oc1ccc(-c2ccnc(-c3cc4ccc(O)cc4[nH]3)c2)cc1

>  <Name>  (290) 
nan

>  <Pocket>  (290) 
nan

>  <ATP_Site>  (290) 
nan

>  <Peripheral>  (290) 
nan

>  <Num_H_Atoms_ProtBoundConf>  (290) 
nan

>  <Num_Resolved_Atoms>  (290) 
nan

>  <Num_Not_Resolved_Atoms>  (290) 
nan

$$$$
CHEMBL191021
     RDKit          3D

  0  0  0  0  0  0  0  0  0  0999 V3000
M  V30 BEGIN CTAB
M  V30 COUNTS 39 41 0 0 0
M  V30 BEGIN ATOM
M  V30 1 N 4.984419 0.433186 2.737334 0
M  V30 2 C 4.020565 0.220953 2.099070 0
M  V30 3 C 2.824189 -0.031870 1.331923 0
M  V30 4 C 2.841542 -0.992978 0.421009 0
M  V30 5 N 1.824683 -1.421373 -0.433721 0
M  V30 6 C 2.156562 -2.475252 -1.298875 0
M  V30 7 C 1.346866 -3.109845 -2.258499 0
M  V30 8 C 1.864284 -4.136181 -3.015698 0
M  V30 9 C 3.163372 -4.550457 -2.846218 0
M  V30 10 C 4.011322 -3.973582 -1.923929 0
M  V30 11 C 3.421550 -2.945124 -1.197226 0
M  V30 12 S 4.287894 -2.002746 0.083590 0
M  V30 13 C 1.642120 0.782815 1.570347 0
M  V30 14 C 1.755816 1.858891 2.452410 0
M  V30 15 C 0.762760 2.745837 2.800604 0
M  V30 16 N -0.430350 2.537973 2.221449 0
M  V30 17 C -0.608516 1.532028 1.372417 0
M  V30 18 N -1.821119 1.229860 0.723435 0
M  V30 19 C -3.048417 0.513575 0.611364 0
M  V30 20 C -3.914742 0.718894 1.829835 0
M  V30 21 C -3.247081 0.227819 3.073571 0
M  V30 22 N -4.113500 0.443366 4.239262 0
M  V30 23 N 0.411887 0.731009 1.101066 0
M  V30 24 H 0.879193 -0.968674 -0.412863 0
M  V30 25 H 0.311126 -2.834727 -2.444700 0
M  V30 26 H 1.248985 -4.632775 -3.757294 0
M  V30 27 H 3.554750 -5.363891 -3.452187 0
M  V30 28 H 5.032855 -4.295441 -1.787482 0
M  V30 29 H 2.720832 2.052113 2.941012 0
M  V30 30 H 0.956102 3.548708 3.497918 0
M  V30 31 H -1.667902 1.931401 -0.066837 0
M  V30 32 H -2.779521 -0.578038 0.625859 0
M  V30 33 H -3.596549 0.720236 -0.322205 0
M  V30 34 H -4.929146 0.262953 1.685828 0
M  V30 35 H -4.105980 1.816690 1.877642 0
M  V30 36 H -2.291202 0.744176 3.215567 0
M  V30 37 H -3.132501 -0.881358 2.990225 0
M  V30 38 H -4.155705 1.478818 4.420350 0
M  V30 39 H -3.594477 0.022207 5.040759 0
M  V30 END ATOM
M  V30 BEGIN BOND
M  V30 1 3 1 2
M  V30 2 1 2 3
M  V30 3 2 3 4
M  V30 4 1 4 5
M  V30 5 1 5 6
M  V30 6 2 6 7
M  V30 7 1 7 8
M  V30 8 2 8 9
M  V30 9 1 9 10
M  V30 10 2 10 11
M  V30 11 1 11 12
M  V30 12 1 3 13
M  V30 13 2 13 14
M  V30 14 1 14 15
M  V30 15 2 15 16
M  V30 16 1 16 17
M  V30 17 1 17 18
M  V30 18 1 18 19
M  V30 19 1 19 20
M  V30 20 1 20 21
M  V30 21 1 21 22
M  V30 22 2 17 23
M  V30 23 1 12 4
M  V30 24 1 23 13
M  V30 25 1 11 6
M  V30 26 1 5 24
M  V30 27 1 7 25
M  V30 28 1 8 26
M  V30 29 1 9 27
M  V30 30 1 10 28
M  V30 31 1 14 29
M  V30 32 1 15 30
M  V30 33 1 18 31
M  V30 34 1 19 32
M  V30 35 1 19 33
M  V30 36 1 20 34
M  V30 37 1 20 35
M  V30 38 1 21 36
M  V30 39 1 21 37
M  V30 40 1 22 38
M  V30 41 1 22 39
M  V30 END BOND
M  V30 END CTAB
M  END
>  <Dataset>  (291) 
ChEMBL_Kinases

>  <Ligand_Instance>  (291) 
nan

>  <PDB_ID>  (291) 
nan

>  <Standardized_SMILES>  (291) 
N#C/C(=C1/Nc2ccccc2S1)c1ccnc(NCCCN)n1

>  <Name>  (291) 
nan

>  <Pocket>  (291) 
nan

>  <ATP_Site>  (291) 
nan

>  <Peripheral>  (291) 
nan

>  <Num_H_Atoms_ProtBoundConf>  (291) 
nan

>  <Num_Resolved_Atoms>  (291) 
nan

>  <Num_Not_Resolved_Atoms>  (291) 
nan

$$$$
CHEMBL1910201
     RDKit          3D

  0  0  0  0  0  0  0  0  0  0999 V3000
M  V30 BEGIN CTAB
M  V30 COUNTS 37 40 0 0 0
M  V30 BEGIN ATOM
M  V30 1 O 1.590245 -7.234224 1.901393 0
M  V30 2 C 1.843041 -5.921688 1.625250 0
M  V30 3 C 0.910559 -4.949815 2.003141 0
M  V30 4 C 1.136868 -3.625715 1.739306 0
M  V30 5 C 2.276636 -3.177645 1.096828 0
M  V30 6 C 2.422773 -1.742893 0.860953 0
M  V30 7 C 3.646934 -1.077215 0.828421 0
M  V30 8 C 3.672482 0.291872 0.594109 0
M  V30 9 N 2.542519 1.001482 0.395904 0
M  V30 10 C 1.336804 0.415966 0.415904 0
M  V30 11 C 0.076040 1.131649 0.206436 0
M  V30 12 C -0.019161 2.492668 -0.036311 0
M  V30 13 C -1.361972 2.774466 -0.177027 0
M  V30 14 C -2.105985 3.906904 -0.425088 0
M  V30 15 C -3.477966 3.971366 -0.530433 0
M  V30 16 O -4.176233 5.131572 -0.780255 0
M  V30 17 C -4.098195 2.744281 -0.359424 0
M  V30 18 C -3.442043 1.545318 -0.105734 0
M  V30 19 C -2.064979 1.597972 -0.020440 0
M  V30 20 N -1.173853 0.596229 0.214196 0
M  V30 21 C 1.305698 -0.941274 0.647795 0
M  V30 22 C 3.213322 -4.100924 0.711327 0
M  V30 23 C 2.959972 -5.427117 0.989620 0
M  V30 24 H 1.022481 -7.487931 2.687333 0
M  V30 25 H -0.004529 -5.266515 2.514946 0
M  V30 26 H 0.364418 -2.915056 2.063298 0
M  V30 27 H 4.548819 -1.670807 0.992041 0
M  V30 28 H 4.628940 0.809812 0.569684 0
M  V30 29 H 0.759051 3.240424 -0.112400 0
M  V30 30 H -1.545725 4.844080 -0.550723 0
M  V30 31 H -4.710767 5.563773 -0.039701 0
M  V30 32 H -5.191205 2.683622 -0.424423 0
M  V30 33 H -4.007409 0.630351 0.013929 0
M  V30 34 H -1.424803 -0.413676 0.372092 0
M  V30 35 H 0.328764 -1.427655 0.666855 0
M  V30 36 H 4.115920 -3.778612 0.206862 0
M  V30 37 H 3.700186 -6.171471 0.687309 0
M  V30 END ATOM
M  V30 BEGIN BOND
M  V30 1 1 1 2
M  V30 2 2 2 3
M  V30 3 1 3 4
M  V30 4 2 4 5
M  V30 5 1 5 6
M  V30 6 2 6 7
M  V30 7 1 7 8
M  V30 8 2 8 9
M  V30 9 1 9 10
M  V30 10 1 10 11
M  V30 11 2 11 12
M  V30 12 1 12 13
M  V30 13 2 13 14
M  V30 14 1 14 15
M  V30 15 1 15 16
M  V30 16 2 15 17
M  V30 17 1 17 18
M  V30 18 2 18 19
M  V30 19 1 19 20
M  V30 20 2 10 21
M  V30 21 1 5 22
M  V30 22 2 22 23
M  V30 23 1 23 2
M  V30 24 1 21 6
M  V30 25 1 20 11
M  V30 26 1 19 13
M  V30 27 1 1 24
M  V30 28 1 3 25
M  V30 29 1 4 26
M  V30 30 1 7 27
M  V30 31 1 8 28
M  V30 32 1 12 29
M  V30 33 1 14 30
M  V30 34 1 16 31
M  V30 35 1 17 32
M  V30 36 1 18 33
M  V30 37 1 20 34
M  V30 38 1 21 35
M  V30 39 1 22 36
M  V30 40 1 23 37
M  V30 END BOND
M  V30 END CTAB
M  END
>  <Dataset>  (292) 
ChEMBL_Kinases

>  <Ligand_Instance>  (292) 
nan

>  <PDB_ID>  (292) 
nan

>  <Standardized_SMILES>  (292) 
Oc1ccc(-c2ccnc(-c3cc4cc(O)ccc4[nH]3)c2)cc1

>  <Name>  (292) 
nan

>  <Pocket>  (292) 
nan

>  <ATP_Site>  (292) 
nan

>  <Peripheral>  (292) 
nan

>  <Num_H_Atoms_ProtBoundConf>  (292) 
nan

>  <Num_Resolved_Atoms>  (292) 
nan

>  <Num_Not_Resolved_Atoms>  (292) 
nan

$$$$
CHEMBL1910194
     RDKit          3D

  0  0  0  0  0  0  0  0  0  0999 V3000
M  V30 BEGIN CTAB
M  V30 COUNTS 41 44 0 0 0
M  V30 BEGIN ATOM
M  V30 1 C 2.222135 -7.259468 0.635195 0
M  V30 2 S 3.144297 -5.994793 -0.212327 0
M  V30 3 O 3.631110 -6.526779 -1.531328 0
M  V30 4 O 4.315501 -5.547696 0.617843 0
M  V30 5 C 2.157226 -4.580446 -0.504830 0
M  V30 6 C 2.111614 -3.577287 0.425070 0
M  V30 7 C 1.324777 -2.457234 0.184422 0
M  V30 8 C 0.582966 -2.323781 -0.970479 0
M  V30 9 C -0.208918 -1.107744 -1.123281 0
M  V30 10 C -1.003214 -0.818155 -2.212293 0
M  V30 11 N -1.712320 0.322225 -2.297344 0
M  V30 12 C -1.663428 1.230495 -1.298632 0
M  V30 13 C -0.870748 0.961317 -0.191891 0
M  V30 14 C -0.807602 1.935069 0.897530 0
M  V30 15 C -0.058484 1.781803 2.045292 0
M  V30 16 C -0.280479 2.917621 2.802256 0
M  V30 17 C 0.170236 3.369560 4.040337 0
M  V30 18 C -0.232452 4.584239 4.562616 0
M  V30 19 O 0.208611 5.049544 5.797377 0
M  V30 20 C -1.105797 5.364168 3.829448 0
M  V30 21 C -1.588560 4.968226 2.592014 0
M  V30 22 C -1.159220 3.738788 2.101206 0
M  V30 23 N -1.466230 3.120773 0.945813 0
M  V30 24 N -0.171631 -0.195985 -0.141221 0
M  V30 25 C 0.628612 -3.334711 -1.908141 0
M  V30 26 C 1.422496 -4.449766 -1.650220 0
M  V30 27 H 2.135669 -7.024877 1.714998 0
M  V30 28 H 2.667031 -8.254059 0.476445 0
M  V30 29 H 1.184902 -7.307131 0.231277 0
M  V30 30 H 2.695433 -3.682854 1.333452 0
M  V30 31 H 1.348472 -1.704176 0.983177 0
M  V30 32 H -1.049968 -1.537422 -3.017166 0
M  V30 33 H -2.251091 2.138178 -1.406734 0
M  V30 34 H 0.576219 0.983518 2.345245 0
M  V30 35 H 0.859633 2.739940 4.605030 0
M  V30 36 H 0.101232 4.517506 6.658001 0
M  V30 37 H -1.428080 6.317183 4.228182 0
M  V30 38 H -2.275948 5.583486 2.016359 0
M  V30 39 H -2.092837 3.441284 0.179255 0
M  V30 40 H 0.049576 -3.238021 -2.817158 0
M  V30 41 H 1.442094 -5.238589 -2.409714 0
M  V30 END ATOM
M  V30 BEGIN BOND
M  V30 1 1 1 2
M  V30 2 2 2 3
M  V30 3 2 2 4
M  V30 4 1 2 5
M  V30 5 2 5 6
M  V30 6 1 6 7
M  V30 7 2 7 8
M  V30 8 1 8 9
M  V30 9 2 9 10
M  V30 10 1 10 11
M  V30 11 2 11 12
M  V30 12 1 12 13
M  V30 13 1 13 14
M  V30 14 2 14 15
M  V30 15 1 15 16
M  V30 16 2 16 17
M  V30 17 1 17 18
M  V30 18 1 18 19
M  V30 19 2 18 20
M  V30 20 1 20 21
M  V30 21 2 21 22
M  V30 22 1 22 23
M  V30 23 2 13 24
M  V30 24 1 8 25
M  V30 25 2 25 26
M  V30 26 1 26 5
M  V30 27 1 24 9
M  V30 28 1 23 14
M  V30 29 1 22 16
M  V30 30 1 1 27
M  V30 31 1 1 28
M  V30 32 1 1 29
M  V30 33 1 6 30
M  V30 34 1 7 31
M  V30 35 1 10 32
M  V30 36 1 12 33
M  V30 37 1 15 34
M  V30 38 1 17 35
M  V30 39 1 19 36
M  V30 40 1 20 37
M  V30 41 1 21 38
M  V30 42 1 23 39
M  V30 43 1 25 40
M  V30 44 1 26 41
M  V30 END BOND
M  V30 END CTAB
M  END
>  <Dataset>  (293) 
ChEMBL_Kinases

>  <Ligand_Instance>  (293) 
nan

>  <PDB_ID>  (293) 
nan

>  <Standardized_SMILES>  (293) 
CS(=O)(=O)c1ccc(-c2cncc(-c3cc4cc(O)ccc4[nH]3)n2)cc1

>  <Name>  (293) 
nan

>  <Pocket>  (293) 
nan

>  <ATP_Site>  (293) 
nan

>  <Peripheral>  (293) 
nan

>  <Num_H_Atoms_ProtBoundConf>  (293) 
nan

>  <Num_Resolved_Atoms>  (293) 
nan

>  <Num_Not_Resolved_Atoms>  (293) 
nan

$$$$
CHEMBL190457
     RDKit          3D

  0  0  0  0  0  0  0  0  0  0999 V3000
M  V30 BEGIN CTAB
M  V30 COUNTS 28 30 0 0 0
M  V30 BEGIN ATOM
M  V30 1 N 1.933692 -3.853732 2.872460 0
M  V30 2 C 1.340261 -2.967628 2.377439 0
M  V30 3 C 0.618532 -1.880727 1.775110 0
M  V30 4 C 1.233318 -0.923926 1.095173 0
M  V30 5 N 0.693057 0.193416 0.450655 0
M  V30 6 C 1.640583 1.009934 -0.198066 0
M  V30 7 C 1.326705 2.158988 -0.904328 0
M  V30 8 C 2.352909 2.889203 -1.519151 0
M  V30 9 C 3.641446 2.425432 -1.392145 0
M  V30 10 C 3.993541 1.289684 -0.699370 0
M  V30 11 C 2.940455 0.608005 -0.112520 0
M  V30 12 S 3.015829 -0.909583 0.873948 0
M  V30 13 C -0.825762 -1.874527 1.978404 0
M  V30 14 C -1.716360 -0.875114 2.389716 0
M  V30 15 C -3.078165 -1.149848 2.453949 0
M  V30 16 N -3.527269 -2.371224 2.121760 0
M  V30 17 C -2.692910 -3.337522 1.728028 0
M  V30 18 N -3.245769 -4.620310 1.385352 0
M  V30 19 N -1.399578 -3.083007 1.665011 0
M  V30 20 H -0.344470 0.336269 0.486537 0
M  V30 21 H 0.344976 2.582741 -1.046638 0
M  V30 22 H 2.293219 3.790541 -2.093215 0
M  V30 23 H 4.509138 2.935278 -1.845450 0
M  V30 24 H 5.005043 0.939138 -0.607285 0
M  V30 25 H -1.191986 0.031931 2.628871 0
M  V30 26 H -3.631681 -0.283230 2.785524 0
M  V30 27 H -4.186768 -4.744149 0.942340 0
M  V30 28 H -2.836383 -5.569021 1.510500 0
M  V30 END ATOM
M  V30 BEGIN BOND
M  V30 1 3 1 2
M  V30 2 1 2 3
M  V30 3 2 3 4
M  V30 4 1 4 5
M  V30 5 1 5 6
M  V30 6 2 6 7
M  V30 7 1 7 8
M  V30 8 2 8 9
M  V30 9 1 9 10
M  V30 10 2 10 11
M  V30 11 1 11 12
M  V30 12 1 3 13
M  V30 13 2 13 14
M  V30 14 1 14 15
M  V30 15 2 15 16
M  V30 16 1 16 17
M  V30 17 1 17 18
M  V30 18 2 17 19
M  V30 19 1 12 4
M  V30 20 1 19 13
M  V30 21 1 11 6
M  V30 22 1 5 20
M  V30 23 1 7 21
M  V30 24 1 8 22
M  V30 25 1 9 23
M  V30 26 1 10 24
M  V30 27 1 14 25
M  V30 28 1 15 26
M  V30 29 1 18 27
M  V30 30 1 18 28
M  V30 END BOND
M  V30 END CTAB
M  END
>  <Dataset>  (294) 
ChEMBL_Kinases

>  <Ligand_Instance>  (294) 
nan

>  <PDB_ID>  (294) 
nan

>  <Standardized_SMILES>  (294) 
N#C/C(=C1/Nc2ccccc2S1)c1ccnc(N)n1

>  <Name>  (294) 
nan

>  <Pocket>  (294) 
nan

>  <ATP_Site>  (294) 
nan

>  <Peripheral>  (294) 
nan

>  <Num_H_Atoms_ProtBoundConf>  (294) 
nan

>  <Num_Resolved_Atoms>  (294) 
nan

>  <Num_Not_Resolved_Atoms>  (294) 
nan

$$$$
CHEMBL190514
     RDKit          3D

  0  0  0  0  0  0  0  0  0  0999 V3000
M  V30 BEGIN CTAB
M  V30 COUNTS 61 64 0 0 0
M  V30 BEGIN ATOM
M  V30 1 C 1.978712 1.332228 5.651806 0
M  V30 2 C 0.905892 0.411297 5.109534 0
M  V30 3 C 1.517603 -0.995428 5.167416 0
M  V30 4 C -0.371295 0.492870 5.886115 0
M  V30 5 C 0.615291 0.755628 3.671631 0
M  V30 6 N 1.190424 1.727321 2.918362 0
M  V30 7 C 0.637086 1.688450 1.692187 0
M  V30 8 C 0.947331 2.549135 0.556544 0
M  V30 9 C 1.462848 2.208935 -0.677093 0
M  V30 10 C 1.682878 3.193748 -1.618194 0
M  V30 11 C 1.401175 4.521406 -1.363071 0
M  V30 12 F 1.623923 5.472337 -2.298776 0
M  V30 13 C 0.881425 4.862155 -0.118554 0
M  V30 14 C 0.657058 3.868156 0.837390 0
M  V30 15 F 0.144321 4.353261 2.011006 0
M  V30 16 C -0.287958 0.664876 1.729453 0
M  V30 17 C -1.165019 0.207052 0.642681 0
M  V30 18 C -2.115718 1.031381 0.078035 0
M  V30 19 C -2.959582 0.645114 -0.940889 0
M  V30 20 C -2.815663 -0.655174 -1.399704 0
M  V30 21 N -3.405019 -1.412718 -2.336528 0
M  V30 22 C -2.821496 -2.623777 -2.315983 0
M  V30 23 N -3.377149 -3.496205 -3.265096 0
M  V30 24 N -1.860018 -2.734391 -1.410782 0
M  V30 25 S -0.919593 -4.114182 -1.124844 0
M  V30 26 O -1.859540 -5.260815 -0.768260 0
M  V30 27 O -0.029852 -3.958455 0.078608 0
M  V30 28 C 0.069160 -4.669418 -2.451816 0
M  V30 29 C 1.073000 -3.640100 -2.921182 0
M  V30 30 C -0.691261 -5.236005 -3.621718 0
M  V30 31 C 0.916866 -5.836388 -1.915535 0
M  V30 32 C -1.865480 -1.511374 -0.850254 0
M  V30 33 C -1.021823 -1.086504 0.186262 0
M  V30 34 N -0.301687 0.091445 2.945615 0
M  V30 35 H 1.562444 2.300593 5.988746 0
M  V30 36 H 2.703178 1.463767 4.812994 0
M  V30 37 H 2.509463 0.805022 6.450296 0
M  V30 38 H 0.729155 -1.742636 5.393520 0
M  V30 39 H 2.262955 -1.049132 5.968441 0
M  V30 40 H 1.911629 -1.261053 4.169352 0
M  V30 41 H -1.185388 0.066560 5.297325 0
M  V30 42 H -0.502784 1.554757 6.184707 0
M  V30 43 H -0.259443 -0.124929 6.820363 0
M  V30 44 H 1.650933 1.149373 -0.784234 0
M  V30 45 H 2.087978 2.873601 -2.568315 0
M  V30 46 H 0.669178 5.903371 0.058757 0
M  V30 47 H -2.243474 2.046007 0.420815 0
M  V30 48 H -3.705889 1.256946 -1.400631 0
M  V30 49 H -3.389610 -4.293507 -3.920662 0
M  V30 50 H -3.406794 -4.289370 -3.924610 0
M  V30 51 H 1.925402 -4.192267 -3.366811 0
M  V30 52 H 1.487792 -3.048208 -2.089084 0
M  V30 53 H 0.659480 -3.026540 -3.740681 0
M  V30 54 H -0.951597 -4.423974 -4.301444 0
M  V30 55 H -1.547717 -5.811135 -3.212802 0
M  V30 56 H -0.032765 -5.926367 -4.205498 0
M  V30 57 H 0.340159 -6.779497 -1.870804 0
M  V30 58 H 1.813481 -5.979000 -2.556541 0
M  V30 59 H 1.211301 -5.563364 -0.880077 0
M  V30 60 H -0.268363 -1.707730 0.648561 0
M  V30 61 H -0.895360 -0.707767 3.279385 0
M  V30 END ATOM
M  V30 BEGIN BOND
M  V30 1 1 1 2
M  V30 2 1 2 3
M  V30 3 1 2 4
M  V30 4 1 2 5
M  V30 5 2 5 6
M  V30 6 1 6 7
M  V30 7 1 7 8
M  V30 8 2 8 9
M  V30 9 1 9 10
M  V30 10 2 10 11
M  V30 11 1 11 12
M  V30 12 1 11 13
M  V30 13 2 13 14
M  V30 14 1 14 15
M  V30 15 2 7 16
M  V30 16 1 16 17
M  V30 17 2 17 18
M  V30 18 1 18 19
M  V30 19 2 19 20
M  V30 20 1 20 21
M  V30 21 2 21 22
M  V30 22 1 22 23
M  V30 23 1 22 24
M  V30 24 1 24 25
M  V30 25 2 25 26
M  V30 26 2 25 27
M  V30 27 1 25 28
M  V30 28 1 28 29
M  V30 29 1 28 30
M  V30 30 1 28 31
M  V30 31 1 24 32
M  V30 32 2 32 33
M  V30 33 1 16 34
M  V30 34 1 34 5
M  V30 35 1 14 8
M  V30 36 1 33 17
M  V30 37 1 32 20
M  V30 38 1 1 35
M  V30 39 1 1 36
M  V30 40 1 1 37
M  V30 41 1 3 38
M  V30 42 1 3 39
M  V30 43 1 3 40
M  V30 44 1 4 41
M  V30 45 1 4 42
M  V30 46 1 4 43
M  V30 47 1 9 44
M  V30 48 1 10 45
M  V30 49 1 13 46
M  V30 50 1 18 47
M  V30 51 1 19 48
M  V30 52 1 23 49
M  V30 53 1 23 50
M  V30 54 1 29 51
M  V30 55 1 29 52
M  V30 56 1 29 53
M  V30 57 1 30 54
M  V30 58 1 30 55
M  V30 59 1 30 56
M  V30 60 1 31 57
M  V30 61 1 31 58
M  V30 62 1 31 59
M  V30 63 1 33 60
M  V30 64 1 34 61
M  V30 END BOND
M  V30 END CTAB
M  END
>  <Dataset>  (295) 
ChEMBL_Kinases

>  <Ligand_Instance>  (295) 
nan

>  <PDB_ID>  (295) 
nan

>  <Standardized_SMILES>  (295) 
CC(C)(C)c1nc(-c2ccc(F)cc2F)c(-c2ccc3nc(N)n(S(=O)(=O)C(C)(C)C)c3c2)[nH]1

>  <Name>  (295) 
nan

>  <Pocket>  (295) 
nan

>  <ATP_Site>  (295) 
nan

>  <Peripheral>  (295) 
nan

>  <Num_H_Atoms_ProtBoundConf>  (295) 
nan

>  <Num_Resolved_Atoms>  (295) 
nan

>  <Num_Not_Resolved_Atoms>  (295) 
nan

$$$$
CHEMBL190516
     RDKit          3D

  0  0  0  0  0  0  0  0  0  0999 V3000
M  V30 BEGIN CTAB
M  V30 COUNTS 53 56 0 0 0
M  V30 BEGIN ATOM
M  V30 1 C 0.312602 -3.595172 -3.535012 0
M  V30 2 N 1.375736 -3.115156 -2.735431 0
M  V30 3 C 1.832080 -1.792061 -2.964332 0
M  V30 4 C 3.031867 -1.517452 -2.096202 0
M  V30 5 C 2.966404 -2.181555 -0.743044 0
M  V30 6 C 1.930489 -1.508986 0.110315 0
M  V30 7 C 2.369941 -0.847502 1.261475 0
M  V30 8 C 1.275702 -0.288741 1.929181 0
M  V30 9 C 1.238903 0.484983 3.160533 0
M  V30 10 C 0.667979 0.160907 4.373254 0
M  V30 11 C 0.722581 1.020566 5.448743 0
M  V30 12 N 1.347922 2.231120 5.350988 0
M  V30 13 C 1.924284 2.583710 4.163715 0
M  V30 14 C 1.877200 1.729872 3.075028 0
M  V30 15 C 0.197837 -0.638262 1.144812 0
M  V30 16 C -1.214106 -0.343359 1.322889 0
M  V30 17 C -2.108800 -0.747992 2.290372 0
M  V30 18 C -3.409280 -0.340309 2.265988 0
M  V30 19 C -3.886729 0.491588 1.276788 0
M  V30 20 S -5.588663 0.972049 1.321601 0
M  V30 21 C -5.659214 2.469213 2.280993 0
M  V30 22 O -6.414766 -0.124357 1.951306 0
M  V30 23 O -6.034196 1.302521 -0.070733 0
M  V30 24 C -3.021351 0.933060 0.268461 0
M  V30 25 C -1.710797 0.494286 0.333397 0
M  V30 26 N 0.603164 -1.353794 0.082841 0
M  V30 27 C 2.661941 -3.657471 -0.831408 0
M  V30 28 C 2.335896 -4.058838 -2.278262 0
M  V30 29 H -0.636902 -3.180054 -3.083868 0
M  V30 30 H 0.241558 -4.692623 -3.424839 0
M  V30 31 H 0.365810 -3.324356 -4.604277 0
M  V30 32 H 0.994241 -1.072906 -2.770213 0
M  V30 33 H 2.104187 -1.643572 -4.050350 0
M  V30 34 H 3.029869 -0.403483 -1.922238 0
M  V30 35 H 3.967097 -1.817355 -2.611138 0
M  V30 36 H 3.967304 -2.095466 -0.259157 0
M  V30 37 H 3.359986 -0.693649 1.714040 0
M  V30 38 H 0.197706 -0.792601 4.395811 0
M  V30 39 H 0.231973 0.632074 6.332115 0
M  V30 40 H 2.420922 3.543782 4.084217 0
M  V30 41 H 2.367016 2.098543 2.167605 0
M  V30 42 H -1.653390 -1.399302 3.024865 0
M  V30 43 H -4.067476 -0.687922 3.049970 0
M  V30 44 H -5.617060 2.236668 3.367043 0
M  V30 45 H -6.521704 3.095225 2.018794 0
M  V30 46 H -4.754706 3.079719 2.050449 0
M  V30 47 H -3.410824 1.581060 -0.494613 0
M  V30 48 H -1.114258 0.897020 -0.501127 0
M  V30 49 H 0.062855 -1.763379 -0.684163 0
M  V30 50 H 1.801933 -3.884932 -0.181132 0
M  V30 51 H 3.549539 -4.267816 -0.565147 0
M  V30 52 H 3.239553 -4.168694 -2.881132 0
M  V30 53 H 1.836209 -5.052829 -2.262168 0
M  V30 END ATOM
M  V30 BEGIN BOND
M  V30 1 1 1 2
M  V30 2 1 2 3
M  V30 3 1 3 4
M  V30 4 1 4 5
M  V30 5 1 5 6
M  V30 6 2 6 7
M  V30 7 1 7 8
M  V30 8 1 8 9
M  V30 9 2 9 10
M  V30 10 1 10 11
M  V30 11 2 11 12
M  V30 12 1 12 13
M  V30 13 2 13 14
M  V30 14 2 8 15
M  V30 15 1 15 16
M  V30 16 2 16 17
M  V30 17 1 17 18
M  V30 18 2 18 19
M  V30 19 1 19 20
M  V30 20 1 20 21
M  V30 21 2 20 22
M  V30 22 2 20 23
M  V30 23 1 19 24
M  V30 24 2 24 25
M  V30 25 1 15 26
M  V30 26 1 5 27
M  V30 27 1 27 28
M  V30 28 1 28 2
M  V30 29 1 26 6
M  V30 30 1 14 9
M  V30 31 1 25 16
M  V30 32 1 1 29
M  V30 33 1 1 30
M  V30 34 1 1 31
M  V30 35 1 3 32
M  V30 36 1 3 33
M  V30 37 1 4 34
M  V30 38 1 4 35
M  V30 39 1 5 36
M  V30 40 1 7 37
M  V30 41 1 10 38
M  V30 42 1 11 39
M  V30 43 1 13 40
M  V30 44 1 14 41
M  V30 45 1 17 42
M  V30 46 1 18 43
M  V30 47 1 21 44
M  V30 48 1 21 45
M  V30 49 1 21 46
M  V30 50 1 24 47
M  V30 51 1 25 48
M  V30 52 1 26 49
M  V30 53 1 27 50
M  V30 54 1 27 51
M  V30 55 1 28 52
M  V30 56 1 28 53
M  V30 END BOND
M  V30 END CTAB
M  END
>  <Dataset>  (296) 
ChEMBL_Kinases

>  <Ligand_Instance>  (296) 
nan

>  <PDB_ID>  (296) 
nan

>  <Standardized_SMILES>  (296) 
CN1CCC(c2cc(-c3ccncc3)c(-c3ccc(S(C)(=O)=O)cc3)[nH]2)CC1

>  <Name>  (296) 
nan

>  <Pocket>  (296) 
nan

>  <ATP_Site>  (296) 
nan

>  <Peripheral>  (296) 
nan

>  <Num_H_Atoms_ProtBoundConf>  (296) 
nan

>  <Num_Resolved_Atoms>  (296) 
nan

>  <Num_Not_Resolved_Atoms>  (296) 
nan

$$$$
CHEMBL190597
     RDKit          3D

  0  0  0  0  0  0  0  0  0  0999 V3000
M  V30 BEGIN CTAB
M  V30 COUNTS 35 37 0 0 0
M  V30 BEGIN ATOM
M  V30 1 N 3.436566 2.156405 2.820493 0
M  V30 2 C 2.625085 1.417449 2.451318 0
M  V30 3 C 1.644027 0.492050 2.006852 0
M  V30 4 C 1.884568 -0.434388 1.085727 0
M  V30 5 N 1.060909 -1.428581 0.522216 0
M  V30 6 C 1.660141 -2.217981 -0.451457 0
M  V30 7 C 1.057535 -3.248359 -1.151740 0
M  V30 8 C 1.776749 -3.943002 -2.098270 0
M  V30 9 C 3.086610 -3.628155 -2.358694 0
M  V30 10 C 3.737760 -2.598079 -1.679022 0
M  V30 11 C 2.972394 -1.932450 -0.739571 0
M  V30 12 S 3.499010 -0.562316 0.322680 0
M  V30 13 C 0.281930 0.569807 2.581936 0
M  V30 14 C 0.057375 0.836988 3.943721 0
M  V30 15 C -1.251476 0.901348 4.393704 0
M  V30 16 N -2.311523 0.719645 3.586907 0
M  V30 17 C -2.090024 0.460772 2.269961 0
M  V30 18 N -2.981080 0.229169 1.191817 0
M  V30 19 C -3.549374 1.098721 0.187162 0
M  V30 20 C -2.473698 1.757074 -0.655876 0
M  V30 21 O -1.674139 0.841225 -1.330723 0
M  V30 22 N -0.833280 0.409733 1.891102 0
M  V30 23 H 0.081346 -1.484319 0.884445 0
M  V30 24 H 0.038813 -3.581849 -1.030019 0
M  V30 25 H 1.375363 -4.766054 -2.691414 0
M  V30 26 H 3.694769 -4.155956 -3.105092 0
M  V30 27 H 4.774626 -2.310776 -1.852030 0
M  V30 28 H 0.907448 0.981910 4.596044 0
M  V30 29 H -1.471221 1.105064 5.439740 0
M  V30 30 H -3.132225 -0.794724 1.317246 0
M  V30 31 H -4.228192 0.574064 -0.490915 0
M  V30 32 H -4.102491 1.906677 0.699334 0
M  V30 33 H -3.023230 2.329676 -1.461108 0
M  V30 34 H -1.902179 2.521219 -0.089234 0
M  V30 35 H -0.734730 0.906539 -0.977949 0
M  V30 END ATOM
M  V30 BEGIN BOND
M  V30 1 3 1 2
M  V30 2 1 2 3
M  V30 3 2 3 4
M  V30 4 1 4 5
M  V30 5 1 5 6
M  V30 6 2 6 7
M  V30 7 1 7 8
M  V30 8 2 8 9
M  V30 9 1 9 10
M  V30 10 2 10 11
M  V30 11 1 11 12
M  V30 12 1 3 13
M  V30 13 2 13 14
M  V30 14 1 14 15
M  V30 15 2 15 16
M  V30 16 1 16 17
M  V30 17 1 17 18
M  V30 18 1 18 19
M  V30 19 1 19 20
M  V30 20 1 20 21
M  V30 21 2 17 22
M  V30 22 1 12 4
M  V30 23 1 22 13
M  V30 24 1 11 6
M  V30 25 1 5 23
M  V30 26 1 7 24
M  V30 27 1 8 25
M  V30 28 1 9 26
M  V30 29 1 10 27
M  V30 30 1 14 28
M  V30 31 1 15 29
M  V30 32 1 18 30
M  V30 33 1 19 31
M  V30 34 1 19 32
M  V30 35 1 20 33
M  V30 36 1 20 34
M  V30 37 1 21 35
M  V30 END BOND
M  V30 END CTAB
M  END
>  <Dataset>  (297) 
ChEMBL_Kinases

>  <Ligand_Instance>  (297) 
nan

>  <PDB_ID>  (297) 
nan

>  <Standardized_SMILES>  (297) 
N#C/C(=C1/Nc2ccccc2S1)c1ccnc(NCCO)n1

>  <Name>  (297) 
nan

>  <Pocket>  (297) 
nan

>  <ATP_Site>  (297) 
nan

>  <Peripheral>  (297) 
nan

>  <Num_H_Atoms_ProtBoundConf>  (297) 
nan

>  <Num_Resolved_Atoms>  (297) 
nan

>  <Num_Not_Resolved_Atoms>  (297) 
nan

$$$$
CHEMBL1906448
     RDKit          3D

  0  0  0  0  0  0  0  0  0  0999 V3000
M  V30 BEGIN CTAB
M  V30 COUNTS 36 38 0 0 0
M  V30 BEGIN ATOM
M  V30 1 C 0.615190 0.003061 4.563698 0
M  V30 2 C 0.595122 -0.445646 3.144550 0
M  V30 3 N 0.752525 -1.694815 2.666800 0
M  V30 4 N 0.670121 -1.692054 1.331883 0
M  V30 5 C 0.784824 -2.821169 0.451041 0
M  V30 6 C 0.125347 -4.000144 0.736980 0
M  V30 7 C 0.291328 -5.050453 -0.174082 0
M  V30 8 C 1.092987 -4.826659 -1.275002 0
M  V30 9 C 1.746029 -3.642456 -1.547719 0
M  V30 10 N 1.571354 -2.631390 -0.647654 0
M  V30 11 C 0.457041 -0.433332 0.926360 0
M  V30 12 C 0.404667 0.379565 2.052222 0
M  V30 13 C 0.183926 1.795515 1.904830 0
M  V30 14 O -0.156880 2.446055 2.920839 0
M  V30 15 C 0.369060 2.422009 0.559383 0
M  V30 16 C -0.241272 1.505095 -0.456792 0
M  V30 17 C -1.744445 1.521933 -0.270341 0
M  V30 18 C 0.007892 2.056992 -1.866792 0
M  V30 19 C 0.289653 0.119686 -0.452757 0
M  V30 20 Br -0.933080 -0.947611 -1.510992 0
M  V30 21 H 1.406895 0.768080 4.698057 0
M  V30 22 H 0.883844 -0.858101 5.216153 0
M  V30 23 H -0.366109 0.348312 4.916965 0
M  V30 24 H -0.478985 -4.084922 1.619165 0
M  V30 25 H -0.203002 -5.997270 0.000937 0
M  V30 26 H 1.217112 -5.659526 -1.985864 0
M  V30 27 H 2.356425 -3.554744 -2.437473 0
M  V30 28 H 1.454141 2.569468 0.389475 0
M  V30 29 H -0.153793 3.388869 0.517787 0
M  V30 30 H -2.128411 2.517006 0.005018 0
M  V30 31 H -1.957129 0.814064 0.555059 0
M  V30 32 H -2.187063 1.092396 -1.190928 0
M  V30 33 H -0.497222 1.321768 -2.539716 0
M  V30 34 H -0.410400 3.056614 -1.986803 0
M  V30 35 H 1.085449 2.005229 -2.123159 0
M  V30 36 H 1.310527 0.081705 -0.916143 0
M  V30 END ATOM
M  V30 BEGIN BOND
M  V30 1 1 1 2
M  V30 2 2 2 3
M  V30 3 1 3 4
M  V30 4 1 4 5
M  V30 5 2 5 6
M  V30 6 1 6 7
M  V30 7 2 7 8
M  V30 8 1 8 9
M  V30 9 2 9 10
M  V30 10 1 4 11
M  V30 11 2 11 12
M  V30 12 1 12 13
M  V30 13 2 13 14
M  V30 14 1 13 15
M  V30 15 1 15 16
M  V30 16 1 16 17
M  V30 17 1 16 18
M  V30 18 1 16 19
M  V30 19 1 19 20
M  V30 20 1 12 2
M  V30 21 1 10 5
M  V30 22 1 19 11
M  V30 23 1 1 21
M  V30 24 1 1 22
M  V30 25 1 1 23
M  V30 26 1 6 24
M  V30 27 1 7 25
M  V30 28 1 8 26
M  V30 29 1 9 27
M  V30 30 1 15 28
M  V30 31 1 15 29
M  V30 32 1 17 30
M  V30 33 1 17 31
M  V30 34 1 17 32
M  V30 35 1 18 33
M  V30 36 1 18 34
M  V30 37 1 18 35
M  V30 38 1 19 36
M  V30 END BOND
M  V30 END CTAB
M  END
>  <Dataset>  (298) 
ChEMBL_Kinases

>  <Ligand_Instance>  (298) 
nan

>  <PDB_ID>  (298) 
nan

>  <Standardized_SMILES>  (298) 
Cc1nn(-c2ccccn2)c2c1C(=O)CC(C)(C)C2Br

>  <Name>  (298) 
nan

>  <Pocket>  (298) 
nan

>  <ATP_Site>  (298) 
nan

>  <Peripheral>  (298) 
nan

>  <Num_H_Atoms_ProtBoundConf>  (298) 
nan

>  <Num_Resolved_Atoms>  (298) 
nan

>  <Num_Not_Resolved_Atoms>  (298) 
nan

$$$$
CHEMBL190742
     RDKit          3D

  0  0  0  0  0  0  0  0  0  0999 V3000
M  V30 BEGIN CTAB
M  V30 COUNTS 40 43 0 0 0
M  V30 BEGIN ATOM
M  V30 1 N 1.654484 3.024150 3.891303 0
M  V30 2 C 1.430284 2.412833 2.905534 0
M  V30 3 C 1.153480 1.681798 1.678465 0
M  V30 4 C 2.173915 1.163437 0.966930 0
M  V30 5 N 2.174066 0.431354 -0.225372 0
M  V30 6 C 3.427548 0.033866 -0.672134 0
M  V30 7 C 3.673985 -0.717326 -1.834723 0
M  V30 8 C 4.972135 -1.050256 -2.152327 0
M  V30 9 C 6.032144 -0.667786 -1.363021 0
M  V30 10 C 5.801950 0.068815 -0.221436 0
M  V30 11 C 4.493085 0.392196 0.078663 0
M  V30 12 S 3.901498 1.341329 1.489167 0
M  V30 13 C -0.194972 1.486640 1.179131 0
M  V30 14 C -1.024842 2.579954 1.337086 0
M  V30 15 C -2.325045 2.520604 0.887636 0
M  V30 16 N -2.802682 1.388662 0.287642 0
M  V30 17 C -1.989574 0.320953 0.135392 0
M  V30 18 N -2.274761 -0.925470 -0.472433 0
M  V30 19 C -3.060503 -2.092468 -0.118453 0
M  V30 20 C -2.731082 -2.658663 1.201499 0
M  V30 21 C -3.526446 -2.130811 2.220516 0
M  V30 22 C -3.316898 -2.581591 3.515167 0
M  V30 23 C -2.336648 -3.516165 3.681171 0
M  V30 24 N -1.549076 -4.044965 2.708767 0
M  V30 25 C -1.768663 -3.590350 1.435972 0
M  V30 26 N -0.725738 0.440391 0.595309 0
M  V30 27 H 1.235073 0.251343 -0.673736 0
M  V30 28 H 2.894189 -1.059990 -2.513889 0
M  V30 29 H 5.175320 -1.634519 -3.052908 0
M  V30 30 H 7.050295 -0.925194 -1.602165 0
M  V30 31 H 6.615514 0.376038 0.407300 0
M  V30 32 H -0.702241 3.515439 1.812225 0
M  V30 33 H -3.006161 3.338966 0.986553 0
M  V30 34 H -1.758741 -0.935241 -1.404299 0
M  V30 35 H -2.875216 -2.901725 -0.855074 0
M  V30 36 H -4.125539 -1.763337 -0.209639 0
M  V30 37 H -4.312070 -1.377135 2.069698 0
M  V30 38 H -3.903835 -2.206807 4.341484 0
M  V30 39 H -2.150528 -3.887536 4.687301 0
M  V30 40 H -1.194224 -3.949880 0.577525 0
M  V30 END ATOM
M  V30 BEGIN BOND
M  V30 1 3 1 2
M  V30 2 1 2 3
M  V30 3 2 3 4
M  V30 4 1 4 5
M  V30 5 1 5 6
M  V30 6 2 6 7
M  V30 7 1 7 8
M  V30 8 2 8 9
M  V30 9 1 9 10
M  V30 10 2 10 11
M  V30 11 1 11 12
M  V30 12 1 3 13
M  V30 13 2 13 14
M  V30 14 1 14 15
M  V30 15 2 15 16
M  V30 16 1 16 17
M  V30 17 1 17 18
M  V30 18 1 18 19
M  V30 19 1 19 20
M  V30 20 2 20 21
M  V30 21 1 21 22
M  V30 22 2 22 23
M  V30 23 1 23 24
M  V30 24 2 24 25
M  V30 25 2 17 26
M  V30 26 1 12 4
M  V30 27 1 26 13
M  V30 28 1 11 6
M  V30 29 1 25 20
M  V30 30 1 5 27
M  V30 31 1 7 28
M  V30 32 1 8 29
M  V30 33 1 9 30
M  V30 34 1 10 31
M  V30 35 1 14 32
M  V30 36 1 15 33
M  V30 37 1 18 34
M  V30 38 1 19 35
M  V30 39 1 19 36
M  V30 40 1 21 37
M  V30 41 1 22 38
M  V30 42 1 23 39
M  V30 43 1 25 40
M  V30 END BOND
M  V30 END CTAB
M  END
>  <Dataset>  (299) 
ChEMBL_Kinases

>  <Ligand_Instance>  (299) 
nan

>  <PDB_ID>  (299) 
nan

>  <Standardized_SMILES>  (299) 
N#C/C(=C1/Nc2ccccc2S1)c1ccnc(NCc2cccnc2)n1

>  <Name>  (299) 
nan

>  <Pocket>  (299) 
nan

>  <ATP_Site>  (299) 
nan

>  <Peripheral>  (299) 
nan

>  <Num_H_Atoms_ProtBoundConf>  (299) 
nan

>  <Num_Resolved_Atoms>  (299) 
nan

>  <Num_Not_Resolved_Atoms>  (299) 
nan

$$$$
CHEMBL190747
     RDKit          3D

  0  0  0  0  0  0  0  0  0  0999 V3000
M  V30 BEGIN CTAB
M  V30 COUNTS 47 49 0 0 0
M  V30 BEGIN ATOM
M  V30 1 C 4.001837 -4.650275 2.193551 0
M  V30 2 O 2.871216 -4.121137 1.532186 0
M  V30 3 C 2.940448 -2.991001 0.730609 0
M  V30 4 C 4.180343 -2.411762 0.616429 0
M  V30 5 C 4.279490 -1.291992 -0.171237 0
M  V30 6 C 3.185241 -0.769284 -0.820340 0
M  V30 7 O 3.220755 0.351329 -1.631424 0
M  V30 8 C 4.368964 1.113777 -1.904311 0
M  V30 9 C 1.931913 -1.319419 -0.728924 0
M  V30 10 C 0.601635 -0.954396 -1.266763 0
M  V30 11 N -0.022221 0.006096 -0.444920 0
M  V30 12 C 0.000876 1.299951 0.087210 0
M  V30 13 O 1.018786 1.856533 -0.361057 0
M  V30 14 C -0.918532 1.966969 0.986927 0
M  V30 15 C -0.529074 3.281360 1.276188 0
M  V30 16 C -1.240353 4.115595 2.103412 0
M  V30 17 C -2.394785 3.639112 2.678757 0
M  V30 18 N -2.752978 2.381976 2.392391 0
M  V30 19 C -2.083225 1.544104 1.591625 0
M  V30 20 O -2.419898 0.256092 1.278193 0
M  V30 21 C -3.517668 -0.395788 1.740170 0
M  V30 22 C -4.548241 -0.043205 2.569492 0
M  V30 23 C -5.550249 -0.932346 2.870807 0
M  V30 24 C -5.594382 -2.211123 2.375893 0
M  V30 25 C -4.563490 -2.594935 1.533531 0
M  V30 26 C -3.542205 -1.686505 1.227300 0
M  V30 27 C 1.851138 -2.461868 0.078858 0
M  V30 28 H 4.796942 -4.975440 1.465243 0
M  V30 29 H 4.490860 -3.930614 2.857968 0
M  V30 30 H 3.727135 -5.563719 2.757724 0
M  V30 31 H 5.058110 -2.793020 1.109591 0
M  V30 32 H 5.205257 -0.752981 -0.333525 0
M  V30 33 H 4.012594 2.077165 -2.359744 0
M  V30 34 H 4.935739 1.401191 -0.994215 0
M  V30 35 H 5.016533 0.647601 -2.677074 0
M  V30 36 H 0.805813 -0.455068 -2.274635 0
M  V30 37 H 0.017463 -1.847486 -1.538676 0
M  V30 38 H -0.883082 -0.518413 -0.084767 0
M  V30 39 H 0.369595 3.763950 0.874610 0
M  V30 40 H -0.938560 5.128006 2.325178 0
M  V30 41 H -3.047355 4.182530 3.344904 0
M  V30 42 H -4.494854 0.961162 2.945603 0
M  V30 43 H -6.324890 -0.578103 3.530091 0
M  V30 44 H -6.409351 -2.867288 2.648029 0
M  V30 45 H -4.633928 -3.605904 1.166472 0
M  V30 46 H -2.826577 -2.162671 0.556824 0
M  V30 47 H 0.937302 -3.033028 0.267443 0
M  V30 END ATOM
M  V30 BEGIN BOND
M  V30 1 1 1 2
M  V30 2 1 2 3
M  V30 3 2 3 4
M  V30 4 1 4 5
M  V30 5 2 5 6
M  V30 6 1 6 7
M  V30 7 1 7 8
M  V30 8 1 6 9
M  V30 9 1 9 10
M  V30 10 1 10 11
M  V30 11 1 11 12
M  V30 12 2 12 13
M  V30 13 1 12 14
M  V30 14 2 14 15
M  V30 15 1 15 16
M  V30 16 2 16 17
M  V30 17 1 17 18
M  V30 18 2 18 19
M  V30 19 1 19 20
M  V30 20 1 20 21
M  V30 21 2 21 22
M  V30 22 1 22 23
M  V30 23 2 23 24
M  V30 24 1 24 25
M  V30 25 2 25 26
M  V30 26 2 9 27
M  V30 27 1 27 3
M  V30 28 1 19 14
M  V30 29 1 26 21
M  V30 30 1 1 28
M  V30 31 1 1 29
M  V30 32 1 1 30
M  V30 33 1 4 31
M  V30 34 1 5 32
M  V30 35 1 8 33
M  V30 36 1 8 34
M  V30 37 1 8 35
M  V30 38 1 10 36
M  V30 39 1 10 37
M  V30 40 1 11 38
M  V30 41 1 15 39
M  V30 42 1 16 40
M  V30 43 1 17 41
M  V30 44 1 22 42
M  V30 45 1 23 43
M  V30 46 1 24 44
M  V30 47 1 25 45
M  V30 48 1 26 46
M  V30 49 1 27 47
M  V30 END BOND
M  V30 END CTAB
M  END
>  <Dataset>  (300) 
ChEMBL_Kinases

>  <Ligand_Instance>  (300) 
nan

>  <PDB_ID>  (300) 
nan

>  <Standardized_SMILES>  (300) 
COc1ccc(OC)c(CNC(=O)c2cccnc2Oc2ccccc2)c1

>  <Name>  (300) 
nan

>  <Pocket>  (300) 
nan

>  <ATP_Site>  (300) 
nan

>  <Peripheral>  (300) 
nan

>  <Num_H_Atoms_ProtBoundConf>  (300) 
nan

>  <Num_Resolved_Atoms>  (300) 
nan

>  <Num_Not_Resolved_Atoms>  (300) 
nan

$$$$
CHEMBL190812
     RDKit          3D

  0  0  0  0  0  0  0  0  0  0999 V3000
M  V30 BEGIN CTAB
M  V30 COUNTS 42 44 0 0 0
M  V30 BEGIN ATOM
M  V30 1 C 1.663151 -3.623061 1.289759 0
M  V30 2 C 0.264193 -3.152342 1.417185 0 CFG=2
M  V30 3 N 0.021819 -2.112062 0.395388 0
M  V30 4 C -0.848069 -2.000590 -0.761719 0
M  V30 5 O -1.471547 -3.040690 -0.835312 0
M  V30 6 C -0.514816 -0.640224 -1.260734 0
M  V30 7 C -1.489069 -0.832059 -2.355763 0
M  V30 8 C -1.813016 0.101471 -3.390197 0
M  V30 9 C -1.136138 1.340460 -3.377385 0
M  V30 10 N -0.250154 1.482847 -2.361239 0
M  V30 11 C -0.050930 0.529998 -1.469317 0
M  V30 12 O 0.782218 0.466804 -0.382388 0
M  V30 13 C 1.646940 1.386863 0.081052 0
M  V30 14 C 1.580648 2.346834 1.081794 0
M  V30 15 C 2.689539 3.169154 1.307562 0
M  V30 16 C 3.821145 3.023858 0.552047 0
M  V30 17 C 3.967414 2.104734 -0.449992 0
M  V30 18 C 2.835104 1.290312 -0.656509 0
M  V30 19 C -0.144022 -2.654707 2.749637 0
M  V30 20 C -1.494134 -2.242029 2.653614 0
M  V30 21 C -2.110087 -1.703922 3.781657 0
M  V30 22 C -1.429434 -1.574254 4.963608 0
M  V30 23 C -0.128385 -1.958640 5.104179 0
M  V30 24 C 0.443388 -2.484922 3.964901 0
M  V30 25 H 2.170218 -3.763261 2.261354 0
M  V30 26 H 1.673421 -4.638363 0.815411 0
M  V30 27 H 2.278554 -2.973851 0.620216 0
M  V30 28 H -0.422772 -4.005578 1.195534 0
M  V30 29 H 0.729573 -1.426977 0.811144 0
M  V30 30 H -2.218789 -1.584663 -2.765535 0
M  V30 31 H -2.460552 0.176108 -4.260294 0
M  V30 32 H -1.087266 2.260053 -3.935318 0
M  V30 33 H 0.596203 2.304081 1.571369 0
M  V30 34 H 2.512122 3.851560 2.100346 0
M  V30 35 H 4.641032 3.700838 0.795824 0
M  V30 36 H 4.862905 2.028689 -1.015993 0
M  V30 37 H 3.037921 0.578972 -1.479578 0
M  V30 38 H -2.190426 -2.268604 1.793758 0
M  V30 39 H -3.147640 -1.359902 3.787210 0
M  V30 40 H -1.934611 -1.155780 5.829741 0
M  V30 41 H 0.512007 -1.908278 5.951830 0
M  V30 42 H 1.477236 -2.831423 3.912867 0
M  V30 END ATOM
M  V30 BEGIN BOND
M  V30 1 1 1 2
M  V30 2 1 2 3
M  V30 3 1 3 4
M  V30 4 2 4 5
M  V30 5 1 4 6
M  V30 6 2 6 7
M  V30 7 1 7 8
M  V30 8 2 8 9
M  V30 9 1 9 10
M  V30 10 2 10 11
M  V30 11 1 11 12
M  V30 12 1 12 13
M  V30 13 2 13 14
M  V30 14 1 14 15
M  V30 15 2 15 16
M  V30 16 1 16 17
M  V30 17 2 17 18
M  V30 18 1 2 19
M  V30 19 2 19 20
M  V30 20 1 20 21
M  V30 21 2 21 22
M  V30 22 1 22 23
M  V30 23 2 23 24
M  V30 24 1 11 6
M  V30 25 1 18 13
M  V30 26 1 24 19
M  V30 27 1 1 25
M  V30 28 1 1 26
M  V30 29 1 1 27
M  V30 30 1 2 28 CFG=3
M  V30 31 1 3 29
M  V30 32 1 7 30
M  V30 33 1 8 31
M  V30 34 1 9 32
M  V30 35 1 14 33
M  V30 36 1 15 34
M  V30 37 1 16 35
M  V30 38 1 17 36
M  V30 39 1 18 37
M  V30 40 1 20 38
M  V30 41 1 21 39
M  V30 42 1 22 40
M  V30 43 1 23 41
M  V30 44 1 24 42
M  V30 END BOND
M  V30 END CTAB
M  END
>  <Dataset>  (301) 
ChEMBL_Kinases

>  <Ligand_Instance>  (301) 
nan

>  <PDB_ID>  (301) 
nan

>  <Standardized_SMILES>  (301) 
C[C@H](NC(=O)c1cccnc1Oc1ccccc1)c1ccccc1

>  <Name>  (301) 
nan

>  <Pocket>  (301) 
nan

>  <ATP_Site>  (301) 
nan

>  <Peripheral>  (301) 
nan

>  <Num_H_Atoms_ProtBoundConf>  (301) 
nan

>  <Num_Resolved_Atoms>  (301) 
nan

>  <Num_Not_Resolved_Atoms>  (301) 
nan

$$$$
CHEMBL1910193
     RDKit          3D

  0  0  0  0  0  0  0  0  0  0999 V3000
M  V30 BEGIN CTAB
M  V30 COUNTS 36 39 0 0 0
M  V30 BEGIN ATOM
M  V30 1 N 3.046963 -7.980107 0.052192 0
M  V30 2 C 2.978504 -6.823399 0.142085 0
M  V30 3 C 2.900482 -5.395842 0.246137 0
M  V30 4 C 1.685383 -4.751554 0.229577 0
M  V30 5 C 1.611215 -3.362393 0.330903 0
M  V30 6 C 2.769162 -2.619610 0.449551 0
M  V30 7 C 2.601416 -1.171628 0.550303 0
M  V30 8 C 3.635842 -0.267317 0.674589 0
M  V30 9 N 3.450588 1.054928 0.764887 0
M  V30 10 C 2.201807 1.555326 0.735581 0
M  V30 11 C 1.137374 0.685714 0.612306 0
M  V30 12 C -0.243151 1.167407 0.574456 0
M  V30 13 C -0.602763 2.497708 0.656014 0
M  V30 14 C -1.981366 2.472026 0.579807 0
M  V30 15 C -2.935412 3.470072 0.604136 0
M  V30 16 C -4.278193 3.169620 0.509007 0
M  V30 17 O -5.301636 4.099287 0.524403 0
M  V30 18 C -4.676413 1.853221 0.387684 0
M  V30 19 C -3.755796 0.799536 0.357336 0
M  V30 20 C -2.422585 1.160530 0.456540 0
M  V30 21 N -1.317792 0.379840 0.456817 0
M  V30 22 N 1.368005 -0.657303 0.522880 0
M  V30 23 C 3.986686 -3.246184 0.467587 0
M  V30 24 C 4.055471 -4.633989 0.366072 0
M  V30 25 H 0.813836 -5.386406 0.134534 0
M  V30 26 H 0.614249 -2.943395 0.309012 0
M  V30 27 H 4.639495 -0.644213 0.700048 0
M  V30 28 H 2.023910 2.612781 0.806202 0
M  V30 29 H 0.036719 3.358736 0.755788 0
M  V30 30 H -2.655190 4.500660 0.697429 0
M  V30 31 H -6.021340 4.057295 1.249567 0
M  V30 32 H -5.717331 1.520779 0.306400 0
M  V30 33 H -4.059047 -0.237831 0.262281 0
M  V30 34 H -1.303878 -0.677133 0.377368 0
M  V30 35 H 4.891103 -2.661159 0.560618 0
M  V30 36 H 5.037347 -5.082875 0.384887 0
M  V30 END ATOM
M  V30 BEGIN BOND
M  V30 1 3 1 2
M  V30 2 1 2 3
M  V30 3 2 3 4
M  V30 4 1 4 5
M  V30 5 2 5 6
M  V30 6 1 6 7
M  V30 7 2 7 8
M  V30 8 1 8 9
M  V30 9 2 9 10
M  V30 10 1 10 11
M  V30 11 1 11 12
M  V30 12 2 12 13
M  V30 13 1 13 14
M  V30 14 2 14 15
M  V30 15 1 15 16
M  V30 16 1 16 17
M  V30 17 2 16 18
M  V30 18 1 18 19
M  V30 19 2 19 20
M  V30 20 1 20 21
M  V30 21 2 11 22
M  V30 22 1 6 23
M  V30 23 2 23 24
M  V30 24 1 24 3
M  V30 25 1 22 7
M  V30 26 1 21 12
M  V30 27 1 20 14
M  V30 28 1 4 25
M  V30 29 1 5 26
M  V30 30 1 8 27
M  V30 31 1 10 28
M  V30 32 1 13 29
M  V30 33 1 15 30
M  V30 34 1 17 31
M  V30 35 1 18 32
M  V30 36 1 19 33
M  V30 37 1 21 34
M  V30 38 1 23 35
M  V30 39 1 24 36
M  V30 END BOND
M  V30 END CTAB
M  END
>  <Dataset>  (302) 
ChEMBL_Kinases

>  <Ligand_Instance>  (302) 
nan

>  <PDB_ID>  (302) 
nan

>  <Standardized_SMILES>  (302) 
N#Cc1ccc(-c2cncc(-c3cc4cc(O)ccc4[nH]3)n2)cc1

>  <Name>  (302) 
nan

>  <Pocket>  (302) 
nan

>  <ATP_Site>  (302) 
nan

>  <Peripheral>  (302) 
nan

>  <Num_H_Atoms_ProtBoundConf>  (302) 
nan

>  <Num_Resolved_Atoms>  (302) 
nan

>  <Num_Not_Resolved_Atoms>  (302) 
nan

$$$$
CHEMBL190880
     RDKit          3D

  0  0  0  0  0  0  0  0  0  0999 V3000
M  V30 BEGIN CTAB
M  V30 COUNTS 30 32 0 0 0
M  V30 BEGIN ATOM
M  V30 1 O 0.926411 -1.719814 2.552069 0
M  V30 2 C 1.574330 -1.426376 1.532188 0
M  V30 3 N 2.936008 -1.818885 1.520276 0
M  V30 4 C 3.474912 -1.389109 0.279763 0
M  V30 5 C 4.698419 -1.446000 -0.355691 0
M  V30 6 C 4.916485 -0.915607 -1.610600 0
M  V30 7 C 3.877897 -0.297855 -2.273940 0
M  V30 8 C 2.651109 -0.224866 -1.670455 0
M  V30 9 C 2.451266 -0.769424 -0.396882 0
M  V30 10 C 1.163530 -0.736092 0.327968 0
M  V30 11 C -0.020137 -0.214804 -0.042059 0
M  V30 12 C -0.996921 -0.418991 0.992382 0
M  V30 13 O -1.445242 0.175942 0.012717 0
M  V30 14 C -2.314810 -0.281090 1.514972 0
M  V30 15 C -2.208633 -0.905664 2.768630 0
M  V30 16 C -3.297985 -1.002678 3.646247 0
M  V30 17 C -4.475049 -0.449849 3.205428 0
M  V30 18 C -4.692728 0.177386 2.015006 0
M  V30 19 C -3.584073 0.229791 1.219694 0
M  V30 20 H 3.536309 -2.317104 2.201823 0
M  V30 21 H 5.494895 -1.945345 0.207081 0
M  V30 22 H 5.888995 -0.988443 -2.057368 0
M  V30 23 H 4.033646 0.127310 -3.268113 0
M  V30 24 H 1.864404 0.277324 -2.245274 0
M  V30 25 H 0.175685 0.211191 -1.062695 0
M  V30 26 H -1.446752 -1.417436 3.379122 0
M  V30 27 H -3.444618 -1.422123 4.622772 0
M  V30 28 H -5.425287 -0.435083 3.761038 0
M  V30 29 H -5.548680 0.640079 1.566265 0
M  V30 30 H -3.560508 0.686474 0.240541 0
M  V30 END ATOM
M  V30 BEGIN BOND
M  V30 1 2 1 2
M  V30 2 1 2 3
M  V30 3 1 3 4
M  V30 4 2 4 5
M  V30 5 1 5 6
M  V30 6 2 6 7
M  V30 7 1 7 8
M  V30 8 2 8 9
M  V30 9 1 9 10
M  V30 10 2 10 11
M  V30 11 1 11 12
M  V30 12 2 12 13
M  V30 13 1 12 14
M  V30 14 2 14 15
M  V30 15 1 15 16
M  V30 16 2 16 17
M  V30 17 1 17 18
M  V30 18 2 18 19
M  V30 19 1 10 2
M  V30 20 1 19 14
M  V30 21 1 9 4
M  V30 22 1 3 20
M  V30 23 1 5 21
M  V30 24 1 6 22
M  V30 25 1 7 23
M  V30 26 1 8 24
M  V30 27 1 11 25
M  V30 28 1 15 26
M  V30 29 1 16 27
M  V30 30 1 17 28
M  V30 31 1 18 29
M  V30 32 1 19 30
M  V30 END BOND
M  V30 END CTAB
M  END
>  <Dataset>  (303) 
ChEMBL_Kinases

>  <Ligand_Instance>  (303) 
nan

>  <PDB_ID>  (303) 
nan

>  <Standardized_SMILES>  (303) 
O=C1Nc2ccccc2/C1=C/C(=O)c1ccccc1

>  <Name>  (303) 
nan

>  <Pocket>  (303) 
nan

>  <ATP_Site>  (303) 
nan

>  <Peripheral>  (303) 
nan

>  <Num_H_Atoms_ProtBoundConf>  (303) 
nan

>  <Num_Resolved_Atoms>  (303) 
nan

>  <Num_Not_Resolved_Atoms>  (303) 
nan

$$$$
CHEMBL1908842
     RDKit          3D

  0  0  0  0  0  0  0  0  0  0999 V3000
M  V30 BEGIN CTAB
M  V30 COUNTS 66 69 0 0 0
M  V30 BEGIN ATOM
M  V30 1 C 3.710777 1.815712 5.121487 0
M  V30 2 N 2.316506 1.838424 4.799729 0
M  V30 3 C 1.525988 2.257339 5.920937 0
M  V30 4 C 1.993074 2.555570 3.584544 0
M  V30 5 C 0.530674 2.472941 3.407072 0
M  V30 6 O -0.336958 1.911533 4.120453 0
M  V30 7 N -0.208679 3.049478 2.327902 0
M  V30 8 C -1.643989 2.895731 2.269126 0
M  V30 9 C -2.059754 1.990567 1.152076 0
M  V30 10 C -1.324732 2.185207 -0.137991 0
M  V30 11 C -0.710246 0.892847 -0.618406 0
M  V30 12 C 0.566943 0.759685 -0.124901 0
M  V30 13 C 1.215085 -0.420785 -0.517352 0
M  V30 14 C 0.538659 -1.307057 -1.332057 0
M  V30 15 N 1.316393 -2.452283 -1.681184 0
M  V30 16 C 0.889406 -3.215775 -0.499854 0
M  V30 17 O 0.059782 -2.608555 0.306139 0
M  V30 18 C 1.207746 -4.578832 -0.003301 0
M  V30 19 N 0.718169 -5.093076 1.125292 0
M  V30 20 C 1.223143 -6.345644 1.255421 0
M  V30 21 C 0.858425 -7.133561 2.393477 0
M  V30 22 N 0.546123 -7.774202 3.303707 0
M  V30 23 C 2.044354 -6.619487 0.187462 0
M  V30 24 N 2.009870 -5.494582 -0.576200 0
M  V30 25 C -0.733162 -1.172771 -1.822568 0
M  V30 26 C -1.479822 -2.029465 -2.686175 0
M  V30 27 C -1.077479 -3.130538 -3.289824 0
M  V30 28 C -1.927617 -3.962651 -4.172977 0
M  V30 29 C -3.164625 -4.317062 -3.360573 0
M  V30 30 C -3.712736 -3.083647 -2.689975 0
M  V30 31 C -2.881934 -1.847306 -3.054930 0
M  V30 32 C -1.358233 -0.009016 -1.428918 0
M  V30 33 C -0.376440 3.311468 -0.120849 0
M  V30 34 C 0.131443 3.818986 1.172365 0
M  V30 35 H 4.057664 2.636837 5.762200 0
M  V30 36 H 4.370806 1.811253 4.222843 0
M  V30 37 H 3.887725 0.811369 5.612712 0
M  V30 38 H 0.771200 1.472720 6.124530 0
M  V30 39 H 2.124260 2.363444 6.842561 0
M  V30 40 H 0.961215 3.170531 5.634652 0
M  V30 41 H 2.236015 3.652321 3.673275 0
M  V30 42 H 2.574669 2.104604 2.782069 0
M  V30 43 H -2.154220 3.891563 2.259735 0
M  V30 44 H -1.963529 2.399199 3.221106 0
M  V30 45 H -1.849079 0.933455 1.492989 0
M  V30 46 H -3.164091 2.062404 1.073213 0
M  V30 47 H -2.133135 2.385449 -0.902898 0
M  V30 48 H 1.105553 1.423920 0.498287 0
M  V30 49 H 2.225035 -0.604640 -0.172167 0
M  V30 50 H 1.877697 -3.290995 -1.924774 0
M  V30 51 H 2.559703 -7.536676 0.059475 0
M  V30 52 H 2.536010 -5.378499 -1.473841 0
M  V30 53 H -0.078801 -3.481187 -3.171703 0
M  V30 54 H -2.188274 -3.389901 -5.085102 0
M  V30 55 H -1.450248 -4.932481 -4.426696 0
M  V30 56 H -3.964723 -4.775872 -3.955273 0
M  V30 57 H -2.824480 -5.078584 -2.625091 0
M  V30 58 H -3.579165 -3.235039 -1.579244 0
M  V30 59 H -4.769209 -2.940751 -2.931527 0
M  V30 60 H -2.950851 -1.750491 -4.179539 0
M  V30 61 H -3.340893 -0.940584 -2.671833 0
M  V30 62 H -2.335322 0.361321 -1.654026 0
M  V30 63 H -0.870735 4.182062 -0.661557 0
M  V30 64 H 0.506766 3.107416 -0.788319 0
M  V30 65 H 1.235580 3.960570 1.208037 0
M  V30 66 H -0.262513 4.871773 1.323991 0
M  V30 END ATOM
M  V30 BEGIN BOND
M  V30 1 1 1 2
M  V30 2 1 2 3
M  V30 3 1 2 4
M  V30 4 1 4 5
M  V30 5 2 5 6
M  V30 6 1 5 7
M  V30 7 1 7 8
M  V30 8 1 8 9
M  V30 9 1 9 10
M  V30 10 1 10 11
M  V30 11 2 11 12
M  V30 12 1 12 13
M  V30 13 2 13 14
M  V30 14 1 14 15
M  V30 15 1 15 16
M  V30 16 2 16 17
M  V30 17 1 16 18
M  V30 18 2 18 19
M  V30 19 1 19 20
M  V30 20 1 20 21
M  V30 21 3 21 22
M  V30 22 2 20 23
M  V30 23 1 23 24
M  V30 24 1 14 25
M  V30 25 1 25 26
M  V30 26 2 26 27
M  V30 27 1 27 28
M  V30 28 1 28 29
M  V30 29 1 29 30
M  V30 30 1 30 31
M  V30 31 2 25 32
M  V30 32 1 10 33
M  V30 33 1 33 34
M  V30 34 1 34 7
M  V30 35 1 32 11
M  V30 36 1 24 18
M  V30 37 1 31 26
M  V30 38 1 1 35
M  V30 39 1 1 36
M  V30 40 1 1 37
M  V30 41 1 3 38
M  V30 42 1 3 39
M  V30 43 1 3 40
M  V30 44 1 4 41
M  V30 45 1 4 42
M  V30 46 1 8 43
M  V30 47 1 8 44
M  V30 48 1 9 45
M  V30 49 1 9 46
M  V30 50 1 10 47
M  V30 51 1 12 48
M  V30 52 1 13 49
M  V30 53 1 15 50
M  V30 54 1 23 51
M  V30 55 1 24 52
M  V30 56 1 27 53
M  V30 57 1 28 54
M  V30 58 1 28 55
M  V30 59 1 29 56
M  V30 60 1 29 57
M  V30 61 1 30 58
M  V30 62 1 30 59
M  V30 63 1 31 60
M  V30 64 1 31 61
M  V30 65 1 32 62
M  V30 66 1 33 63
M  V30 67 1 33 64
M  V30 68 1 34 65
M  V30 69 1 34 66
M  V30 END BOND
M  V30 END CTAB
M  END
>  <Dataset>  (304) 
ChEMBL_Kinases

>  <Ligand_Instance>  (304) 
nan

>  <PDB_ID>  (304) 
nan

>  <Standardized_SMILES>  (304) 
CN(C)CC(=O)N1CCC(c2ccc(NC(=O)c3nc(C#N)c[nH]3)c(C3=CCCCC3)c2)CC1

>  <Name>  (304) 
nan

>  <Pocket>  (304) 
nan

>  <ATP_Site>  (304) 
nan

>  <Peripheral>  (304) 
nan

>  <Num_H_Atoms_ProtBoundConf>  (304) 
nan

>  <Num_Resolved_Atoms>  (304) 
nan

>  <Num_Not_Resolved_Atoms>  (304) 
nan

$$$$
CHEMBL190924
     RDKit          3D

  0  0  0  0  0  0  0  0  0  0999 V3000
M  V30 BEGIN CTAB
M  V30 COUNTS 54 57 0 0 0
M  V30 BEGIN ATOM
M  V30 1 O 3.185854 -0.078019 5.944946 0
M  V30 2 C 2.227272 -1.096367 5.879624 0
M  V30 3 C 1.803683 -1.258591 4.448374 0
M  V30 4 C 2.956237 -1.625062 3.543975 0
M  V30 5 N 2.446875 -1.759094 2.186042 0
M  V30 6 C 3.465041 -2.103343 1.241132 0
M  V30 7 C 2.920831 -1.856443 -0.152906 0
M  V30 8 C 1.629803 -2.554742 -0.394656 0
M  V30 9 C 0.494279 -1.622323 -0.639067 0
M  V30 10 C 0.021393 -0.562565 0.082663 0
M  V30 11 C -1.069200 0.025460 -0.522761 0
M  V30 12 C -1.805099 1.189643 0.007819 0
M  V30 13 C -0.991937 2.302307 0.101477 0
M  V30 14 C -1.539514 3.487224 0.587078 0
M  V30 15 N -2.834132 3.538794 0.955125 0
M  V30 16 C -3.618786 2.450648 0.860693 0
M  V30 17 C -3.130649 1.249842 0.386786 0
M  V30 18 C -1.269964 -0.716288 -1.673895 0
M  V30 19 C -2.333240 -0.447005 -2.635261 0
M  V30 20 C -2.436918 0.720273 -3.352207 0
M  V30 21 C -3.515969 0.826234 -4.236296 0
M  V30 22 C -4.431637 -0.204145 -4.374679 0
M  V30 23 F -5.464805 -0.053575 -5.248034 0
M  V30 24 C -4.312473 -1.371157 -3.646071 0
M  V30 25 C -3.252460 -1.486699 -2.771300 0
M  V30 26 N -0.327844 -1.674491 -1.701579 0
M  V30 27 C 1.365665 -3.452831 0.806184 0
M  V30 28 C 1.374508 -2.714336 2.096944 0
M  V30 29 H 2.822539 0.795261 5.726730 0
M  V30 30 H 2.571968 -2.020025 6.365809 0
M  V30 31 H 1.358851 -0.732044 6.465579 0
M  V30 32 H 0.950306 -1.941297 4.315741 0
M  V30 33 H 1.443237 -0.250045 4.117378 0
M  V30 34 H 3.469576 -2.534484 3.909278 0
M  V30 35 H 3.699317 -0.803164 3.496752 0
M  V30 36 H 4.421862 -1.568166 1.386178 0
M  V30 37 H 3.692777 -3.186661 1.319137 0
M  V30 38 H 3.650161 -2.155282 -0.929352 0
M  V30 39 H 2.733095 -0.761979 -0.315425 0
M  V30 40 H 1.743562 -3.248082 -1.259787 0
M  V30 41 H 0.437453 -0.210350 1.016129 0
M  V30 42 H 0.056242 2.355628 -0.169462 0
M  V30 43 H -0.934496 4.382070 0.675850 0
M  V30 44 H -4.667774 2.444547 1.145116 0
M  V30 45 H -3.657956 0.314578 0.265594 0
M  V30 46 H -1.692109 1.489083 -3.201865 0
M  V30 47 H -3.571634 1.753830 -4.785563 0
M  V30 48 H -5.065993 -2.133039 -3.806827 0
M  V30 49 H -3.195617 -2.420212 -2.217895 0
M  V30 50 H -0.278132 -2.368127 -2.489404 0
M  V30 51 H 0.320667 -3.842784 0.634066 0
M  V30 52 H 2.043208 -4.323114 0.778456 0
M  V30 53 H 0.389454 -2.234681 2.282910 0
M  V30 54 H 1.593583 -3.478261 2.903425 0
M  V30 END ATOM
M  V30 BEGIN BOND
M  V30 1 1 1 2
M  V30 2 1 2 3
M  V30 3 1 3 4
M  V30 4 1 4 5
M  V30 5 1 5 6
M  V30 6 1 6 7
M  V30 7 1 7 8
M  V30 8 1 8 9
M  V30 9 2 9 10
M  V30 10 1 10 11
M  V30 11 1 11 12
M  V30 12 2 12 13
M  V30 13 1 13 14
M  V30 14 2 14 15
M  V30 15 1 15 16
M  V30 16 2 16 17
M  V30 17 2 11 18
M  V30 18 1 18 19
M  V30 19 2 19 20
M  V30 20 1 20 21
M  V30 21 2 21 22
M  V30 22 1 22 23
M  V30 23 1 22 24
M  V30 24 2 24 25
M  V30 25 1 18 26
M  V30 26 1 8 27
M  V30 27 1 27 28
M  V30 28 1 28 5
M  V30 29 1 26 9
M  V30 30 1 17 12
M  V30 31 1 25 19
M  V30 32 1 1 29
M  V30 33 1 2 30
M  V30 34 1 2 31
M  V30 35 1 3 32
M  V30 36 1 3 33
M  V30 37 1 4 34
M  V30 38 1 4 35
M  V30 39 1 6 36
M  V30 40 1 6 37
M  V30 41 1 7 38
M  V30 42 1 7 39
M  V30 43 1 8 40
M  V30 44 1 10 41
M  V30 45 1 13 42
M  V30 46 1 14 43
M  V30 47 1 16 44
M  V30 48 1 17 45
M  V30 49 1 20 46
M  V30 50 1 21 47
M  V30 51 1 24 48
M  V30 52 1 25 49
M  V30 53 1 26 50
M  V30 54 1 27 51
M  V30 55 1 27 52
M  V30 56 1 28 53
M  V30 57 1 28 54
M  V30 END BOND
M  V30 END CTAB
M  END
>  <Dataset>  (305) 
ChEMBL_Kinases

>  <Ligand_Instance>  (305) 
nan

>  <PDB_ID>  (305) 
nan

>  <Standardized_SMILES>  (305) 
OCCCN1CCC(c2cc(-c3ccncc3)c(-c3ccc(F)cc3)[nH]2)CC1

>  <Name>  (305) 
nan

>  <Pocket>  (305) 
nan

>  <ATP_Site>  (305) 
nan

>  <Peripheral>  (305) 
nan

>  <Num_H_Atoms_ProtBoundConf>  (305) 
nan

>  <Num_Resolved_Atoms>  (305) 
nan

>  <Num_Not_Resolved_Atoms>  (305) 
nan

$$$$
CHEMBL1909360
     RDKit          3D

  0  0  0  0  0  0  0  0  0  0999 V3000
M  V30 BEGIN CTAB
M  V30 COUNTS 81 85 0 0 0
M  V30 BEGIN ATOM
M  V30 1 C -0.807711 -6.089527 -1.763240 0
M  V30 2 N 0.147511 -5.335676 -2.575377 0
M  V30 3 C 1.499777 -5.812089 -2.361235 0
M  V30 4 C 2.390896 -5.002552 -3.286590 0
M  V30 5 N 2.439622 -3.638257 -2.789589 0
M  V30 6 C 3.521958 -2.815882 -3.273131 0
M  V30 7 O 4.322650 -3.350260 -4.073621 0
M  V30 8 C 3.427106 -1.493711 -2.691384 0
M  V30 9 C 3.333372 -0.312616 -3.436583 0
M  V30 10 C 3.214367 0.953504 -2.871178 0
M  V30 11 C 3.186459 1.051049 -1.512113 0
M  V30 12 N 3.076486 2.305805 -0.858711 0
M  V30 13 C 2.616246 2.427891 0.496529 0
M  V30 14 O 2.236196 1.494110 1.263778 0
M  V30 15 N 2.454803 3.577890 1.339303 0
M  V30 16 C 1.908822 2.985978 2.545072 0
M  V30 17 C 2.493013 2.504050 3.678782 0
M  V30 18 C 1.685809 1.931965 4.631208 0
M  V30 19 C 0.314420 1.844205 4.450313 0
M  V30 20 N -0.509711 1.201835 5.439483 0
M  V30 21 C -0.115145 0.606482 6.694008 0
M  V30 22 C -1.919707 1.142773 5.111661 0
M  V30 23 C -3.018266 1.854870 5.534561 0
M  V30 24 C -4.200077 1.529389 4.915962 0
M  V30 25 N -4.263344 0.577732 3.962881 0
M  V30 26 C -3.171190 -0.122577 3.550422 0
M  V30 27 N -3.651322 -0.999171 2.527056 0
M  V30 28 C -3.183358 -0.866168 1.184902 0
M  V30 29 C -3.880476 -1.474634 0.133209 0
M  V30 30 C -3.487870 -1.412347 -1.187680 0
M  V30 31 C -2.336345 -0.714351 -1.543111 0
M  V30 32 C -1.896625 -0.607625 -2.935073 0
M  V30 33 S -2.351553 0.871355 -3.777776 0
M  V30 34 C -1.633578 2.299102 -2.949421 0
M  V30 35 O -1.681796 0.819998 -5.131607 0
M  V30 36 O -3.803111 1.025768 -4.022951 0
M  V30 37 C -1.638672 -0.106990 -0.502345 0
M  V30 38 C -2.040783 -0.172136 0.837829 0
M  V30 39 N -2.013988 0.190362 4.151788 0
M  V30 40 C -0.280184 2.330856 3.310846 0
M  V30 41 C 0.518400 2.913608 2.334255 0
M  V30 42 C 3.278613 -0.089749 -0.747640 0
M  V30 43 C 3.397390 -1.341365 -1.306983 0
M  V30 44 C 1.375811 -3.334586 -1.879600 0
M  V30 45 C 0.039696 -3.932661 -2.285817 0
M  V30 46 H -0.580144 -7.154601 -1.901584 0
M  V30 47 H -1.807511 -5.902570 -2.203470 0
M  V30 48 H -0.740472 -5.814548 -0.710401 0
M  V30 49 H 1.504830 -6.877607 -2.598837 0
M  V30 50 H 1.845316 -5.622750 -1.310551 0
M  V30 51 H 3.386947 -5.468207 -3.363000 0
M  V30 52 H 1.904548 -5.030952 -4.283115 0
M  V30 53 H 3.356892 -0.407202 -4.516419 0
M  V30 54 H 3.146955 1.834210 -3.494018 0
M  V30 55 H 3.292775 3.255666 -1.225619 0
M  V30 56 H 2.748529 4.469998 0.897290 0
M  V30 57 H 3.549941 2.646616 3.665833 0
M  V30 58 H 2.179964 1.560003 5.513584 0
M  V30 59 H -0.785002 0.999257 7.509826 0
M  V30 60 H -0.291135 -0.494789 6.595090 0
M  V30 61 H 0.942666 0.822543 6.940228 0
M  V30 62 H -2.733151 2.550250 6.289955 0
M  V30 63 H -5.034258 2.131557 5.293905 0
M  V30 64 H -4.345915 -1.750085 2.726461 0
M  V30 65 H -4.760410 -2.010798 0.397327 0
M  V30 66 H -4.064682 -1.901256 -1.960605 0
M  V30 67 H -2.291965 -1.470386 -3.519244 0
M  V30 68 H -0.790422 -0.679437 -2.961436 0
M  V30 69 H -0.540740 2.251372 -3.187873 0
M  V30 70 H -1.808058 2.263640 -1.870198 0
M  V30 71 H -2.013577 3.190622 -3.473121 0
M  V30 72 H -0.740012 0.451753 -0.713226 0
M  V30 73 H -1.470347 0.312159 1.613688 0
M  V30 74 H -1.374309 2.266162 3.164195 0
M  V30 75 H -0.054419 3.262329 1.479181 0
M  V30 76 H 3.282744 -0.178513 0.325952 0
M  V30 77 H 3.484998 -2.267434 -0.734029 0
M  V30 78 H 1.618913 -3.660704 -0.832257 0
M  V30 79 H 1.212849 -2.241936 -1.870690 0
M  V30 80 H -0.674564 -3.779571 -1.432443 0
M  V30 81 H -0.391904 -3.397372 -3.150292 0
M  V30 END ATOM
M  V30 BEGIN BOND
M  V30 1 1 1 2
M  V30 2 1 2 3
M  V30 3 1 3 4
M  V30 4 1 4 5
M  V30 5 1 5 6
M  V30 6 2 6 7
M  V30 7 1 6 8
M  V30 8 2 8 9
M  V30 9 1 9 10
M  V30 10 2 10 11
M  V30 11 1 11 12
M  V30 12 1 12 13
M  V30 13 2 13 14
M  V30 14 1 13 15
M  V30 15 1 15 16
M  V30 16 2 16 17
M  V30 17 1 17 18
M  V30 18 2 18 19
M  V30 19 1 19 20
M  V30 20 1 20 21
M  V30 21 1 20 22
M  V30 22 2 22 23
M  V30 23 1 23 24
M  V30 24 2 24 25
M  V30 25 1 25 26
M  V30 26 1 26 27
M  V30 27 1 27 28
M  V30 28 2 28 29
M  V30 29 1 29 30
M  V30 30 2 30 31
M  V30 31 1 31 32
M  V30 32 1 32 33
M  V30 33 1 33 34
M  V30 34 2 33 35
M  V30 35 2 33 36
M  V30 36 1 31 37
M  V30 37 2 37 38
M  V30 38 2 26 39
M  V30 39 1 19 40
M  V30 40 2 40 41
M  V30 41 1 11 42
M  V30 42 2 42 43
M  V30 43 1 5 44
M  V30 44 1 44 45
M  V30 45 1 45 2
M  V30 46 1 43 8
M  V30 47 1 41 16
M  V30 48 1 39 22
M  V30 49 1 38 28
M  V30 50 1 1 46
M  V30 51 1 1 47
M  V30 52 1 1 48
M  V30 53 1 3 49
M  V30 54 1 3 50
M  V30 55 1 4 51
M  V30 56 1 4 52
M  V30 57 1 9 53
M  V30 58 1 10 54
M  V30 59 1 12 55
M  V30 60 1 15 56
M  V30 61 1 17 57
M  V30 62 1 18 58
M  V30 63 1 21 59
M  V30 64 1 21 60
M  V30 65 1 21 61
M  V30 66 1 23 62
M  V30 67 1 24 63
M  V30 68 1 27 64
M  V30 69 1 29 65
M  V30 70 1 30 66
M  V30 71 1 32 67
M  V30 72 1 32 68
M  V30 73 1 34 69
M  V30 74 1 34 70
M  V30 75 1 34 71
M  V30 76 1 37 72
M  V30 77 1 38 73
M  V30 78 1 40 74
M  V30 79 1 41 75
M  V30 80 1 42 76
M  V30 81 1 43 77
M  V30 82 1 44 78
M  V30 83 1 44 79
M  V30 84 1 45 80
M  V30 85 1 45 81
M  V30 END BOND
M  V30 END CTAB
M  END
>  <Dataset>  (306) 
ChEMBL_Kinases

>  <Ligand_Instance>  (306) 
nan

>  <PDB_ID>  (306) 
nan

>  <Standardized_SMILES>  (306) 
CN1CCN(C(=O)c2ccc(NC(=O)Nc3ccc(N(C)c4ccnc(Nc5ccc(CS(C)(=O)=O)cc5)n4)cc3)cc2)CC1

>  <Name>  (306) 
GW830263A

>  <Pocket>  (306) 
nan

>  <ATP_Site>  (306) 
nan

>  <Peripheral>  (306) 
nan

>  <Num_H_Atoms_ProtBoundConf>  (306) 
nan

>  <Num_Resolved_Atoms>  (306) 
nan

>  <Num_Not_Resolved_Atoms>  (306) 
nan

$$$$
CHEMBL190942
     RDKit          3D

  0  0  0  0  0  0  0  0  0  0999 V3000
M  V30 BEGIN CTAB
M  V30 COUNTS 55 59 0 0 0
M  V30 BEGIN ATOM
M  V30 1 O -1.054215 -4.638428 1.735817 0
M  V30 2 C -1.246079 -4.963122 0.409426 0
M  V30 3 C -0.087994 -4.878381 -0.553902 0
M  V30 4 N 0.466560 -3.560570 -0.649623 0
M  V30 5 C 1.115675 -3.206399 0.583029 0
M  V30 6 C 2.406502 -2.522604 0.324448 0
M  V30 7 C 2.236175 -1.371855 -0.630811 0
M  V30 8 C 1.419717 -0.266509 -0.124546 0
M  V30 9 C 1.954543 0.967561 0.267767 0
M  V30 10 C 0.915388 1.797826 0.688674 0
M  V30 11 C 1.137055 3.161368 1.165173 0
M  V30 12 C 0.736474 4.380514 0.662982 0
M  V30 13 C 1.106080 5.517317 1.347480 0
M  V30 14 N 1.839375 5.473562 2.480432 0
M  V30 15 C 2.240189 4.315694 2.988929 0
M  V30 16 C 1.896829 3.134346 2.340835 0
M  V30 17 C -0.246670 1.078941 0.555569 0
M  V30 18 C -1.585627 1.556034 0.878034 0
M  V30 19 C -2.313004 2.550955 0.261538 0
M  V30 20 C -3.572248 2.900287 0.681481 0
M  V30 21 C -4.163881 2.260122 1.749625 0
M  V30 22 F -5.407180 2.693772 2.069489 0
M  V30 23 C -3.463791 1.258425 2.390479 0
M  V30 24 C -2.195309 0.912034 1.961521 0
M  V30 25 N 0.100949 -0.128687 0.073841 0
M  V30 26 C 1.764873 -1.932774 -1.938921 0
M  V30 27 C 1.313419 -3.370567 -1.778920 0
M  V30 28 C -2.166426 -6.142665 0.182000 0
M  V30 29 C -2.627829 -4.777392 -0.215559 0
M  V30 30 H -0.588492 -5.329986 2.262876 0
M  V30 31 H -0.373366 -5.326214 -1.515654 0
M  V30 32 H 0.724666 -5.543744 -0.136413 0
M  V30 33 H 1.366007 -4.148596 1.157159 0
M  V30 34 H 0.392776 -2.590155 1.170290 0
M  V30 35 H 2.848372 -2.072894 1.259713 0
M  V30 36 H 3.110657 -3.254767 -0.113670 0
M  V30 37 H 3.276767 -0.949898 -0.784610 0
M  V30 38 H 3.011575 1.280009 0.263659 0
M  V30 39 H 0.170888 4.273315 -0.228557 0
M  V30 40 H 0.754219 6.442422 0.891512 0
M  V30 41 H 2.830455 4.338173 3.905790 0
M  V30 42 H 2.286609 2.249335 2.859073 0
M  V30 43 H -1.827608 3.018651 -0.557466 0
M  V30 44 H -4.050067 3.700743 0.118532 0
M  V30 45 H -3.958521 0.778025 3.224329 0
M  V30 46 H -1.735227 0.115091 2.533223 0
M  V30 47 H -0.606393 -0.867778 -0.121058 0
M  V30 48 H 0.967211 -1.318383 -2.396180 0
M  V30 49 H 2.615488 -1.943059 -2.647202 0
M  V30 50 H 2.176338 -4.047998 -1.744135 0
M  V30 51 H 0.733812 -3.618973 -2.690346 0
M  V30 52 H -1.909039 -6.905458 -0.578581 0
M  V30 53 H -2.723041 -6.570368 1.044746 0
M  V30 54 H -3.413209 -4.251731 0.338248 0
M  V30 55 H -2.655349 -4.595503 -1.314317 0
M  V30 END ATOM
M  V30 BEGIN BOND
M  V30 1 1 1 2
M  V30 2 1 2 3
M  V30 3 1 3 4
M  V30 4 1 4 5
M  V30 5 1 5 6
M  V30 6 1 6 7
M  V30 7 1 7 8
M  V30 8 2 8 9
M  V30 9 1 9 10
M  V30 10 1 10 11
M  V30 11 2 11 12
M  V30 12 1 12 13
M  V30 13 2 13 14
M  V30 14 1 14 15
M  V30 15 2 15 16
M  V30 16 2 10 17
M  V30 17 1 17 18
M  V30 18 2 18 19
M  V30 19 1 19 20
M  V30 20 2 20 21
M  V30 21 1 21 22
M  V30 22 1 21 23
M  V30 23 2 23 24
M  V30 24 1 17 25
M  V30 25 1 7 26
M  V30 26 1 26 27
M  V30 27 1 2 28
M  V30 28 1 28 29
M  V30 29 1 29 2
M  V30 30 1 27 4
M  V30 31 1 25 8
M  V30 32 1 16 11
M  V30 33 1 24 18
M  V30 34 1 1 30
M  V30 35 1 3 31
M  V30 36 1 3 32
M  V30 37 1 5 33
M  V30 38 1 5 34
M  V30 39 1 6 35
M  V30 40 1 6 36
M  V30 41 1 7 37
M  V30 42 1 9 38
M  V30 43 1 12 39
M  V30 44 1 13 40
M  V30 45 1 15 41
M  V30 46 1 16 42
M  V30 47 1 19 43
M  V30 48 1 20 44
M  V30 49 1 23 45
M  V30 50 1 24 46
M  V30 51 1 25 47
M  V30 52 1 26 48
M  V30 53 1 26 49
M  V30 54 1 27 50
M  V30 55 1 27 51
M  V30 56 1 28 52
M  V30 57 1 28 53
M  V30 58 1 29 54
M  V30 59 1 29 55
M  V30 END BOND
M  V30 END CTAB
M  END
>  <Dataset>  (307) 
ChEMBL_Kinases

>  <Ligand_Instance>  (307) 
nan

>  <PDB_ID>  (307) 
nan

>  <Standardized_SMILES>  (307) 
OC1(CN2CCC(c3cc(-c4ccncc4)c(-c4ccc(F)cc4)[nH]3)CC2)CC1

>  <Name>  (307) 
nan

>  <Pocket>  (307) 
nan

>  <ATP_Site>  (307) 
nan

>  <Peripheral>  (307) 
nan

>  <Num_H_Atoms_ProtBoundConf>  (307) 
nan

>  <Num_Resolved_Atoms>  (307) 
nan

>  <Num_Not_Resolved_Atoms>  (307) 
nan

$$$$
CHEMBL1909657
     RDKit          3D

  0  0  0  0  0  0  0  0  0  0999 V3000
M  V30 BEGIN CTAB
M  V30 COUNTS 46 50 0 0 0
M  V30 BEGIN ATOM
M  V30 1 C -4.292709 -3.983864 5.080073 0
M  V30 2 C -4.228644 -3.561938 3.656357 0
M  V30 3 N -5.201470 -3.878062 2.752813 0
M  V30 4 N -4.844186 -3.359014 1.594620 0
M  V30 5 C -3.669846 -2.711264 1.701169 0
M  V30 6 C -2.995228 -2.025516 0.602578 0
M  V30 7 C -3.552078 -2.001891 -0.671052 0
M  V30 8 C -2.944738 -1.365077 -1.732016 0
M  V30 9 C -1.738872 -0.723304 -1.536252 0
M  V30 10 C -1.161100 -0.070908 -2.717924 0
M  V30 11 C -1.154004 -0.724086 -0.287404 0
M  V30 12 C 0.120567 -0.039412 -0.103818 0
M  V30 13 C 0.506668 1.205363 -0.554615 0
M  V30 14 C 1.771922 1.674943 -0.269878 0
M  V30 15 C 2.685681 0.942032 0.459073 0
M  V30 16 C 2.312896 -0.317811 0.922636 0
M  V30 17 C 1.045385 -0.786177 0.636390 0
M  V30 18 N 3.430252 -0.851237 1.636921 0
M  V30 19 C 4.487599 0.131601 1.586662 0
M  V30 20 O 5.579394 -0.124854 2.155376 0
M  V30 21 C 4.054452 1.311852 0.834542 0
M  V30 22 C 4.337210 2.645638 1.391471 0
M  V30 23 C 5.616566 2.657197 0.540700 0
M  V30 24 C 4.973466 1.579103 -0.335510 0
M  V30 25 C -1.807274 -1.381549 0.752068 0
M  V30 26 N -3.309359 -2.852038 2.989712 0
M  V30 27 H -4.719536 -3.201248 5.739089 0
M  V30 28 H -3.284288 -4.262475 5.465241 0
M  V30 29 H -4.905821 -4.902375 5.176368 0
M  V30 30 H -4.494856 -2.501776 -0.831033 0
M  V30 31 H -3.444038 -1.393037 -2.692264 0
M  V30 32 H -1.423202 -0.652274 -3.650756 0
M  V30 33 H -1.649593 0.913148 -2.884998 0
M  V30 34 H -0.053121 -0.036435 -2.738949 0
M  V30 35 H -0.247669 1.715084 -1.109827 0
M  V30 36 H 1.977116 2.658667 -0.666734 0
M  V30 37 H 0.830713 -1.781626 1.035122 0
M  V30 38 H 3.431594 -1.793291 2.097332 0
M  V30 39 H 3.665766 3.442915 1.017043 0
M  V30 40 H 4.645383 2.740865 2.441901 0
M  V30 41 H 5.801759 3.576364 -0.017990 0
M  V30 42 H 6.495654 2.204147 1.044658 0
M  V30 43 H 4.416264 1.954043 -1.196846 0
M  V30 44 H 5.619709 0.739836 -0.585588 0
M  V30 45 H -1.348242 -1.387249 1.751031 0
M  V30 46 H -2.447846 -2.469479 3.410407 0
M  V30 END ATOM
M  V30 BEGIN BOND
M  V30 1 1 1 2
M  V30 2 2 2 3
M  V30 3 1 3 4
M  V30 4 2 4 5
M  V30 5 1 5 6
M  V30 6 2 6 7
M  V30 7 1 7 8
M  V30 8 2 8 9
M  V30 9 1 9 10
M  V30 10 1 9 11
M  V30 11 1 11 12
M  V30 12 2 12 13
M  V30 13 1 13 14
M  V30 14 2 14 15
M  V30 15 1 15 16
M  V30 16 2 16 17
M  V30 17 1 16 18
M  V30 18 1 18 19
M  V30 19 2 19 20
M  V30 20 1 19 21
M  V30 21 1 21 22
M  V30 22 1 22 23
M  V30 23 1 23 24
M  V30 24 2 11 25
M  V30 25 1 5 26
M  V30 26 1 26 2
M  V30 27 1 25 6
M  V30 28 1 17 12
M  V30 29 1 24 21
M  V30 30 1 21 15
M  V30 31 1 1 27
M  V30 32 1 1 28
M  V30 33 1 1 29
M  V30 34 1 7 30
M  V30 35 1 8 31
M  V30 36 1 10 32
M  V30 37 1 10 33
M  V30 38 1 10 34
M  V30 39 1 13 35
M  V30 40 1 14 36
M  V30 41 1 17 37
M  V30 42 1 18 38
M  V30 43 1 22 39
M  V30 44 1 22 40
M  V30 45 1 23 41
M  V30 46 1 23 42
M  V30 47 1 24 43
M  V30 48 1 24 44
M  V30 49 1 25 45
M  V30 50 1 26 46
M  V30 END BOND
M  V30 END CTAB
M  END
>  <Dataset>  (308) 
ChEMBL_Kinases

>  <Ligand_Instance>  (308) 
nan

>  <PDB_ID>  (308) 
nan

>  <Standardized_SMILES>  (308) 
Cc1nnc(-c2ccc(C)c(-c3ccc4c(c3)NC(=O)C43CCC3)c2)[nH]1

>  <Name>  (308) 
nan

>  <Pocket>  (308) 
nan

>  <ATP_Site>  (308) 
nan

>  <Peripheral>  (308) 
nan

>  <Num_H_Atoms_ProtBoundConf>  (308) 
nan

>  <Num_Resolved_Atoms>  (308) 
nan

>  <Num_Not_Resolved_Atoms>  (308) 
nan

$$$$
CHEMBL190974
     RDKit          3D

  0  0  0  0  0  0  0  0  0  0999 V3000
M  V30 BEGIN CTAB
M  V30 COUNTS 50 53 0 0 0
M  V30 BEGIN ATOM
M  V30 1 C 0.395634 -3.907749 -3.159907 0
M  V30 2 N 1.173947 -3.434383 -2.053761 0
M  V30 3 C 1.971504 -2.284551 -2.333020 0
M  V30 4 C 3.060296 -2.176838 -1.291942 0
M  V30 5 C 2.591907 -2.557585 0.094173 0
M  V30 6 C 1.685135 -1.488383 0.646000 0
M  V30 7 C 2.110500 -0.670671 1.693547 0
M  V30 8 C 1.083806 0.225476 2.015601 0
M  V30 9 C 0.966887 1.289341 3.006367 0
M  V30 10 C 0.073134 1.366008 4.057538 0
M  V30 11 C 0.093905 2.449063 4.912307 0
M  V30 12 N 0.975385 3.452073 4.749623 0
M  V30 13 C 1.867788 3.423554 3.738861 0
M  V30 14 C 1.862066 2.357107 2.880907 0
M  V30 15 C 0.066759 -0.091345 1.138317 0
M  V30 16 C -1.271211 0.514588 1.002215 0
M  V30 17 C -1.570875 1.810692 0.660123 0
M  V30 18 C -2.891231 2.203015 0.581776 0
M  V30 19 C -3.907232 1.296461 0.846134 0
M  V30 20 C -5.336224 1.714266 0.763046 0
M  V30 21 F -5.372406 3.095859 0.665037 0
M  V30 22 F -6.062107 1.304880 1.878447 0
M  V30 23 F -5.941006 1.105616 -0.329911 0
M  V30 24 C -3.615400 -0.021354 1.194220 0
M  V30 25 C -2.288446 -0.402844 1.269574 0
M  V30 26 N 0.439565 -1.105793 0.336978 0
M  V30 27 C 1.931643 -3.892518 0.141192 0
M  V30 28 C 1.823775 -4.450330 -1.284207 0
M  V30 29 H -0.030776 -3.007754 -3.657236 0
M  V30 30 H -0.477153 -4.491711 -2.802245 0
M  V30 31 H 0.967058 -4.467809 -3.925143 0
M  V30 32 H 1.311124 -1.383073 -2.332662 0
M  V30 33 H 2.409162 -2.373303 -3.361434 0
M  V30 34 H 3.312164 -1.077996 -1.227684 0
M  V30 35 H 3.957672 -2.760944 -1.558604 0
M  V30 36 H 3.499521 -2.573328 0.740362 0
M  V30 37 H 3.044876 -0.605383 2.274950 0
M  V30 38 H -0.606863 0.519217 4.123074 0
M  V30 39 H -0.644269 2.437206 5.719447 0
M  V30 40 H 2.552191 4.252189 3.653043 0
M  V30 41 H 2.599139 2.356582 2.064736 0
M  V30 42 H -0.710878 2.439099 0.473350 0
M  V30 43 H -3.096604 3.237401 0.307464 0
M  V30 44 H -4.416603 -0.742854 1.404951 0
M  V30 45 H -2.124033 -1.453987 1.548580 0
M  V30 46 H -0.110245 -1.564427 -0.420349 0
M  V30 47 H 0.933102 -3.797310 0.582934 0
M  V30 48 H 2.580618 -4.623587 0.679137 0
M  V30 49 H 1.203321 -5.363234 -1.276911 0
M  V30 50 H 2.831499 -4.720089 -1.659731 0
M  V30 END ATOM
M  V30 BEGIN BOND
M  V30 1 1 1 2
M  V30 2 1 2 3
M  V30 3 1 3 4
M  V30 4 1 4 5
M  V30 5 1 5 6
M  V30 6 2 6 7
M  V30 7 1 7 8
M  V30 8 1 8 9
M  V30 9 2 9 10
M  V30 10 1 10 11
M  V30 11 2 11 12
M  V30 12 1 12 13
M  V30 13 2 13 14
M  V30 14 2 8 15
M  V30 15 1 15 16
M  V30 16 2 16 17
M  V30 17 1 17 18
M  V30 18 2 18 19
M  V30 19 1 19 20
M  V30 20 1 20 21
M  V30 21 1 20 22
M  V30 22 1 20 23
M  V30 23 1 19 24
M  V30 24 2 24 25
M  V30 25 1 15 26
M  V30 26 1 5 27
M  V30 27 1 27 28
M  V30 28 1 28 2
M  V30 29 1 26 6
M  V30 30 1 14 9
M  V30 31 1 25 16
M  V30 32 1 1 29
M  V30 33 1 1 30
M  V30 34 1 1 31
M  V30 35 1 3 32
M  V30 36 1 3 33
M  V30 37 1 4 34
M  V30 38 1 4 35
M  V30 39 1 5 36
M  V30 40 1 7 37
M  V30 41 1 10 38
M  V30 42 1 11 39
M  V30 43 1 13 40
M  V30 44 1 14 41
M  V30 45 1 17 42
M  V30 46 1 18 43
M  V30 47 1 24 44
M  V30 48 1 25 45
M  V30 49 1 26 46
M  V30 50 1 27 47
M  V30 51 1 27 48
M  V30 52 1 28 49
M  V30 53 1 28 50
M  V30 END BOND
M  V30 END CTAB
M  END
>  <Dataset>  (309) 
ChEMBL_Kinases

>  <Ligand_Instance>  (309) 
nan

>  <PDB_ID>  (309) 
nan

>  <Standardized_SMILES>  (309) 
CN1CCC(c2cc(-c3ccncc3)c(-c3ccc(C(F)(F)F)cc3)[nH]2)CC1

>  <Name>  (309) 
nan

>  <Pocket>  (309) 
nan

>  <ATP_Site>  (309) 
nan

>  <Peripheral>  (309) 
nan

>  <Num_H_Atoms_ProtBoundConf>  (309) 
nan

>  <Num_Resolved_Atoms>  (309) 
nan

>  <Num_Not_Resolved_Atoms>  (309) 
nan

$$$$
CHEMBL1910190
     RDKit          3D

  0  0  0  0  0  0  0  0  0  0999 V3000
M  V30 BEGIN CTAB
M  V30 COUNTS 37 40 0 0 0
M  V30 BEGIN ATOM
M  V30 1 N 3.058352 -7.778029 2.613305 0
M  V30 2 C 2.981580 -6.659542 2.421309 0
M  V30 3 C 2.904310 -5.253441 2.164239 0
M  V30 4 C 1.648602 -4.659374 2.276208 0
M  V30 5 C 1.604663 -3.308499 2.023791 0
M  V30 6 C 2.705199 -2.535767 1.676451 0
M  V30 7 C 2.490895 -1.112032 1.440271 0
M  V30 8 C 3.459673 -0.166707 1.706897 0
M  V30 9 N 3.244841 1.146864 1.481819 0
M  V30 10 C 2.047811 1.551166 0.981093 0
M  V30 11 C 1.037409 0.649514 0.693863 0
M  V30 12 C -0.242931 1.100694 0.156253 0
M  V30 13 C -1.295188 0.264662 -0.155373 0
M  V30 14 C -2.307042 1.106957 -0.633107 0
M  V30 15 C -3.568650 0.766914 -1.078428 0
M  V30 16 C -4.404128 1.802187 -1.509705 0
M  V30 17 O -5.700478 1.586824 -1.981803 0
M  V30 18 C -3.928285 3.103758 -1.468699 0
M  V30 19 C -2.643903 3.397604 -1.009675 0
M  V30 20 C -1.804327 2.390284 -0.579830 0
M  V30 21 N -0.547914 2.385160 -0.099231 0
M  V30 22 C 1.282571 -0.689603 0.933281 0
M  V30 23 C 3.907217 -3.159914 1.580039 0
M  V30 24 C 4.019184 -4.515357 1.821004 0
M  V30 25 H 0.740913 -5.201972 2.544260 0
M  V30 26 H 0.635775 -2.842275 2.108803 0
M  V30 27 H 4.416608 -0.524177 2.110783 0
M  V30 28 H 1.929320 2.612647 0.820248 0
M  V30 29 H -1.346679 -0.825470 -0.057386 0
M  V30 30 H -3.974418 -0.211685 -1.127601 0
M  V30 31 H -6.279404 0.935607 -1.445702 0
M  V30 32 H -4.514912 3.956134 -1.785204 0
M  V30 33 H -2.267425 4.422243 -0.976578 0
M  V30 34 H 0.085827 3.200402 0.054760 0
M  V30 35 H 0.476271 -1.375563 0.700317 0
M  V30 36 H 4.753475 -2.546687 1.309176 0
M  V30 37 H 4.992833 -4.969952 1.733126 0
M  V30 END ATOM
M  V30 BEGIN BOND
M  V30 1 3 1 2
M  V30 2 1 2 3
M  V30 3 2 3 4
M  V30 4 1 4 5
M  V30 5 2 5 6
M  V30 6 1 6 7
M  V30 7 2 7 8
M  V30 8 1 8 9
M  V30 9 2 9 10
M  V30 10 1 10 11
M  V30 11 1 11 12
M  V30 12 2 12 13
M  V30 13 1 13 14
M  V30 14 2 14 15
M  V30 15 1 15 16
M  V30 16 1 16 17
M  V30 17 2 16 18
M  V30 18 1 18 19
M  V30 19 2 19 20
M  V30 20 1 20 21
M  V30 21 2 11 22
M  V30 22 1 6 23
M  V30 23 2 23 24
M  V30 24 1 24 3
M  V30 25 1 22 7
M  V30 26 1 21 12
M  V30 27 1 20 14
M  V30 28 1 4 25
M  V30 29 1 5 26
M  V30 30 1 8 27
M  V30 31 1 10 28
M  V30 32 1 13 29
M  V30 33 1 15 30
M  V30 34 1 17 31
M  V30 35 1 18 32
M  V30 36 1 19 33
M  V30 37 1 21 34
M  V30 38 1 22 35
M  V30 39 1 23 36
M  V30 40 1 24 37
M  V30 END BOND
M  V30 END CTAB
M  END
>  <Dataset>  (310) 
ChEMBL_Kinases

>  <Ligand_Instance>  (310) 
nan

>  <PDB_ID>  (310) 
nan

>  <Standardized_SMILES>  (310) 
N#Cc1ccc(-c2cncc(-c3cc4cc(O)ccc4[nH]3)c2)cc1

>  <Name>  (310) 
nan

>  <Pocket>  (310) 
nan

>  <ATP_Site>  (310) 
nan

>  <Peripheral>  (310) 
nan

>  <Num_H_Atoms_ProtBoundConf>  (310) 
nan

>  <Num_Resolved_Atoms>  (310) 
nan

>  <Num_Not_Resolved_Atoms>  (310) 
nan

$$$$
CHEMBL190859
     RDKit          3D

  0  0  0  0  0  0  0  0  0  0999 V3000
M  V30 BEGIN CTAB
M  V30 COUNTS 45 47 0 0 0
M  V30 BEGIN ATOM
M  V30 1 C 2.049146 -3.439878 -1.167839 0
M  V30 2 N 1.825547 -2.002126 -1.055383 0
M  V30 3 C 2.438067 -1.616083 0.221225 0
M  V30 4 C 2.479394 -1.316220 -2.172732 0
M  V30 5 C 2.163681 0.163987 -2.111543 0
M  V30 6 C 0.667480 0.280024 -2.231168 0
M  V30 7 N 0.261031 -0.191723 -3.530858 0
M  V30 8 C -1.127179 -0.331842 -3.916077 0
M  V30 9 N -1.626512 -0.420810 -5.144624 0
M  V30 10 C -2.963880 -0.572829 -5.283506 0
M  V30 11 C -3.864678 -0.643991 -4.205153 0
M  V30 12 C -3.303794 -0.551375 -2.956310 0
M  V30 13 C -4.068944 -0.632100 -1.683146 0
M  V30 14 C -5.389479 -1.209990 -1.688970 0
M  V30 15 N -6.449847 -1.691084 -1.706662 0
M  V30 16 C -3.595879 -0.181086 -0.508064 0
M  V30 17 N -2.365112 0.433440 -0.226916 0
M  V30 18 C -2.044374 0.497483 1.137927 0
M  V30 19 C -0.803107 0.956046 1.606537 0
M  V30 20 C -0.519435 0.872370 2.967499 0
M  V30 21 C -1.469178 0.341105 3.807020 0
M  V30 22 C -2.701556 -0.117741 3.375588 0
M  V30 23 C -2.932802 -0.010055 2.013852 0
M  V30 24 S -4.438653 -0.381596 1.067405 0
M  V30 25 N -1.972012 -0.401457 -2.906907 0
M  V30 26 H 1.094602 -3.988189 -0.922759 0
M  V30 27 H 2.375741 -3.755412 -2.172329 0
M  V30 28 H 2.806281 -3.816639 -0.440380 0
M  V30 29 H 2.778047 -0.566970 0.237552 0
M  V30 30 H 3.271587 -2.319827 0.445618 0
M  V30 31 H 1.615895 -1.692044 0.978444 0
M  V30 32 H 3.542948 -1.527399 -2.204131 0
M  V30 33 H 2.012839 -1.714435 -3.097079 0
M  V30 34 H 2.653152 0.603676 -3.033854 0
M  V30 35 H 2.552327 0.698321 -1.248127 0
M  V30 36 H 0.227201 -0.326043 -1.410101 0
M  V30 37 H 0.407636 1.357169 -2.045122 0
M  V30 38 H 0.892575 -0.477658 -4.311561 0
M  V30 39 H -3.368035 -0.642019 -6.308239 0
M  V30 40 H -4.918128 -0.762741 -4.308483 0
M  V30 41 H -1.822132 0.806558 -1.026394 0
M  V30 42 H 0.001397 1.386283 1.024547 0
M  V30 43 H 0.388267 1.183961 3.465870 0
M  V30 44 H -1.327274 0.237381 4.893114 0
M  V30 45 H -3.455430 -0.538522 4.011586 0
M  V30 END ATOM
M  V30 BEGIN BOND
M  V30 1 1 1 2
M  V30 2 1 2 3
M  V30 3 1 2 4
M  V30 4 1 4 5
M  V30 5 1 5 6
M  V30 6 1 6 7
M  V30 7 1 7 8
M  V30 8 2 8 9
M  V30 9 1 9 10
M  V30 10 2 10 11
M  V30 11 1 11 12
M  V30 12 1 12 13
M  V30 13 1 13 14
M  V30 14 3 14 15
M  V30 15 2 13 16
M  V30 16 1 16 17
M  V30 17 1 17 18
M  V30 18 2 18 19
M  V30 19 1 19 20
M  V30 20 2 20 21
M  V30 21 1 21 22
M  V30 22 2 22 23
M  V30 23 1 23 24
M  V30 24 2 12 25
M  V30 25 1 25 8
M  V30 26 1 24 16
M  V30 27 1 23 18
M  V30 28 1 1 26
M  V30 29 1 1 27
M  V30 30 1 1 28
M  V30 31 1 3 29
M  V30 32 1 3 30
M  V30 33 1 3 31
M  V30 34 1 4 32
M  V30 35 1 4 33
M  V30 36 1 5 34
M  V30 37 1 5 35
M  V30 38 1 6 36
M  V30 39 1 6 37
M  V30 40 1 7 38
M  V30 41 1 10 39
M  V30 42 1 11 40
M  V30 43 1 17 41
M  V30 44 1 19 42
M  V30 45 1 20 43
M  V30 46 1 21 44
M  V30 47 1 22 45
M  V30 END BOND
M  V30 END CTAB
M  END
>  <Dataset>  (311) 
ChEMBL_Kinases

>  <Ligand_Instance>  (311) 
nan

>  <PDB_ID>  (311) 
nan

>  <Standardized_SMILES>  (311) 
CN(C)CCCNc1nccc(/C(C#N)=C2\Nc3ccccc3S2)n1

>  <Name>  (311) 
nan

>  <Pocket>  (311) 
nan

>  <ATP_Site>  (311) 
nan

>  <Peripheral>  (311) 
nan

>  <Num_H_Atoms_ProtBoundConf>  (311) 
nan

>  <Num_Resolved_Atoms>  (311) 
nan

>  <Num_Not_Resolved_Atoms>  (311) 
nan

$$$$
CHEMBL1933146
     RDKit          3D

  0  0  0  0  0  0  0  0  0  0999 V3000
M  V30 BEGIN CTAB
M  V30 COUNTS 47 51 0 0 0
M  V30 BEGIN ATOM
M  V30 1 O 1.613079 1.715515 2.388581 0
M  V30 2 C 1.139773 0.624112 1.964180 0
M  V30 3 N 1.639120 0.006972 0.784089 0
M  V30 4 C 2.688990 0.529446 -0.021892 0
M  V30 5 C 2.557038 1.397656 -1.104886 0
M  V30 6 C 3.820612 1.672785 -1.626385 0
M  V30 7 C 4.137600 2.535391 -2.763525 0
M  V30 8 C 3.082541 3.166387 -3.419621 0
M  V30 9 C 3.366887 3.984865 -4.496256 0
M  V30 10 C 4.697734 4.125227 -4.855881 0
M  V30 11 C 5.757429 3.502544 -4.210959 0
M  V30 12 C 5.443279 2.680589 -3.125847 0
M  V30 13 N 4.647861 0.961008 -0.836755 0
M  V30 14 O 3.991489 0.312516 0.075287 0
M  V30 15 C 0.058030 0.043556 2.755755 0
M  V30 16 C -0.367780 0.691401 3.874176 0
M  V30 17 C -1.396563 0.203901 4.686465 0
M  V30 18 C -2.026006 -0.983025 4.365289 0
M  V30 19 C -3.045584 -1.748038 4.910749 0
M  V30 20 C -3.206406 -2.853302 4.090274 0
M  V30 21 N -2.307541 -2.747660 3.085716 0
M  V30 22 C -1.587544 -1.619979 3.241389 0
M  V30 23 C -0.565045 -1.143397 2.426752 0
M  V30 24 C -2.221975 -3.772426 2.037346 0
M  V30 25 C -3.487277 -4.039727 1.340891 0
M  V30 26 C -4.546247 -4.833765 1.951549 0
M  V30 27 N -4.659149 -4.814144 3.395205 0
M  V30 28 C -4.226632 -3.873302 4.401711 0
M  V30 29 O -4.723886 -3.926668 5.547278 0
M  V30 30 H 1.247839 -0.880480 0.446883 0
M  V30 31 H 1.615573 1.777478 -1.457953 0
M  V30 32 H 2.067332 3.005806 -3.077459 0
M  V30 33 H 2.576657 4.476619 -5.011942 0
M  V30 34 H 4.860907 4.774341 -5.701210 0
M  V30 35 H 6.773808 3.650907 -4.537813 0
M  V30 36 H 6.238844 2.169602 -2.586533 0
M  V30 37 H 0.062973 1.620323 4.201374 0
M  V30 38 H -1.724143 0.727832 5.570387 0
M  V30 39 H -3.589983 -1.514421 5.793163 0
M  V30 40 H -0.262361 -1.681884 1.559938 0
M  V30 41 H -1.461016 -3.470033 1.286243 0
M  V30 42 H -1.854253 -4.737055 2.463600 0
M  V30 43 H -3.908962 -3.040136 1.030467 0
M  V30 44 H -3.229713 -4.512437 0.353327 0
M  V30 45 H -5.522889 -4.552170 1.467545 0
M  V30 46 H -4.421666 -5.910762 1.660522 0
M  V30 47 H -5.152689 -5.646242 3.800377 0
M  V30 END ATOM
M  V30 BEGIN BOND
M  V30 1 2 1 2
M  V30 2 1 2 3
M  V30 3 1 3 4
M  V30 4 2 4 5
M  V30 5 1 5 6
M  V30 6 1 6 7
M  V30 7 2 7 8
M  V30 8 1 8 9
M  V30 9 2 9 10
M  V30 10 1 10 11
M  V30 11 2 11 12
M  V30 12 2 6 13
M  V30 13 1 13 14
M  V30 14 1 2 15
M  V30 15 2 15 16
M  V30 16 1 16 17
M  V30 17 2 17 18
M  V30 18 1 18 19
M  V30 19 2 19 20
M  V30 20 1 20 21
M  V30 21 1 21 22
M  V30 22 2 22 23
M  V30 23 1 21 24
M  V30 24 1 24 25
M  V30 25 1 25 26
M  V30 26 1 26 27
M  V30 27 1 27 28
M  V30 28 2 28 29
M  V30 29 1 14 4
M  V30 30 1 23 15
M  V30 31 1 12 7
M  V30 32 1 22 18
M  V30 33 1 28 20
M  V30 34 1 3 30
M  V30 35 1 5 31
M  V30 36 1 8 32
M  V30 37 1 9 33
M  V30 38 1 10 34
M  V30 39 1 11 35
M  V30 40 1 12 36
M  V30 41 1 16 37
M  V30 42 1 17 38
M  V30 43 1 19 39
M  V30 44 1 23 40
M  V30 45 1 24 41
M  V30 46 1 24 42
M  V30 47 1 25 43
M  V30 48 1 25 44
M  V30 49 1 26 45
M  V30 50 1 26 46
M  V30 51 1 27 47
M  V30 END BOND
M  V30 END CTAB
M  END
>  <Dataset>  (312) 
ChEMBL_Kinases

>  <Ligand_Instance>  (312) 
nan

>  <PDB_ID>  (312) 
nan

>  <Standardized_SMILES>  (312) 
O=C(Nc1cc(-c2ccccc2)no1)c1ccc2cc3n(c2c1)CCCNC3=O

>  <Name>  (312) 
nan

>  <Pocket>  (312) 
nan

>  <ATP_Site>  (312) 
nan

>  <Peripheral>  (312) 
nan

>  <Num_H_Atoms_ProtBoundConf>  (312) 
nan

>  <Num_Resolved_Atoms>  (312) 
nan

>  <Num_Not_Resolved_Atoms>  (312) 
nan

$$$$
CHEMBL1933145
     RDKit          3D

  0  0  0  0  0  0  0  0  0  0999 V3000
M  V30 BEGIN CTAB
M  V30 COUNTS 46 49 0 0 0
M  V30 BEGIN ATOM
M  V30 1 C 1.915855 -8.071092 1.517636 0
M  V30 2 C 0.911273 -7.074285 1.005388 0
M  V30 3 C 0.497217 -7.356604 -0.417208 0
M  V30 4 C 1.448224 -5.691578 1.098915 0
M  V30 5 C 0.980800 -4.594562 1.794086 0
M  V30 6 C 1.875775 -3.566788 1.519447 0
M  V30 7 N 1.801960 -2.224952 2.023667 0
M  V30 8 C 1.077193 -1.285577 1.250026 0
M  V30 9 O 0.583148 -1.791880 0.186630 0
M  V30 10 C 0.902269 0.126901 1.617532 0
M  V30 11 C 1.435786 0.684782 2.784490 0
M  V30 12 C 1.221971 2.023233 3.048579 0
M  V30 13 C 0.487773 2.761590 2.148255 0
M  V30 14 C 0.149880 4.097696 2.200469 0
M  V30 15 C -0.590994 4.366607 1.068613 0
M  V30 16 N -0.722145 3.237785 0.317362 0
M  V30 17 C -0.055605 2.251632 0.987129 0
M  V30 18 C 0.171180 0.897903 0.737929 0
M  V30 19 C -1.365445 2.893653 -0.937169 0
M  V30 20 C -1.537874 4.171208 -1.742311 0
M  V30 21 C -2.680305 5.003256 -1.234025 0
M  V30 22 N -2.224159 5.970871 -0.254451 0
M  V30 23 C -1.174702 5.665429 0.685517 0
M  V30 24 O -0.608336 6.610973 1.330352 0
M  V30 25 O 2.805741 -4.053866 0.708948 0
M  V30 26 N 2.564432 -5.302935 0.454696 0
M  V30 27 H 2.511460 -8.418681 0.636435 0
M  V30 28 H 2.527694 -7.573685 2.289222 0
M  V30 29 H 1.370120 -8.893504 2.003759 0
M  V30 30 H -0.025821 -7.164441 1.630058 0
M  V30 31 H 0.933417 -8.364975 -0.673158 0
M  V30 32 H -0.603223 -7.354564 -0.549982 0
M  V30 33 H 0.978309 -6.603517 -1.062227 0
M  V30 34 H 0.109910 -4.581653 2.403447 0
M  V30 35 H 2.244280 -1.907429 2.911893 0
M  V30 36 H 2.000417 0.044792 3.443391 0
M  V30 37 H 1.635323 2.455164 3.952070 0
M  V30 38 H 0.347891 4.876401 2.901343 0
M  V30 39 H -0.240128 0.469424 -0.160732 0
M  V30 40 H -0.768068 2.149197 -1.482824 0
M  V30 41 H -2.412928 2.522120 -0.762906 0
M  V30 42 H -1.805983 3.846972 -2.775234 0
M  V30 43 H -0.618982 4.780990 -1.692148 0
M  V30 44 H -3.504000 4.406746 -0.818578 0
M  V30 45 H -3.092586 5.571003 -2.095352 0
M  V30 46 H -2.569717 6.943767 -0.111076 0
M  V30 END ATOM
M  V30 BEGIN BOND
M  V30 1 1 1 2
M  V30 2 1 2 3
M  V30 3 1 2 4
M  V30 4 1 4 5
M  V30 5 2 5 6
M  V30 6 1 6 7
M  V30 7 1 7 8
M  V30 8 2 8 9
M  V30 9 1 8 10
M  V30 10 2 10 11
M  V30 11 1 11 12
M  V30 12 2 12 13
M  V30 13 1 13 14
M  V30 14 2 14 15
M  V30 15 1 15 16
M  V30 16 1 16 17
M  V30 17 2 17 18
M  V30 18 1 16 19
M  V30 19 1 19 20
M  V30 20 1 20 21
M  V30 21 1 21 22
M  V30 22 1 22 23
M  V30 23 2 23 24
M  V30 24 1 6 25
M  V30 25 1 25 26
M  V30 26 2 26 4
M  V30 27 1 18 10
M  V30 28 1 17 13
M  V30 29 1 23 15
M  V30 30 1 1 27
M  V30 31 1 1 28
M  V30 32 1 1 29
M  V30 33 1 2 30
M  V30 34 1 3 31
M  V30 35 1 3 32
M  V30 36 1 3 33
M  V30 37 1 5 34
M  V30 38 1 7 35
M  V30 39 1 11 36
M  V30 40 1 12 37
M  V30 41 1 14 38
M  V30 42 1 18 39
M  V30 43 1 19 40
M  V30 44 1 19 41
M  V30 45 1 20 42
M  V30 46 1 20 43
M  V30 47 1 21 44
M  V30 48 1 21 45
M  V30 49 1 22 46
M  V30 END BOND
M  V30 END CTAB
M  END
>  <Dataset>  (313) 
ChEMBL_Kinases

>  <Ligand_Instance>  (313) 
nan

>  <PDB_ID>  (313) 
nan

>  <Standardized_SMILES>  (313) 
CC(C)c1cc(NC(=O)c2ccc3cc4n(c3c2)CCCNC4=O)on1

>  <Name>  (313) 
nan

>  <Pocket>  (313) 
nan

>  <ATP_Site>  (313) 
nan

>  <Peripheral>  (313) 
nan

>  <Num_H_Atoms_ProtBoundConf>  (313) 
nan

>  <Num_Resolved_Atoms>  (313) 
nan

>  <Num_Not_Resolved_Atoms>  (313) 
nan

$$$$
CHEMBL1933143
     RDKit          3D

  0  0  0  0  0  0  0  0  0  0999 V3000
M  V30 BEGIN CTAB
M  V30 COUNTS 40 43 0 0 0
M  V30 BEGIN ATOM
M  V30 1 C 2.426255 -7.677991 0.750673 0
M  V30 2 C 2.715406 -6.231157 0.502755 0
M  V30 3 C 1.710855 -5.266046 0.477232 0
M  V30 4 C 2.374500 -4.061269 0.221432 0
M  V30 5 N 1.739702 -2.788771 0.107236 0
M  V30 6 C 1.231493 -2.195644 -1.075069 0
M  V30 7 O 1.290204 -2.753907 -2.193817 0
M  V30 8 C 0.602216 -0.879573 -1.048105 0
M  V30 9 C 0.122113 -0.343698 -2.228283 0
M  V30 10 C -0.497305 0.908655 -2.312175 0
M  V30 11 C -0.642642 1.658336 -1.162783 0
M  V30 12 C -1.181924 2.902748 -0.840604 0
M  V30 13 C -1.016674 3.091700 0.523290 0
M  V30 14 N -0.398581 2.008340 1.033514 0
M  V30 15 C -0.170307 1.142267 0.026845 0
M  V30 16 C 0.435714 -0.097134 0.072685 0
M  V30 17 C -0.072955 1.883222 2.445246 0
M  V30 18 C -1.335033 2.052104 3.225097 0
M  V30 19 C -1.657938 3.443539 3.648069 0
M  V30 20 N -1.635251 4.413275 2.599709 0
M  V30 21 C -1.494970 4.334822 1.166677 0
M  V30 22 O -1.779820 5.321606 0.478152 0
M  V30 23 O 3.645571 -4.309500 0.109734 0
M  V30 24 N 3.890703 -5.582253 0.269470 0
M  V30 25 H 3.320271 -8.291100 0.595043 0
M  V30 26 H 2.085977 -7.723765 1.816092 0
M  V30 27 H 1.560459 -7.969143 0.132557 0
M  V30 28 H 0.637162 -5.363766 0.617077 0
M  V30 29 H 1.689196 -2.321835 1.035425 0
M  V30 30 H 0.190509 -0.861319 -3.191940 0
M  V30 31 H -0.864595 1.306720 -3.245483 0
M  V30 32 H -1.637836 3.574123 -1.544573 0
M  V30 33 H 0.799418 -0.486722 1.008694 0
M  V30 34 H 0.636618 2.737745 2.645579 0
M  V30 35 H 0.460680 0.957604 2.675260 0
M  V30 36 H -2.201169 1.606412 2.683132 0
M  V30 37 H -1.213421 1.451271 4.162778 0
M  V30 38 H -2.727302 3.410642 4.008403 0
M  V30 39 H -1.088024 3.757203 4.545504 0
M  V30 40 H -1.745794 5.393815 2.965299 0
M  V30 END ATOM
M  V30 BEGIN BOND
M  V30 1 1 1 2
M  V30 2 1 2 3
M  V30 3 2 3 4
M  V30 4 1 4 5
M  V30 5 1 5 6
M  V30 6 2 6 7
M  V30 7 1 6 8
M  V30 8 2 8 9
M  V30 9 1 9 10
M  V30 10 2 10 11
M  V30 11 1 11 12
M  V30 12 2 12 13
M  V30 13 1 13 14
M  V30 14 1 14 15
M  V30 15 2 15 16
M  V30 16 1 14 17
M  V30 17 1 17 18
M  V30 18 1 18 19
M  V30 19 1 19 20
M  V30 20 1 20 21
M  V30 21 2 21 22
M  V30 22 1 4 23
M  V30 23 1 23 24
M  V30 24 2 24 2
M  V30 25 1 16 8
M  V30 26 1 15 11
M  V30 27 1 21 13
M  V30 28 1 1 25
M  V30 29 1 1 26
M  V30 30 1 1 27
M  V30 31 1 3 28
M  V30 32 1 5 29
M  V30 33 1 9 30
M  V30 34 1 10 31
M  V30 35 1 12 32
M  V30 36 1 16 33
M  V30 37 1 17 34
M  V30 38 1 17 35
M  V30 39 1 18 36
M  V30 40 1 18 37
M  V30 41 1 19 38
M  V30 42 1 19 39
M  V30 43 1 20 40
M  V30 END BOND
M  V30 END CTAB
M  END
>  <Dataset>  (314) 
ChEMBL_Kinases

>  <Ligand_Instance>  (314) 
nan

>  <PDB_ID>  (314) 
nan

>  <Standardized_SMILES>  (314) 
Cc1cc(NC(=O)c2ccc3cc4n(c3c2)CCCNC4=O)on1

>  <Name>  (314) 
nan

>  <Pocket>  (314) 
nan

>  <ATP_Site>  (314) 
nan

>  <Peripheral>  (314) 
nan

>  <Num_H_Atoms_ProtBoundConf>  (314) 
nan

>  <Num_Resolved_Atoms>  (314) 
nan

>  <Num_Not_Resolved_Atoms>  (314) 
nan

$$$$
CHEMBL1933068
     RDKit          3D

  0  0  0  0  0  0  0  0  0  0999 V3000
M  V30 BEGIN CTAB
M  V30 COUNTS 44 48 0 0 0
M  V30 BEGIN ATOM
M  V30 1 O 3.538799 0.565185 1.231645 0
M  V30 2 C 2.457896 -0.033383 1.117975 0
M  V30 3 N 2.367155 -1.158920 0.257290 0
M  V30 4 C 3.447128 -1.679710 -0.515205 0
M  V30 5 C 3.781608 -1.300195 -1.819023 0
M  V30 6 C 4.884793 -2.016997 -2.244134 0
M  V30 7 C 5.621413 -1.983609 -3.536114 0
M  V30 8 C 4.731118 -1.998292 -4.816133 0
M  V30 9 C 5.587075 -0.815920 -4.433154 0
M  V30 10 N 5.170161 -2.796413 -1.184664 0
M  V30 11 O 4.346925 -2.584716 -0.231180 0
M  V30 12 C 1.315432 0.456285 1.886126 0
M  V30 13 C 1.528025 1.566030 2.695432 0
M  V30 14 C 0.467700 2.077862 3.452307 0
M  V30 15 C -0.779303 1.460767 3.376072 0
M  V30 16 C -1.920304 1.840178 4.054029 0
M  V30 17 C -2.857763 0.896348 3.615817 0
M  V30 18 N -2.298797 0.013880 2.731606 0
M  V30 19 C -1.003304 0.366333 2.582744 0
M  V30 20 C 0.061763 -0.115667 1.847977 0
M  V30 21 C -2.778161 -1.105277 2.003551 0
M  V30 22 C -4.183625 -1.507120 2.184003 0
M  V30 23 C -5.248062 -0.490641 2.058796 0
M  V30 24 N -5.384450 0.344100 3.264607 0
M  V30 25 C -4.276421 0.852000 4.048562 0
M  V30 26 O -4.443954 1.314154 5.207239 0
M  V30 27 H 1.468571 -1.678132 0.145948 0
M  V30 28 H 3.267481 -0.558552 -2.423798 0
M  V30 29 H 6.496143 -2.679349 -3.605535 0
M  V30 30 H 3.622892 -1.873771 -4.639263 0
M  V30 31 H 5.033930 -2.681784 -5.617411 0
M  V30 32 H 6.481700 -0.696855 -5.105436 0
M  V30 33 H 5.123021 0.123552 -4.139463 0
M  V30 34 H 2.475453 2.064356 2.776912 0
M  V30 35 H 0.634528 2.946593 4.085814 0
M  V30 36 H -2.160038 2.622813 4.753363 0
M  V30 37 H -0.104780 -0.965992 1.229002 0
M  V30 38 H -2.140614 -1.976795 2.291316 0
M  V30 39 H -2.561708 -0.965467 0.916431 0
M  V30 40 H -4.434877 -2.302755 1.449061 0
M  V30 41 H -4.336391 -2.004357 3.184154 0
M  V30 42 H -5.089204 0.131546 1.145779 0
M  V30 43 H -6.213958 -0.999519 1.913824 0
M  V30 44 H -6.297108 0.657388 3.680718 0
M  V30 END ATOM
M  V30 BEGIN BOND
M  V30 1 2 1 2
M  V30 2 1 2 3
M  V30 3 1 3 4
M  V30 4 2 4 5
M  V30 5 1 5 6
M  V30 6 1 6 7
M  V30 7 1 7 8
M  V30 8 1 8 9
M  V30 9 2 6 10
M  V30 10 1 10 11
M  V30 11 1 2 12
M  V30 12 2 12 13
M  V30 13 1 13 14
M  V30 14 2 14 15
M  V30 15 1 15 16
M  V30 16 2 16 17
M  V30 17 1 17 18
M  V30 18 1 18 19
M  V30 19 2 19 20
M  V30 20 1 18 21
M  V30 21 1 21 22
M  V30 22 1 22 23
M  V30 23 1 23 24
M  V30 24 1 24 25
M  V30 25 2 25 26
M  V30 26 1 11 4
M  V30 27 1 20 12
M  V30 28 1 9 7
M  V30 29 1 19 15
M  V30 30 1 25 17
M  V30 31 1 3 27
M  V30 32 1 5 28
M  V30 33 1 7 29
M  V30 34 1 8 30
M  V30 35 1 8 31
M  V30 36 1 9 32
M  V30 37 1 9 33
M  V30 38 1 13 34
M  V30 39 1 14 35
M  V30 40 1 16 36
M  V30 41 1 20 37
M  V30 42 1 21 38
M  V30 43 1 21 39
M  V30 44 1 22 40
M  V30 45 1 22 41
M  V30 46 1 23 42
M  V30 47 1 23 43
M  V30 48 1 24 44
M  V30 END BOND
M  V30 END CTAB
M  END
>  <Dataset>  (315) 
ChEMBL_Kinases

>  <Ligand_Instance>  (315) 
nan

>  <PDB_ID>  (315) 
nan

>  <Standardized_SMILES>  (315) 
O=C(Nc1cc(C2CC2)no1)c1ccc2cc3n(c2c1)CCCNC3=O

>  <Name>  (315) 
nan

>  <Pocket>  (315) 
nan

>  <ATP_Site>  (315) 
nan

>  <Peripheral>  (315) 
nan

>  <Num_H_Atoms_ProtBoundConf>  (315) 
nan

>  <Num_Resolved_Atoms>  (315) 
nan

>  <Num_Not_Resolved_Atoms>  (315) 
nan

$$$$
CHEMBL193305
     RDKit          3D

  0  0  0  0  0  0  0  0  0  0999 V3000
M  V30 BEGIN CTAB
M  V30 COUNTS 49 52 0 0 0
M  V30 BEGIN ATOM
M  V30 1 C 4.502916 -0.420615 -1.479370 0
M  V30 2 C 3.518296 -1.403467 -0.884516 0
M  V30 3 C 2.330918 -1.589378 -1.808495 0
M  V30 4 S 3.008099 -0.975132 0.759835 0
M  V30 5 O 4.268655 -0.908605 1.581440 0
M  V30 6 O 2.215858 -2.132875 1.312506 0
M  V30 7 N 2.128212 0.479991 0.867397 0
M  V30 8 C 2.478183 1.737726 0.568914 0
M  V30 9 N 3.734040 2.181248 0.083404 0
M  V30 10 N 1.476301 2.609371 0.790830 0
M  V30 11 C 0.394755 1.919526 1.261471 0
M  V30 12 C -0.870599 2.304878 1.643632 0
M  V30 13 C -1.768242 1.357343 2.087647 0
M  V30 14 C -1.377407 0.039336 2.139312 0
M  V30 15 C -2.354318 -0.912019 2.613558 0
M  V30 16 C -2.859231 -1.938610 1.842730 0
M  V30 17 C -2.547264 -2.276901 0.457758 0
M  V30 18 C -2.006576 -3.415707 -0.077451 0
M  V30 19 C -1.804959 -3.498578 -1.439947 0
M  V30 20 C -2.139124 -2.450477 -2.282063 0
M  V30 21 F -1.931237 -2.561788 -3.601735 0
M  V30 22 C -2.690159 -1.284560 -1.753778 0
M  V30 23 C -2.891472 -1.207291 -0.373664 0
M  V30 24 N -3.728035 -2.593360 2.636048 0
M  V30 25 C -3.761426 -2.000160 3.845179 0
M  V30 26 N -2.901123 -0.943982 3.837026 0
M  V30 27 C -2.605956 -0.008601 4.925882 0
M  V30 28 C -0.098407 -0.293265 1.744898 0
M  V30 29 C 0.841556 0.614912 1.291971 0
M  V30 30 H 5.191510 -0.975196 -2.188325 0
M  V30 31 H 5.179484 -0.048593 -0.692157 0
M  V30 32 H 3.968541 0.381732 -2.004420 0
M  V30 33 H 4.073126 -2.396256 -0.870654 0
M  V30 34 H 1.480680 -2.070718 -1.287370 0
M  V30 35 H 2.025753 -0.594957 -2.246606 0
M  V30 36 H 2.581616 -2.226211 -2.675955 0
M  V30 37 H 4.170397 2.550952 -0.785073 0
M  V30 38 H 4.483102 2.123717 0.835004 0
M  V30 39 H -1.073618 3.365494 1.563504 0
M  V30 40 H -2.742979 1.750720 2.368044 0
M  V30 41 H -1.787420 -4.161034 0.674761 0
M  V30 42 H -1.372629 -4.430734 -1.791033 0
M  V30 43 H -2.933502 -0.497522 -2.451121 0
M  V30 44 H -3.321786 -0.257269 -0.096261 0
M  V30 45 H -4.342807 -2.261584 4.714427 0
M  V30 46 H -1.516708 0.145583 5.051883 0
M  V30 47 H -2.943078 -0.513765 5.862798 0
M  V30 48 H -3.193943 0.928015 4.849004 0
M  V30 49 H 0.104908 -1.348787 1.824730 0
M  V30 END ATOM
M  V30 BEGIN BOND
M  V30 1 1 1 2
M  V30 2 1 2 3
M  V30 3 1 2 4
M  V30 4 2 4 5
M  V30 5 2 4 6
M  V30 6 1 4 7
M  V30 7 1 7 8
M  V30 8 1 8 9
M  V30 9 2 8 10
M  V30 10 1 10 11
M  V30 11 2 11 12
M  V30 12 1 12 13
M  V30 13 2 13 14
M  V30 14 1 14 15
M  V30 15 2 15 16
M  V30 16 1 16 17
M  V30 17 2 17 18
M  V30 18 1 18 19
M  V30 19 2 19 20
M  V30 20 1 20 21
M  V30 21 1 20 22
M  V30 22 2 22 23
M  V30 23 1 16 24
M  V30 24 2 24 25
M  V30 25 1 25 26
M  V30 26 1 26 27
M  V30 27 1 14 28
M  V30 28 2 28 29
M  V30 29 1 29 7
M  V30 30 1 29 11
M  V30 31 1 26 15
M  V30 32 1 23 17
M  V30 33 1 1 30
M  V30 34 1 1 31
M  V30 35 1 1 32
M  V30 36 1 2 33
M  V30 37 1 3 34
M  V30 38 1 3 35
M  V30 39 1 3 36
M  V30 40 1 9 37
M  V30 41 1 9 38
M  V30 42 1 12 39
M  V30 43 1 13 40
M  V30 44 1 18 41
M  V30 45 1 19 42
M  V30 46 1 22 43
M  V30 47 1 23 44
M  V30 48 1 25 45
M  V30 49 1 27 46
M  V30 50 1 27 47
M  V30 51 1 27 48
M  V30 52 1 28 49
M  V30 END BOND
M  V30 END CTAB
M  END
>  <Dataset>  (316) 
ChEMBL_Kinases

>  <Ligand_Instance>  (316) 
nan

>  <PDB_ID>  (316) 
nan

>  <Standardized_SMILES>  (316) 
CC(C)S(=O)(=O)n1c(N)nc2ccc(-c3c(-c4ccc(F)cc4)ncn3C)cc21

>  <Name>  (316) 
nan

>  <Pocket>  (316) 
nan

>  <ATP_Site>  (316) 
nan

>  <Peripheral>  (316) 
nan

>  <Num_H_Atoms_ProtBoundConf>  (316) 
nan

>  <Num_Resolved_Atoms>  (316) 
nan

>  <Num_Not_Resolved_Atoms>  (316) 
nan

$$$$
CHEMBL193247
     RDKit          3D

  0  0  0  0  0  0  0  0  0  0999 V3000
M  V30 BEGIN CTAB
M  V30 COUNTS 60 65 0 0 0
M  V30 BEGIN ATOM
M  V30 1 N 1.206320 -5.032442 4.510917 0
M  V30 2 C 1.228888 -3.809573 3.757757 0
M  V30 3 N 2.365449 -3.053220 3.765190 0
M  V30 4 C 2.119044 -1.980310 2.993392 0
M  V30 5 C 2.880873 -0.887031 2.647900 0
M  V30 6 C 2.330229 0.085078 1.828126 0
M  V30 7 C 1.032486 -0.063979 1.377249 0
M  V30 8 C 0.604307 1.048091 0.534985 0
M  V30 9 N 0.487852 2.296402 1.031591 0
M  V30 10 C 0.078638 3.159915 0.086325 0
M  V30 11 C -0.206579 4.591175 0.064557 0
M  V30 12 C -0.627363 5.277721 -1.061349 0
M  V30 13 F -0.785536 4.580722 -2.222170 0
M  V30 14 C -0.874360 6.632246 -0.989061 0
M  V30 15 C -0.726749 7.374696 0.163692 0
M  V30 16 C -0.312608 6.701533 1.273873 0
M  V30 17 C -0.059015 5.333797 1.217340 0
M  V30 18 F 0.343675 4.816883 2.400536 0
M  V30 19 N -0.060826 2.410741 -1.033296 0
M  V30 20 C 0.252445 1.127405 -0.784660 0
M  V30 21 C 0.238190 0.019885 -1.693677 0
M  V30 22 C -0.965694 -0.302149 -2.289278 0
M  V30 23 C -1.115735 -1.326116 -3.171002 0
M  V30 24 C -0.020005 -2.121605 -3.522252 0
M  V30 25 C 1.180001 -1.811902 -2.937711 0
M  V30 26 C 1.331956 -0.773034 -2.043330 0
M  V30 27 C 0.312456 -1.173073 1.749039 0
M  V30 28 C 0.827593 -2.150431 2.555775 0
M  V30 29 N 0.231195 -3.259154 2.994130 0
M  V30 30 S -1.276930 -3.992557 2.762798 0
M  V30 31 O -1.384341 -5.243299 3.628221 0
M  V30 32 O -2.403381 -3.100885 3.293662 0
M  V30 33 C -1.678792 -4.500394 1.150525 0
M  V30 34 C -1.607570 -3.507737 0.056392 0
M  V30 35 C -1.945301 -4.415194 -1.138939 0
M  V30 36 C -1.017325 -5.578856 -0.856873 0
M  V30 37 C -0.702078 -5.563530 0.618740 0
M  V30 38 H 1.357781 -5.999341 4.184264 0
M  V30 39 H 1.010855 -4.965895 5.541145 0
M  V30 40 H 3.890218 -0.832390 3.035920 0
M  V30 41 H 3.003760 0.905941 1.610719 0
M  V30 42 H 0.673961 2.605069 1.996300 0
M  V30 43 H -1.199931 7.097910 -1.911413 0
M  V30 44 H -0.955146 8.427873 0.076855 0
M  V30 45 H -0.198692 7.294865 2.179435 0
M  V30 46 H -1.877213 0.269405 -2.071450 0
M  V30 47 H -2.076927 -1.578412 -3.642644 0
M  V30 48 H -0.159628 -2.928849 -4.223245 0
M  V30 49 H 2.055225 -2.412756 -3.189895 0
M  V30 50 H 2.284840 -0.516752 -1.570558 0
M  V30 51 H -0.676042 -1.227211 1.386087 0
M  V30 52 H -2.692963 -4.965739 1.130111 0
M  V30 53 H -0.575015 -3.161564 -0.155949 0
M  V30 54 H -2.365336 -2.721317 0.048133 0
M  V30 55 H -1.776701 -3.935587 -2.101379 0
M  V30 56 H -2.986559 -4.797965 -1.016301 0
M  V30 57 H -0.090191 -5.407864 -1.471098 0
M  V30 58 H -1.432022 -6.550640 -1.163895 0
M  V30 59 H -0.875227 -6.540592 1.085977 0
M  V30 60 H 0.336216 -5.212974 0.788638 0
M  V30 END ATOM
M  V30 BEGIN BOND
M  V30 1 1 1 2
M  V30 2 2 2 3
M  V30 3 1 3 4
M  V30 4 2 4 5
M  V30 5 1 5 6
M  V30 6 2 6 7
M  V30 7 1 7 8
M  V30 8 1 8 9
M  V30 9 1 9 10
M  V30 10 1 10 11
M  V30 11 2 11 12
M  V30 12 1 12 13
M  V30 13 1 12 14
M  V30 14 2 14 15
M  V30 15 1 15 16
M  V30 16 2 16 17
M  V30 17 1 17 18
M  V30 18 2 10 19
M  V30 19 1 19 20
M  V30 20 1 20 21
M  V30 21 2 21 22
M  V30 22 1 22 23
M  V30 23 2 23 24
M  V30 24 1 24 25
M  V30 25 2 25 26
M  V30 26 1 7 27
M  V30 27 2 27 28
M  V30 28 1 28 29
M  V30 29 1 29 30
M  V30 30 2 30 31
M  V30 31 2 30 32
M  V30 32 1 30 33
M  V30 33 1 33 34
M  V30 34 1 34 35
M  V30 35 1 35 36
M  V30 36 1 36 37
M  V30 37 1 29 2
M  V30 38 1 37 33
M  V30 39 1 28 4
M  V30 40 2 20 8
M  V30 41 1 26 21
M  V30 42 1 17 11
M  V30 43 1 1 38
M  V30 44 1 1 39
M  V30 45 1 5 40
M  V30 46 1 6 41
M  V30 47 1 9 42
M  V30 48 1 14 43
M  V30 49 1 15 44
M  V30 50 1 16 45
M  V30 51 1 22 46
M  V30 52 1 23 47
M  V30 53 1 24 48
M  V30 54 1 25 49
M  V30 55 1 26 50
M  V30 56 1 27 51
M  V30 57 1 33 52
M  V30 58 1 34 53
M  V30 59 1 34 54
M  V30 60 1 35 55
M  V30 61 1 35 56
M  V30 62 1 36 57
M  V30 63 1 36 58
M  V30 64 1 37 59
M  V30 65 1 37 60
M  V30 END BOND
M  V30 END CTAB
M  END
>  <Dataset>  (317) 
ChEMBL_Kinases

>  <Ligand_Instance>  (317) 
nan

>  <PDB_ID>  (317) 
nan

>  <Standardized_SMILES>  (317) 
Nc1nc2ccc(-c3[nH]c(-c4c(F)cccc4F)nc3-c3ccccc3)cc2n1S(=O)(=O)C1CCCC1

>  <Name>  (317) 
nan

>  <Pocket>  (317) 
nan

>  <ATP_Site>  (317) 
nan

>  <Peripheral>  (317) 
nan

>  <Num_H_Atoms_ProtBoundConf>  (317) 
nan

>  <Num_Resolved_Atoms>  (317) 
nan

>  <Num_Not_Resolved_Atoms>  (317) 
nan

$$$$
CHEMBL193163
     RDKit          3D

  0  0  0  0  0  0  0  0  0  0999 V3000
M  V30 BEGIN CTAB
M  V30 COUNTS 50 53 0 0 0
M  V30 BEGIN ATOM
M  V30 1 C 1.131033 -3.228718 0.152516 0
M  V30 2 C 0.591023 -1.877670 -0.011662 0
M  V30 3 C 1.198142 -0.697710 -0.314974 0
M  V30 4 C 2.640833 -0.439475 -0.519705 0
M  V30 5 C 2.990514 0.987387 -0.173046 0
M  V30 6 C 2.823432 1.348377 1.252757 0
M  V30 7 N 3.378871 0.400854 2.175602 0
M  V30 8 C 4.679906 0.691183 2.666378 0
M  V30 9 C 3.129209 -0.966526 1.812779 0
M  V30 10 C 3.524348 -1.269712 0.410583 0
M  V30 11 N 0.283031 0.312534 -0.391928 0
M  V30 12 C -0.952881 -0.204744 -0.134243 0
M  V30 13 C -2.172918 0.567146 -0.124994 0
M  V30 14 C -2.146123 1.577601 0.845164 0
M  V30 15 C -3.254203 2.414201 0.981759 0
M  V30 16 C -4.366025 2.266083 0.186157 0
M  V30 17 F -5.463222 3.072604 0.300476 0
M  V30 18 C -4.374642 1.252748 -0.776057 0
M  V30 19 C -3.294761 0.431722 -0.914640 0
M  V30 20 C -0.760447 -1.530886 0.095487 0
M  V30 21 C -1.869507 -2.431287 0.410932 0
M  V30 22 C -2.559036 -2.149435 1.589680 0
M  V30 23 C -3.624480 -2.984799 1.928603 0
M  V30 24 N -3.994678 -4.039665 1.154352 0
M  V30 25 C -3.321700 -4.304203 0.016235 0
M  V30 26 C -2.268183 -3.516983 -0.364049 0
M  V30 27 H 1.729835 -3.530221 -0.754696 0
M  V30 28 H 1.656536 -3.422416 1.101343 0
M  V30 29 H 0.282707 -3.977150 0.154590 0
M  V30 30 H 2.913504 -0.620480 -1.580629 0
M  V30 31 H 4.080687 1.109299 -0.439062 0
M  V30 32 H 2.437776 1.712549 -0.803319 0
M  V30 33 H 1.785585 1.591751 1.557509 0
M  V30 34 H 3.395870 2.302957 1.413425 0
M  V30 35 H 4.810350 1.798728 2.633121 0
M  V30 36 H 5.501848 0.152489 2.161676 0
M  V30 37 H 4.683141 0.452412 3.770017 0
M  V30 38 H 3.770822 -1.585366 2.502856 0
M  V30 39 H 2.098984 -1.276623 1.993957 0
M  V30 40 H 4.566489 -0.869897 0.217767 0
M  V30 41 H 3.568773 -2.323149 0.161787 0
M  V30 42 H 0.444550 1.341349 -0.610415 0
M  V30 43 H -1.343502 1.810446 1.538466 0
M  V30 44 H -3.296026 3.220772 1.718785 0
M  V30 45 H -5.206752 1.069893 -1.439532 0
M  V30 46 H -3.166286 -0.393096 -1.617782 0
M  V30 47 H -2.274221 -1.314837 2.212545 0
M  V30 48 H -4.127094 -2.725059 2.851102 0
M  V30 49 H -3.644067 -5.147747 -0.570905 0
M  V30 50 H -1.715520 -3.698666 -1.257504 0
M  V30 END ATOM
M  V30 BEGIN BOND
M  V30 1 1 1 2
M  V30 2 2 2 3
M  V30 3 1 3 4
M  V30 4 1 4 5
M  V30 5 1 5 6
M  V30 6 1 6 7
M  V30 7 1 7 8
M  V30 8 1 7 9
M  V30 9 1 9 10
M  V30 10 1 3 11
M  V30 11 1 11 12
M  V30 12 1 12 13
M  V30 13 2 13 14
M  V30 14 1 14 15
M  V30 15 2 15 16
M  V30 16 1 16 17
M  V30 17 1 16 18
M  V30 18 2 18 19
M  V30 19 2 12 20
M  V30 20 1 20 21
M  V30 21 2 21 22
M  V30 22 1 22 23
M  V30 23 2 23 24
M  V30 24 1 24 25
M  V30 25 2 25 26
M  V30 26 1 20 2
M  V30 27 1 26 21
M  V30 28 1 10 4
M  V30 29 1 19 13
M  V30 30 1 1 27
M  V30 31 1 1 28
M  V30 32 1 1 29
M  V30 33 1 4 30
M  V30 34 1 5 31
M  V30 35 1 5 32
M  V30 36 1 6 33
M  V30 37 1 6 34
M  V30 38 1 8 35
M  V30 39 1 8 36
M  V30 40 1 8 37
M  V30 41 1 9 38
M  V30 42 1 9 39
M  V30 43 1 10 40
M  V30 44 1 10 41
M  V30 45 1 11 42
M  V30 46 1 14 43
M  V30 47 1 15 44
M  V30 48 1 18 45
M  V30 49 1 19 46
M  V30 50 1 22 47
M  V30 51 1 23 48
M  V30 52 1 25 49
M  V30 53 1 26 50
M  V30 END BOND
M  V30 END CTAB
M  END
>  <Dataset>  (318) 
ChEMBL_Kinases

>  <Ligand_Instance>  (318) 
nan

>  <PDB_ID>  (318) 
nan

>  <Standardized_SMILES>  (318) 
Cc1c(C2CCN(C)CC2)[nH]c(-c2ccc(F)cc2)c1-c1ccncc1

>  <Name>  (318) 
nan

>  <Pocket>  (318) 
nan

>  <ATP_Site>  (318) 
nan

>  <Peripheral>  (318) 
nan

>  <Num_H_Atoms_ProtBoundConf>  (318) 
nan

>  <Num_Resolved_Atoms>  (318) 
nan

>  <Num_Not_Resolved_Atoms>  (318) 
nan

$$$$
CHEMBL193132
     RDKit          3D

  0  0  0  0  0  0  0  0  0  0999 V3000
M  V30 BEGIN CTAB
M  V30 COUNTS 47 50 0 0 0
M  V30 BEGIN ATOM
M  V30 1 C -3.730020 -4.228044 1.011364 0
M  V30 2 N -3.082278 -2.992843 0.729859 0
M  V30 3 C -2.303278 -2.903711 -0.432230 0
M  V30 4 C -2.430448 -1.685214 -1.272498 0
M  V30 5 C -2.447773 -0.478056 -0.404295 0
M  V30 6 C -1.073717 -0.143328 0.051924 0
M  V30 7 C -0.364110 0.975565 -0.401033 0
M  V30 8 C 0.891610 1.041142 0.195918 0
M  V30 9 C 1.971183 1.978722 0.065472 0
M  V30 10 C 2.536673 2.106084 -1.197473 0
M  V30 11 C 3.581808 3.000986 -1.365249 0
M  V30 12 N 4.053549 3.744056 -0.326886 0
M  V30 13 C 3.498196 3.617075 0.907197 0
M  V30 14 C 2.465567 2.740584 1.098220 0
M  V30 15 C 0.924867 -0.069375 1.024202 0
M  V30 16 C 2.042761 -0.476795 1.895595 0
M  V30 17 C 1.718083 -0.510156 3.251171 0
M  V30 18 C 2.655175 -0.874383 4.219296 0
M  V30 19 C 3.913364 -1.196930 3.754737 0
M  V30 20 C 4.264819 -1.173196 2.418536 0
M  V30 21 C 3.318106 -0.808784 1.478199 0
M  V30 22 N -0.237042 -0.735798 0.914444 0
M  V30 23 C -3.452612 -0.545193 0.704969 0
M  V30 24 C -3.497833 -1.850257 1.418815 0
M  V30 25 H -4.344214 -4.121825 1.920935 0
M  V30 26 H -4.345638 -4.603958 0.177452 0
M  V30 27 H -2.916345 -4.955814 1.296358 0
M  V30 28 H -2.604508 -3.771655 -1.099033 0
M  V30 29 H -1.216234 -3.103131 -0.254952 0
M  V30 30 H -1.506563 -1.609150 -1.916918 0
M  V30 31 H -3.262769 -1.723969 -2.003004 0
M  V30 32 H -2.745817 0.381896 -1.076874 0
M  V30 33 H -0.657877 1.754449 -1.120743 0
M  V30 34 H 2.184421 1.536882 -2.019726 0
M  V30 35 H 4.017379 3.096931 -2.344428 0
M  V30 36 H 3.898810 4.222587 1.705071 0
M  V30 37 H 2.006347 2.622455 2.075091 0
M  V30 38 H 0.732271 -0.258559 3.627126 0
M  V30 39 H 2.384776 -0.895155 5.273656 0
M  V30 40 H 4.683307 -1.484479 4.427217 0
M  V30 41 H 5.244986 -1.425250 2.064028 0
M  V30 42 H 3.476277 -0.752956 0.398218 0
M  V30 43 H -0.458732 -1.591068 1.427651 0
M  V30 44 H -3.199641 0.263458 1.432051 0
M  V30 45 H -4.442593 -0.265125 0.277582 0
M  V30 46 H -4.574544 -2.004035 1.706117 0
M  V30 47 H -2.979667 -1.788948 2.408467 0
M  V30 END ATOM
M  V30 BEGIN BOND
M  V30 1 1 1 2
M  V30 2 1 2 3
M  V30 3 1 3 4
M  V30 4 1 4 5
M  V30 5 1 5 6
M  V30 6 2 6 7
M  V30 7 1 7 8
M  V30 8 1 8 9
M  V30 9 2 9 10
M  V30 10 1 10 11
M  V30 11 2 11 12
M  V30 12 1 12 13
M  V30 13 2 13 14
M  V30 14 2 8 15
M  V30 15 1 15 16
M  V30 16 2 16 17
M  V30 17 1 17 18
M  V30 18 2 18 19
M  V30 19 1 19 20
M  V30 20 2 20 21
M  V30 21 1 15 22
M  V30 22 1 5 23
M  V30 23 1 23 24
M  V30 24 1 24 2
M  V30 25 1 22 6
M  V30 26 1 14 9
M  V30 27 1 21 16
M  V30 28 1 1 25
M  V30 29 1 1 26
M  V30 30 1 1 27
M  V30 31 1 3 28
M  V30 32 1 3 29
M  V30 33 1 4 30
M  V30 34 1 4 31
M  V30 35 1 5 32
M  V30 36 1 7 33
M  V30 37 1 10 34
M  V30 38 1 11 35
M  V30 39 1 13 36
M  V30 40 1 14 37
M  V30 41 1 17 38
M  V30 42 1 18 39
M  V30 43 1 19 40
M  V30 44 1 20 41
M  V30 45 1 21 42
M  V30 46 1 22 43
M  V30 47 1 23 44
M  V30 48 1 23 45
M  V30 49 1 24 46
M  V30 50 1 24 47
M  V30 END BOND
M  V30 END CTAB
M  END
>  <Dataset>  (319) 
ChEMBL_Kinases

>  <Ligand_Instance>  (319) 
nan

>  <PDB_ID>  (319) 
nan

>  <Standardized_SMILES>  (319) 
CN1CCC(c2cc(-c3ccncc3)c(-c3ccccc3)[nH]2)CC1

>  <Name>  (319) 
nan

>  <Pocket>  (319) 
nan

>  <ATP_Site>  (319) 
nan

>  <Peripheral>  (319) 
nan

>  <Num_H_Atoms_ProtBoundConf>  (319) 
nan

>  <Num_Resolved_Atoms>  (319) 
nan

>  <Num_Not_Resolved_Atoms>  (319) 
nan

$$$$
CHEMBL193110
     RDKit          3D

  0  0  0  0  0  0  0  0  0  0999 V3000
M  V30 BEGIN CTAB
M  V30 COUNTS 51 54 0 0 0
M  V30 BEGIN ATOM
M  V30 1 C -0.138060 -5.187785 2.297485 0
M  V30 2 N 1.296193 -5.000525 2.390809 0
M  V30 3 C 1.843968 -4.314729 1.254999 0
M  V30 4 C 2.896973 -3.343477 1.646729 0
M  V30 5 C 2.352187 -2.301639 2.591850 0
M  V30 6 C 1.565907 -1.281742 1.840055 0
M  V30 7 C 2.129988 -0.042129 1.521095 0
M  V30 8 C 1.185186 0.725913 0.827941 0
M  V30 9 C 1.230823 2.070495 0.266009 0
M  V30 10 C 1.065794 2.138068 -1.117306 0
M  V30 11 C 1.082729 3.314541 -1.796102 0
M  V30 12 N 1.264385 4.463384 -1.121293 0
M  V30 13 C 1.430117 4.449933 0.230164 0
M  V30 14 C 1.415542 3.263221 0.935100 0
M  V30 15 C 0.070100 -0.064677 0.742090 0
M  V30 16 C -1.214167 0.277940 0.102030 0
M  V30 17 C -2.006892 1.321992 0.551507 0
M  V30 18 C -3.202909 1.587410 -0.098911 0
M  V30 19 C -3.615389 0.835495 -1.178769 0
M  V30 20 O -4.791166 1.036643 -1.878661 0
M  V30 21 C -4.857688 1.905084 -3.008745 0
M  V30 22 F -4.027669 1.534021 -4.024803 0
M  V30 23 F -4.443935 3.171527 -2.602282 0
M  V30 24 F -6.163990 2.003869 -3.445944 0
M  V30 25 C -2.845756 -0.226888 -1.664681 0
M  V30 26 C -1.647026 -0.460967 -0.980328 0
M  V30 27 N 0.338932 -1.233376 1.349538 0
M  V30 28 C 1.624706 -2.957468 3.699835 0
M  V30 29 C 1.729394 -4.452013 3.639104 0
M  V30 30 H -0.588996 -4.361770 1.735478 0
M  V30 31 H -0.400434 -6.134398 1.779038 0
M  V30 32 H -0.513816 -5.311411 3.333227 0
M  V30 33 H 2.223298 -5.068581 0.508933 0
M  V30 34 H 1.031849 -3.794002 0.726123 0
M  V30 35 H 3.173364 -2.775425 0.710158 0
M  V30 36 H 3.826959 -3.811232 2.023854 0
M  V30 37 H 3.285299 -1.765781 2.969007 0
M  V30 38 H 3.123008 0.394411 1.712868 0
M  V30 39 H 0.915454 1.243929 -1.714521 0
M  V30 40 H 0.960603 3.427769 -2.862876 0
M  V30 41 H 1.579714 5.355846 0.814673 0
M  V30 42 H 1.538860 3.162568 2.002116 0
M  V30 43 H -1.663165 1.898377 1.399622 0
M  V30 44 H -3.841033 2.397648 0.232583 0
M  V30 45 H -3.133465 -0.833081 -2.500831 0
M  V30 46 H -0.988782 -1.282013 -1.306943 0
M  V30 47 H -0.334378 -1.996918 1.425854 0
M  V30 48 H 0.555229 -2.699304 3.802292 0
M  V30 49 H 2.090622 -2.663638 4.685755 0
M  V30 50 H 2.759134 -4.829552 3.850650 0
M  V30 51 H 1.080099 -4.912271 4.429083 0
M  V30 END ATOM
M  V30 BEGIN BOND
M  V30 1 1 1 2
M  V30 2 1 2 3
M  V30 3 1 3 4
M  V30 4 1 4 5
M  V30 5 1 5 6
M  V30 6 2 6 7
M  V30 7 1 7 8
M  V30 8 1 8 9
M  V30 9 2 9 10
M  V30 10 1 10 11
M  V30 11 2 11 12
M  V30 12 1 12 13
M  V30 13 2 13 14
M  V30 14 2 8 15
M  V30 15 1 15 16
M  V30 16 2 16 17
M  V30 17 1 17 18
M  V30 18 2 18 19
M  V30 19 1 19 20
M  V30 20 1 20 21
M  V30 21 1 21 22
M  V30 22 1 21 23
M  V30 23 1 21 24
M  V30 24 1 19 25
M  V30 25 2 25 26
M  V30 26 1 15 27
M  V30 27 1 5 28
M  V30 28 1 28 29
M  V30 29 1 29 2
M  V30 30 1 27 6
M  V30 31 1 14 9
M  V30 32 1 26 16
M  V30 33 1 1 30
M  V30 34 1 1 31
M  V30 35 1 1 32
M  V30 36 1 3 33
M  V30 37 1 3 34
M  V30 38 1 4 35
M  V30 39 1 4 36
M  V30 40 1 5 37
M  V30 41 1 7 38
M  V30 42 1 10 39
M  V30 43 1 11 40
M  V30 44 1 13 41
M  V30 45 1 14 42
M  V30 46 1 17 43
M  V30 47 1 18 44
M  V30 48 1 25 45
M  V30 49 1 26 46
M  V30 50 1 27 47
M  V30 51 1 28 48
M  V30 52 1 28 49
M  V30 53 1 29 50
M  V30 54 1 29 51
M  V30 END BOND
M  V30 END CTAB
M  END
>  <Dataset>  (320) 
ChEMBL_Kinases

>  <Ligand_Instance>  (320) 
nan

>  <PDB_ID>  (320) 
nan

>  <Standardized_SMILES>  (320) 
CN1CCC(c2cc(-c3ccncc3)c(-c3ccc(OC(F)(F)F)cc3)[nH]2)CC1

>  <Name>  (320) 
nan

>  <Pocket>  (320) 
nan

>  <ATP_Site>  (320) 
nan

>  <Peripheral>  (320) 
nan

>  <Num_H_Atoms_ProtBoundConf>  (320) 
nan

>  <Num_Resolved_Atoms>  (320) 
nan

>  <Num_Not_Resolved_Atoms>  (320) 
nan

$$$$
CHEMBL193109
     RDKit          3D

  0  0  0  0  0  0  0  0  0  0999 V3000
M  V30 BEGIN CTAB
M  V30 COUNTS 47 50 0 0 0
M  V30 BEGIN ATOM
M  V30 1 C -2.553490 -3.596324 2.210023 0
M  V30 2 N -2.963311 -2.371684 2.816190 0
M  V30 3 C -3.275994 -1.295501 1.944787 0
M  V30 4 C -2.964828 0.073575 2.506212 0
M  V30 5 C -1.595464 0.139840 3.123919 0
M  V30 6 C -0.599195 0.130938 1.995335 0
M  V30 7 C 0.117097 1.287755 1.682081 0
M  V30 8 C 0.976587 1.037014 0.607242 0
M  V30 9 C 1.907320 1.932858 -0.059647 0
M  V30 10 C 3.250498 1.696129 -0.051226 0
M  V30 11 C 4.107385 2.575183 -0.699027 0
M  V30 12 N 3.610632 3.648557 -1.327299 0
M  V30 13 C 2.285459 3.912274 -1.354978 0
M  V30 14 C 1.428284 3.043574 -0.713616 0
M  V30 15 C 0.738725 -0.289658 0.309474 0
M  V30 16 C 1.359256 -1.096965 -0.734310 0
M  V30 17 C 2.075400 -2.193742 -0.244562 0
M  V30 18 C 2.723188 -3.054634 -1.137284 0
M  V30 19 C 2.592095 -2.732071 -2.469650 0
M  V30 20 F 3.216907 -3.562008 -3.343942 0
M  V30 21 C 1.894640 -1.660187 -2.984038 0
M  V30 22 Cl 1.791546 -1.341477 -4.699164 0
M  V30 23 C 1.272216 -0.836822 -2.085793 0
M  V30 24 N -0.191118 -0.801871 1.138330 0
M  V30 25 C -1.309367 -1.014056 4.023552 0
M  V30 26 C -2.385543 -2.057028 4.071225 0
M  V30 27 H -2.783401 -3.531931 1.127961 0
M  V30 28 H -3.197659 -4.411728 2.603711 0
M  V30 29 H -1.494267 -3.855824 2.412465 0
M  V30 30 H -2.919977 -1.412373 0.892071 0
M  V30 31 H -4.402983 -1.303728 1.832641 0
M  V30 32 H -3.769361 0.353333 3.222966 0
M  V30 33 H -2.972648 0.809932 1.680492 0
M  V30 34 H -1.521158 1.136456 3.617752 0
M  V30 35 H 0.110452 2.295663 2.119059 0
M  V30 36 H 3.622823 0.824741 0.462108 0
M  V30 37 H 5.180958 2.417139 -0.712023 0
M  V30 38 H 1.932301 4.790769 -1.874782 0
M  V30 39 H 0.354553 3.211460 -0.706528 0
M  V30 40 H 2.157753 -2.418655 0.820966 0
M  V30 41 H 3.290507 -3.916746 -0.815345 0
M  V30 42 H 0.691548 0.041909 -2.382012 0
M  V30 43 H -0.570514 -1.761097 1.158079 0
M  V30 44 H -1.208922 -0.622968 5.061962 0
M  V30 45 H -0.299875 -1.464913 3.805452 0
M  V30 46 H -1.943497 -2.978166 4.501918 0
M  V30 47 H -3.175472 -1.721212 4.768849 0
M  V30 END ATOM
M  V30 BEGIN BOND
M  V30 1 1 1 2
M  V30 2 1 2 3
M  V30 3 1 3 4
M  V30 4 1 4 5
M  V30 5 1 5 6
M  V30 6 2 6 7
M  V30 7 1 7 8
M  V30 8 1 8 9
M  V30 9 2 9 10
M  V30 10 1 10 11
M  V30 11 2 11 12
M  V30 12 1 12 13
M  V30 13 2 13 14
M  V30 14 2 8 15
M  V30 15 1 15 16
M  V30 16 2 16 17
M  V30 17 1 17 18
M  V30 18 2 18 19
M  V30 19 1 19 20
M  V30 20 1 19 21
M  V30 21 1 21 22
M  V30 22 2 21 23
M  V30 23 1 15 24
M  V30 24 1 5 25
M  V30 25 1 25 26
M  V30 26 1 26 2
M  V30 27 1 24 6
M  V30 28 1 14 9
M  V30 29 1 23 16
M  V30 30 1 1 27
M  V30 31 1 1 28
M  V30 32 1 1 29
M  V30 33 1 3 30
M  V30 34 1 3 31
M  V30 35 1 4 32
M  V30 36 1 4 33
M  V30 37 1 5 34
M  V30 38 1 7 35
M  V30 39 1 10 36
M  V30 40 1 11 37
M  V30 41 1 13 38
M  V30 42 1 14 39
M  V30 43 1 17 40
M  V30 44 1 18 41
M  V30 45 1 23 42
M  V30 46 1 24 43
M  V30 47 1 25 44
M  V30 48 1 25 45
M  V30 49 1 26 46
M  V30 50 1 26 47
M  V30 END BOND
M  V30 END CTAB
M  END
>  <Dataset>  (321) 
ChEMBL_Kinases

>  <Ligand_Instance>  (321) 
nan

>  <PDB_ID>  (321) 
nan

>  <Standardized_SMILES>  (321) 
CN1CCC(c2cc(-c3ccncc3)c(-c3ccc(F)c(Cl)c3)[nH]2)CC1

>  <Name>  (321) 
nan

>  <Pocket>  (321) 
nan

>  <ATP_Site>  (321) 
nan

>  <Peripheral>  (321) 
nan

>  <Num_H_Atoms_ProtBoundConf>  (321) 
nan

>  <Num_Resolved_Atoms>  (321) 
nan

>  <Num_Not_Resolved_Atoms>  (321) 
nan

$$$$
CHEMBL193093
     RDKit          3D

  0  0  0  0  0  0  0  0  0  0999 V3000
M  V30 BEGIN CTAB
M  V30 COUNTS 22 23 0 0 0
M  V30 BEGIN ATOM
M  V30 1 N 0.691177 -2.491496 4.056924 0
M  V30 2 C 0.266766 -1.141835 3.922878 0
M  V30 3 O -0.122554 -0.460740 4.904705 0
M  V30 4 C 0.261103 -0.480267 2.644561 0
M  V30 5 S 0.787795 -1.309961 1.134877 0
M  V30 6 C 0.490355 0.131038 0.058660 0
M  V30 7 C 0.731932 0.123486 -1.373588 0
M  V30 8 C 0.485013 1.240804 -2.110437 0
M  V30 9 C 0.708870 1.229614 -3.429316 0
M  V30 10 S 1.348127 -0.511353 -3.805908 0
M  V30 11 C 1.223641 -1.024125 -2.043120 0
M  V30 12 C 0.037015 1.076616 0.899061 0
M  V30 13 C -0.073900 0.743352 2.224544 0
M  V30 14 N -0.546770 1.660930 3.237472 0
M  V30 15 H 1.069980 -2.746426 5.015523 0
M  V30 16 H 1.069779 -2.752006 5.009963 0
M  V30 17 H 0.112949 2.188020 -1.760217 0
M  V30 18 H 0.627580 1.891947 -4.255998 0
M  V30 19 H 1.473285 -1.987985 -1.626936 0
M  V30 20 H -0.221418 2.054394 0.507928 0
M  V30 21 H 0.028571 2.365979 3.759907 0
M  V30 22 H -1.562771 1.692432 3.544776 0
M  V30 END ATOM
M  V30 BEGIN BOND
M  V30 1 1 1 2
M  V30 2 2 2 3
M  V30 3 1 2 4
M  V30 4 1 4 5
M  V30 5 1 5 6
M  V30 6 1 6 7
M  V30 7 1 7 8
M  V30 8 2 8 9
M  V30 9 1 9 10
M  V30 10 1 10 11
M  V30 11 2 6 12
M  V30 12 1 12 13
M  V30 13 1 13 14
M  V30 14 2 13 4
M  V30 15 2 11 7
M  V30 16 1 1 15
M  V30 17 1 1 16
M  V30 18 1 8 17
M  V30 19 1 9 18
M  V30 20 1 11 19
M  V30 21 1 12 20
M  V30 22 1 14 21
M  V30 23 1 14 22
M  V30 END BOND
M  V30 END CTAB
M  END
>  <Dataset>  (322) 
ChEMBL_Kinases

>  <Ligand_Instance>  (322) 
nan

>  <PDB_ID>  (322) 
nan

>  <Standardized_SMILES>  (322) 
NC(=O)c1sc(-c2ccsc2)cc1N

>  <Name>  (322) 
nan

>  <Pocket>  (322) 
nan

>  <ATP_Site>  (322) 
nan

>  <Peripheral>  (322) 
nan

>  <Num_H_Atoms_ProtBoundConf>  (322) 
nan

>  <Num_Resolved_Atoms>  (322) 
nan

>  <Num_Not_Resolved_Atoms>  (322) 
nan

$$$$
CHEMBL193055
     RDKit          3D

  0  0  0  0  0  0  0  0  0  0999 V3000
M  V30 BEGIN CTAB
M  V30 COUNTS 58 61 0 0 0
M  V30 BEGIN ATOM
M  V30 1 C 3.460894 -2.237581 3.045758 0
M  V30 2 C 4.359505 -1.012485 3.266275 0
M  V30 3 C 4.352141 -0.723118 4.746690 0
M  V30 4 S 3.635120 0.294912 2.308032 0
M  V30 5 O 2.293305 0.683703 2.817090 0
M  V30 6 O 4.553800 1.493768 2.494159 0
M  V30 7 N 3.566453 -0.065140 0.651462 0
M  V30 8 C 4.687649 -0.292506 -0.088355 0
M  V30 9 N 6.058093 -0.271127 0.337351 0
M  V30 10 N 4.284596 -0.553774 -1.352797 0
M  V30 11 C 2.938800 -0.494209 -1.417515 0
M  V30 12 C 1.995219 -0.665679 -2.410677 0
M  V30 13 C 0.662485 -0.523438 -2.099175 0
M  V30 14 C 0.183550 -0.210784 -0.822715 0
M  V30 15 C -1.261930 -0.101105 -0.645827 0
M  V30 16 N -2.004732 1.010027 -0.489472 0
M  V30 17 C -3.302021 0.658671 -0.368619 0
M  V30 18 C -4.463074 1.544113 -0.185973 0
M  V30 19 C -5.724312 0.681682 -0.063593 0
M  V30 20 C -4.687887 2.436644 -1.400861 0
M  V30 21 C -4.403442 2.428328 1.017472 0
M  V30 22 N -3.326893 -0.693235 -0.455484 0
M  V30 23 C -2.107962 -1.188130 -0.623781 0
M  V30 24 C -1.859443 -2.630754 -0.743694 0
M  V30 25 C -2.242062 -3.276690 0.438661 0
M  V30 26 C -2.103648 -4.654708 0.576707 0
M  V30 27 C -1.582919 -5.386634 -0.467383 0
M  V30 28 F -1.449311 -6.727863 -0.330533 0
M  V30 29 C -1.221056 -4.713855 -1.607435 0
M  V30 30 C -1.347130 -3.367192 -1.764443 0
M  V30 31 C 1.139663 -0.039778 0.171467 0
M  V30 32 C 2.476596 -0.186144 -0.155839 0
M  V30 33 H 2.396720 -1.932357 3.093317 0
M  V30 34 H 3.615242 -3.008594 3.826625 0
M  V30 35 H 3.633889 -2.657542 2.029945 0
M  V30 36 H 5.394592 -1.226970 2.969201 0
M  V30 37 H 5.360056 -0.385580 5.070192 0
M  V30 38 H 4.053193 -1.639922 5.299517 0
M  V30 39 H 3.568699 0.021448 4.932694 0
M  V30 40 H 6.582275 -1.160396 0.080769 0
M  V30 41 H 6.702952 -1.062833 0.162599 0
M  V30 42 H 2.319805 -0.907751 -3.413240 0
M  V30 43 H -0.012468 -0.670383 -2.929226 0
M  V30 44 H -1.643151 1.975518 -0.464796 0
M  V30 45 H -6.598044 1.122617 -0.550274 0
M  V30 46 H -5.511454 -0.304349 -0.524375 0
M  V30 47 H -5.933009 0.464895 1.021871 0
M  V30 48 H -4.542428 1.844755 -2.309254 0
M  V30 49 H -5.697276 2.872692 -1.290680 0
M  V30 50 H -3.902162 3.219786 -1.348300 0
M  V30 51 H -4.079208 1.920325 1.932900 0
M  V30 52 H -3.852597 3.369263 0.794593 0
M  V30 53 H -5.467884 2.742515 1.226548 0
M  V30 54 H -2.669500 -2.811171 1.338836 0
M  V30 55 H -2.389818 -5.187087 1.476176 0
M  V30 56 H -0.809817 -5.272919 -2.438244 0
M  V30 57 H -1.092112 -2.775635 -2.610409 0
M  V30 58 H 0.758065 0.195902 1.133326 0
M  V30 END ATOM
M  V30 BEGIN BOND
M  V30 1 1 1 2
M  V30 2 1 2 3
M  V30 3 1 2 4
M  V30 4 2 4 5
M  V30 5 2 4 6
M  V30 6 1 4 7
M  V30 7 1 7 8
M  V30 8 1 8 9
M  V30 9 2 8 10
M  V30 10 1 10 11
M  V30 11 2 11 12
M  V30 12 1 12 13
M  V30 13 2 13 14
M  V30 14 1 14 15
M  V30 15 1 15 16
M  V30 16 1 16 17
M  V30 17 1 17 18
M  V30 18 1 18 19
M  V30 19 1 18 20
M  V30 20 1 18 21
M  V30 21 2 17 22
M  V30 22 1 22 23
M  V30 23 1 23 24
M  V30 24 2 24 25
M  V30 25 1 25 26
M  V30 26 2 26 27
M  V30 27 1 27 28
M  V30 28 1 27 29
M  V30 29 2 29 30
M  V30 30 1 14 31
M  V30 31 2 31 32
M  V30 32 1 32 7
M  V30 33 1 32 11
M  V30 34 2 23 15
M  V30 35 1 30 24
M  V30 36 1 1 33
M  V30 37 1 1 34
M  V30 38 1 1 35
M  V30 39 1 2 36
M  V30 40 1 3 37
M  V30 41 1 3 38
M  V30 42 1 3 39
M  V30 43 1 9 40
M  V30 44 1 9 41
M  V30 45 1 12 42
M  V30 46 1 13 43
M  V30 47 1 16 44
M  V30 48 1 19 45
M  V30 49 1 19 46
M  V30 50 1 19 47
M  V30 51 1 20 48
M  V30 52 1 20 49
M  V30 53 1 20 50
M  V30 54 1 21 51
M  V30 55 1 21 52
M  V30 56 1 21 53
M  V30 57 1 25 54
M  V30 58 1 26 55
M  V30 59 1 29 56
M  V30 60 1 30 57
M  V30 61 1 31 58
M  V30 END BOND
M  V30 END CTAB
M  END
>  <Dataset>  (323) 
ChEMBL_Kinases

>  <Ligand_Instance>  (323) 
nan

>  <PDB_ID>  (323) 
nan

>  <Standardized_SMILES>  (323) 
CC(C)S(=O)(=O)n1c(N)nc2ccc(-c3[nH]c(C(C)(C)C)nc3-c3ccc(F)cc3)cc21

>  <Name>  (323) 
nan

>  <Pocket>  (323) 
nan

>  <ATP_Site>  (323) 
nan

>  <Peripheral>  (323) 
nan

>  <Num_H_Atoms_ProtBoundConf>  (323) 
nan

>  <Num_Resolved_Atoms>  (323) 
nan

>  <Num_Not_Resolved_Atoms>  (323) 
nan

$$$$
CHEMBL193050
     RDKit          3D

  0  0  0  0  0  0  0  0  0  0999 V3000
M  V30 BEGIN CTAB
M  V30 COUNTS 53 56 0 0 0
M  V30 BEGIN ATOM
M  V30 1 C -0.095520 -5.158837 3.944539 0
M  V30 2 C 0.480646 -5.057761 2.537100 0
M  V30 3 C 1.619986 -4.067313 2.513146 0
M  V30 4 N 2.237305 -3.894848 1.236512 0
M  V30 5 C 3.341514 -2.958010 1.297872 0
M  V30 6 C 2.804456 -1.578975 1.126477 0
M  V30 7 C 2.269078 -1.390170 -0.288993 0
M  V30 8 C 1.187238 -0.369754 -0.305835 0
M  V30 9 C 1.267971 0.799295 -1.020080 0
M  V30 10 C 0.100245 1.507942 -0.809597 0
M  V30 11 C -0.407140 2.798070 -1.283365 0
M  V30 12 C 0.180645 4.028040 -1.060302 0
M  V30 13 C -0.430079 5.160837 -1.579942 0
M  V30 14 N -1.568287 5.144670 -2.294461 0
M  V30 15 C -2.147023 3.951110 -2.516299 0
M  V30 16 C -1.589797 2.784949 -2.026276 0
M  V30 17 C -0.697875 0.766186 0.038577 0
M  V30 18 C -2.033264 0.924015 0.654183 0
M  V30 19 C -2.426455 1.918499 1.556729 0
M  V30 20 C -3.703175 1.916680 2.029519 0
M  V30 21 C -4.631023 0.964777 1.650051 0
M  V30 22 F -5.899924 0.968091 2.123976 0
M  V30 23 C -4.236989 -0.020899 0.753866 0
M  V30 24 C -2.929828 -0.022933 0.266833 0
M  V30 25 N -0.004805 -0.356409 0.316852 0
M  V30 26 C 1.838067 -2.697236 -0.890873 0
M  V30 27 C 1.363914 -3.691715 0.135116 0
M  V30 28 H 0.366062 -5.986688 4.517815 0
M  V30 29 H 0.149769 -4.193218 4.444054 0
M  V30 30 H -1.213301 -5.223536 3.895245 0
M  V30 31 H 0.865097 -6.067885 2.226303 0
M  V30 32 H -0.328148 -4.684757 1.885760 0
M  V30 33 H 1.174285 -3.093805 2.861986 0
M  V30 34 H 2.367216 -4.334818 3.295641 0
M  V30 35 H 3.759046 -3.063732 2.320516 0
M  V30 36 H 4.130324 -3.235186 0.583093 0
M  V30 37 H 1.906440 -1.475916 1.776673 0
M  V30 38 H 3.504483 -0.784880 1.431693 0
M  V30 39 H 3.104504 -1.001629 -0.902038 0
M  V30 40 H 2.048080 1.211476 -1.669342 0
M  V30 41 H 1.090981 4.036194 -0.488974 0
M  V30 42 H 0.106361 6.074959 -1.351550 0
M  V30 43 H -3.073342 3.868254 -3.089453 0
M  V30 44 H -2.069967 1.835601 -2.214943 0
M  V30 45 H -1.638028 2.618318 1.796251 0
M  V30 46 H -3.969821 2.697619 2.722590 0
M  V30 47 H -4.946599 -0.766080 0.450661 0
M  V30 48 H -2.710817 -0.827587 -0.426587 0
M  V30 49 H -0.257862 -1.187018 0.928203 0
M  V30 50 H 1.012476 -2.520781 -1.608699 0
M  V30 51 H 2.685096 -3.142364 -1.447650 0
M  V30 52 H 0.320387 -3.457847 0.432517 0
M  V30 53 H 1.313462 -4.676979 -0.407486 0
M  V30 END ATOM
M  V30 BEGIN BOND
M  V30 1 1 1 2
M  V30 2 1 2 3
M  V30 3 1 3 4
M  V30 4 1 4 5
M  V30 5 1 5 6
M  V30 6 1 6 7
M  V30 7 1 7 8
M  V30 8 2 8 9
M  V30 9 1 9 10
M  V30 10 1 10 11
M  V30 11 2 11 12
M  V30 12 1 12 13
M  V30 13 2 13 14
M  V30 14 1 14 15
M  V30 15 2 15 16
M  V30 16 2 10 17
M  V30 17 1 17 18
M  V30 18 2 18 19
M  V30 19 1 19 20
M  V30 20 2 20 21
M  V30 21 1 21 22
M  V30 22 1 21 23
M  V30 23 2 23 24
M  V30 24 1 17 25
M  V30 25 1 7 26
M  V30 26 1 26 27
M  V30 27 1 27 4
M  V30 28 1 25 8
M  V30 29 1 16 11
M  V30 30 1 24 18
M  V30 31 1 1 28
M  V30 32 1 1 29
M  V30 33 1 1 30
M  V30 34 1 2 31
M  V30 35 1 2 32
M  V30 36 1 3 33
M  V30 37 1 3 34
M  V30 38 1 5 35
M  V30 39 1 5 36
M  V30 40 1 6 37
M  V30 41 1 6 38
M  V30 42 1 7 39
M  V30 43 1 9 40
M  V30 44 1 12 41
M  V30 45 1 13 42
M  V30 46 1 15 43
M  V30 47 1 16 44
M  V30 48 1 19 45
M  V30 49 1 20 46
M  V30 50 1 23 47
M  V30 51 1 24 48
M  V30 52 1 25 49
M  V30 53 1 26 50
M  V30 54 1 26 51
M  V30 55 1 27 52
M  V30 56 1 27 53
M  V30 END BOND
M  V30 END CTAB
M  END
>  <Dataset>  (324) 
ChEMBL_Kinases

>  <Ligand_Instance>  (324) 
nan

>  <PDB_ID>  (324) 
nan

>  <Standardized_SMILES>  (324) 
CCCN1CCC(c2cc(-c3ccncc3)c(-c3ccc(F)cc3)[nH]2)CC1

>  <Name>  (324) 
nan

>  <Pocket>  (324) 
nan

>  <ATP_Site>  (324) 
nan

>  <Peripheral>  (324) 
nan

>  <Num_H_Atoms_ProtBoundConf>  (324) 
nan

>  <Num_Resolved_Atoms>  (324) 
nan

>  <Num_Not_Resolved_Atoms>  (324) 
nan

$$$$
CHEMBL193
     RDKit          3D

  0  0  0  0  0  0  0  0  0  0999 V3000
M  V30 BEGIN CTAB
M  V30 COUNTS 43 44 0 0 0
M  V30 BEGIN ATOM
M  V30 1 C 1.036981 -4.821564 2.106146 0
M  V30 2 O 0.909373 -3.437236 1.936192 0
M  V30 3 C 1.439304 -2.752937 0.883214 0
M  V30 4 O 1.875352 -3.843567 0.468897 0
M  V30 5 C 1.548512 -1.428727 0.342112 0
M  V30 6 C 2.212574 -1.324397 -0.775290 0
M  V30 7 C 2.832919 -2.475019 -1.476819 0
M  V30 8 N 2.322649 0.001869 -1.330230 0
M  V30 9 C 1.773131 1.184825 -0.764011 0
M  V30 10 C 1.925868 2.502432 -1.387598 0
M  V30 11 C 1.126042 0.967134 0.358718 0
M  V30 12 C 0.528773 2.121486 1.010437 0
M  V30 13 O 0.571371 3.308736 0.603566 0
M  V30 14 O -0.194978 2.139716 2.191784 0
M  V30 15 C -0.726487 3.336832 2.723639 0
M  V30 16 C 0.898616 -0.301760 1.101547 0
M  V30 17 C -0.545600 -0.627639 1.131960 0
M  V30 18 C -1.240732 -0.544325 -0.056682 0
M  V30 19 C -2.578295 -0.868480 0.006005 0
M  V30 20 C -3.218514 -1.251957 1.143542 0
M  V30 21 C -2.528563 -1.337208 2.337094 0
M  V30 22 C -1.191071 -1.012683 2.273562 0
M  V30 23 N -0.507217 -1.097412 3.513192 0 CHG=1 VAL=4
M  V30 24 O 0.541691 -1.322877 4.138414 0
M  V30 25 O -1.206589 -0.824531 4.688562 0 CHG=-1 VAL=1
M  V30 26 H 2.109834 -5.072686 2.255986 0
M  V30 27 H 0.447341 -5.066419 3.028293 0
M  V30 28 H 0.612986 -5.405376 1.253478 0
M  V30 29 H 3.585634 -2.946106 -0.832823 0
M  V30 30 H 2.004447 -3.188765 -1.761249 0
M  V30 31 H 3.253691 -2.106107 -2.436519 0
M  V30 32 H 2.862239 0.100079 -2.242003 0
M  V30 33 H 0.930683 2.893751 -1.666204 0
M  V30 34 H 2.499289 3.154390 -0.705918 0
M  V30 35 H 2.497616 2.383234 -2.338992 0
M  V30 36 H -0.866265 3.211524 3.835645 0
M  V30 37 H -1.707206 3.583149 2.260379 0
M  V30 38 H -0.061796 4.205923 2.579023 0
M  V30 39 H 1.387655 -0.244969 2.068049 0
M  V30 40 H -0.745984 -0.240860 -0.969681 0
M  V30 41 H -3.126210 -0.803205 -0.929844 0
M  V30 42 H -4.258738 -1.484403 1.095365 0
M  V30 43 H -3.055359 -1.643244 3.227852 0
M  V30 END ATOM
M  V30 BEGIN BOND
M  V30 1 1 1 2
M  V30 2 1 2 3
M  V30 3 2 3 4
M  V30 4 1 3 5
M  V30 5 2 5 6
M  V30 6 1 6 7
M  V30 7 1 6 8
M  V30 8 1 8 9
M  V30 9 1 9 10
M  V30 10 2 9 11
M  V30 11 1 11 12
M  V30 12 2 12 13
M  V30 13 1 12 14
M  V30 14 1 14 15
M  V30 15 1 11 16
M  V30 16 1 16 17
M  V30 17 2 17 18
M  V30 18 1 18 19
M  V30 19 2 19 20
M  V30 20 1 20 21
M  V30 21 2 21 22
M  V30 22 1 22 23
M  V30 23 2 23 24
M  V30 24 1 23 25
M  V30 25 1 16 5
M  V30 26 1 22 17
M  V30 27 1 1 26
M  V30 28 1 1 27
M  V30 29 1 1 28
M  V30 30 1 7 29
M  V30 31 1 7 30
M  V30 32 1 7 31
M  V30 33 1 8 32
M  V30 34 1 10 33
M  V30 35 1 10 34
M  V30 36 1 10 35
M  V30 37 1 15 36
M  V30 38 1 15 37
M  V30 39 1 15 38
M  V30 40 1 16 39
M  V30 41 1 18 40
M  V30 42 1 19 41
M  V30 43 1 20 42
M  V30 44 1 21 43
M  V30 END BOND
M  V30 END CTAB
M  END
>  <Dataset>  (325) 
ChEMBL_Kinases

>  <Ligand_Instance>  (325) 
nan

>  <PDB_ID>  (325) 
nan

>  <Standardized_SMILES>  (325) 
COC(=O)C1=C(C)NC(C)=C(C(=O)OC)C1c1ccccc1[N+](=O)[O-]

>  <Name>  (325) 
NIFEDIPINE

>  <Pocket>  (325) 
nan

>  <ATP_Site>  (325) 
nan

>  <Peripheral>  (325) 
nan

>  <Num_H_Atoms_ProtBoundConf>  (325) 
nan

>  <Num_Resolved_Atoms>  (325) 
nan

>  <Num_Not_Resolved_Atoms>  (325) 
nan

$$$$
CHEMBL1928706
     RDKit          3D

  0  0  0  0  0  0  0  0  0  0999 V3000
M  V30 BEGIN CTAB
M  V30 COUNTS 46 48 0 0 0
M  V30 BEGIN ATOM
M  V30 1 C 2.415487 -3.994230 1.608052 0
M  V30 2 C 1.094882 -3.220681 1.605506 0 CFG=1
M  V30 3 C 0.891517 -2.677519 2.999285 0
M  V30 4 N 1.849430 -1.742432 3.446389 0
M  V30 5 C 1.905316 -0.465476 2.826937 0
M  V30 6 C 2.054972 -1.706282 4.870289 0
M  V30 7 O 1.059152 -2.271700 0.617970 0
M  V30 8 C 0.509592 -2.317802 -0.599345 0
M  V30 9 N 0.652405 -1.084614 -1.165377 0
M  V30 10 C 0.192808 -0.813900 -2.406277 0
M  V30 11 N 0.356243 0.499396 -2.981538 0
M  V30 12 C -0.632401 1.192948 -2.189949 0
M  V30 13 C -0.030211 1.658120 -1.003005 0
M  V30 14 C -0.721748 2.361965 -0.034192 0
M  V30 15 C -0.170285 2.834207 1.140536 0
M  V30 16 C -0.928172 3.525766 2.052857 0
M  V30 17 C -2.281169 3.761677 1.798747 0
M  V30 18 C -2.832039 3.280958 0.607874 0
M  V30 19 Cl -4.523343 3.603970 0.314128 0
M  V30 20 C -2.050586 2.576695 -0.315461 0
M  V30 21 C -2.669632 2.128345 -1.480745 0
M  V30 22 N -1.950484 1.447969 -2.391492 0
M  V30 23 C -0.444385 -1.759038 -3.177555 0
M  V30 24 N -0.595310 -2.986096 -2.638201 0
M  V30 25 C -0.120971 -3.203417 -1.398687 0
M  V30 26 C -0.274458 -4.510979 -0.894008 0
M  V30 27 N -0.391673 -5.600062 -0.493140 0
M  V30 28 H 3.237782 -3.332354 1.270762 0
M  V30 29 H 2.375283 -4.828015 0.879506 0
M  V30 30 H 2.538526 -4.422395 2.610928 0
M  V30 31 H 0.319009 -3.985512 1.436791 0
M  V30 32 H -0.130668 -2.224413 3.026179 0
M  V30 33 H 0.856337 -3.538022 3.691898 0
M  V30 34 H 2.774660 0.095506 3.266326 0
M  V30 35 H 0.997054 0.118413 3.107638 0
M  V30 36 H 2.004170 -0.452260 1.751385 0
M  V30 37 H 2.931104 -2.339113 5.105304 0
M  V30 38 H 1.146095 -1.980467 5.426943 0
M  V30 39 H 2.373441 -0.648143 5.115770 0
M  V30 40 H 0.912261 0.987573 -3.700251 0
M  V30 41 H 1.009523 1.514797 -0.727194 0
M  V30 42 H 0.892913 2.627660 1.301394 0
M  V30 43 H -0.365779 3.841929 2.943724 0
M  V30 44 H -2.813815 4.309899 2.558048 0
M  V30 45 H -3.704500 2.280603 -1.728847 0
M  V30 46 H -0.830037 -1.589941 -4.168000 0
M  V30 END ATOM
M  V30 BEGIN BOND
M  V30 1 1 1 2
M  V30 2 1 2 3
M  V30 3 1 3 4
M  V30 4 1 4 5
M  V30 5 1 4 6
M  V30 6 1 2 7
M  V30 7 1 7 8
M  V30 8 2 8 9
M  V30 9 1 9 10
M  V30 10 1 10 11
M  V30 11 1 11 12
M  V30 12 2 12 13
M  V30 13 1 13 14
M  V30 14 2 14 15
M  V30 15 1 15 16
M  V30 16 2 16 17
M  V30 17 1 17 18
M  V30 18 1 18 19
M  V30 19 2 18 20
M  V30 20 1 20 21
M  V30 21 2 21 22
M  V30 22 2 10 23
M  V30 23 1 23 24
M  V30 24 2 24 25
M  V30 25 1 25 26
M  V30 26 3 26 27
M  V30 27 1 25 8
M  V30 28 1 22 12
M  V30 29 1 20 14
M  V30 30 1 1 28
M  V30 31 1 1 29
M  V30 32 1 1 30
M  V30 33 1 2 31 CFG=3
M  V30 34 1 3 32
M  V30 35 1 3 33
M  V30 36 1 5 34
M  V30 37 1 5 35
M  V30 38 1 5 36
M  V30 39 1 6 37
M  V30 40 1 6 38
M  V30 41 1 6 39
M  V30 42 1 11 40
M  V30 43 1 13 41
M  V30 44 1 15 42
M  V30 45 1 16 43
M  V30 46 1 17 44
M  V30 47 1 21 45
M  V30 48 1 23 46
M  V30 END BOND
M  V30 END CTAB
M  END
>  <Dataset>  (326) 
ChEMBL_Kinases

>  <Ligand_Instance>  (326) 
nan

>  <PDB_ID>  (326) 
nan

>  <Standardized_SMILES>  (326) 
C[C@@H](CN(C)C)Oc1nc(Nc2cc3cccc(Cl)c3cn2)cnc1C#N

>  <Name>  (326) 
nan

>  <Pocket>  (326) 
nan

>  <ATP_Site>  (326) 
nan

>  <Peripheral>  (326) 
nan

>  <Num_H_Atoms_ProtBoundConf>  (326) 
nan

>  <Num_Resolved_Atoms>  (326) 
nan

>  <Num_Not_Resolved_Atoms>  (326) 
nan

$$$$
CHEMBL191875
     RDKit          3D

  0  0  0  0  0  0  0  0  0  0999 V3000
M  V30 BEGIN CTAB
M  V30 COUNTS 44 47 0 0 0
M  V30 BEGIN ATOM
M  V30 1 C 0.814947 -5.652827 0.388228 0
M  V30 2 N 1.115967 -4.231495 0.466927 0
M  V30 3 C 2.158607 -4.013817 1.419158 0
M  V30 4 C 2.285276 -2.576383 1.840773 0
M  V30 5 C 1.026706 -1.998161 2.375869 0
M  V30 6 C 0.616467 -0.745668 1.668796 0
M  V30 7 C 0.738862 -0.340811 0.357312 0
M  V30 8 C 0.191932 0.911933 0.174403 0
M  V30 9 C 0.159603 1.628308 -1.088446 0
M  V30 10 C -0.879890 2.051448 -1.887626 0
M  V30 11 C -0.600208 2.724474 -3.056057 0
M  V30 12 N 0.659692 2.981671 -3.441423 0
M  V30 13 C 1.728964 2.588212 -2.693199 0
M  V30 14 C 1.469388 1.902901 -1.501985 0
M  V30 15 C -0.275506 1.272908 1.420139 0
M  V30 16 C -0.949909 2.518370 1.763867 0
M  V30 17 C -0.362725 3.466980 2.511001 0
M  V30 18 C -0.964156 4.621113 2.846716 0
M  V30 19 S -2.579734 4.569221 2.115919 0
M  V30 20 C -2.284934 2.859335 1.359070 0
M  V30 21 N -0.018127 0.283542 2.296355 0
M  V30 22 C -0.082521 -3.014317 2.235078 0
M  V30 23 C -0.097814 -3.547184 0.829517 0
M  V30 24 H 0.578193 -6.018596 1.429828 0
M  V30 25 H 1.597867 -6.251398 -0.085089 0
M  V30 26 H -0.133722 -5.794192 -0.184983 0
M  V30 27 H 3.146876 -4.291805 0.972591 0
M  V30 28 H 2.021794 -4.710866 2.264790 0
M  V30 29 H 2.726722 -1.997641 1.002179 0
M  V30 30 H 3.051042 -2.560792 2.662595 0
M  V30 31 H 1.102272 -1.771655 3.487507 0
M  V30 32 H 1.202380 -0.913561 -0.420274 0
M  V30 33 H -1.830774 1.778578 -1.462524 0
M  V30 34 H -1.491834 3.006409 -3.597651 0
M  V30 35 H 2.702906 2.828091 -3.063218 0
M  V30 36 H 2.401704 1.644383 -0.998752 0
M  V30 37 H 0.634297 3.432198 2.927170 0
M  V30 38 H -0.773418 5.526241 3.398738 0
M  V30 39 H -2.858500 2.006427 0.671397 0
M  V30 40 H -0.271316 0.301396 3.323310 0
M  V30 41 H -1.044685 -2.429502 2.339621 0
M  V30 42 H -0.022185 -3.812534 2.999152 0
M  V30 43 H -0.225154 -2.688279 0.141154 0
M  V30 44 H -0.987466 -4.213475 0.669653 0
M  V30 END ATOM
M  V30 BEGIN BOND
M  V30 1 1 1 2
M  V30 2 1 2 3
M  V30 3 1 3 4
M  V30 4 1 4 5
M  V30 5 1 5 6
M  V30 6 2 6 7
M  V30 7 1 7 8
M  V30 8 1 8 9
M  V30 9 2 9 10
M  V30 10 1 10 11
M  V30 11 2 11 12
M  V30 12 1 12 13
M  V30 13 2 13 14
M  V30 14 2 8 15
M  V30 15 1 15 16
M  V30 16 1 16 17
M  V30 17 2 17 18
M  V30 18 1 18 19
M  V30 19 1 19 20
M  V30 20 1 15 21
M  V30 21 1 5 22
M  V30 22 1 22 23
M  V30 23 1 23 2
M  V30 24 1 21 6
M  V30 25 1 14 9
M  V30 26 2 20 16
M  V30 27 1 1 24
M  V30 28 1 1 25
M  V30 29 1 1 26
M  V30 30 1 3 27
M  V30 31 1 3 28
M  V30 32 1 4 29
M  V30 33 1 4 30
M  V30 34 1 5 31
M  V30 35 1 7 32
M  V30 36 1 10 33
M  V30 37 1 11 34
M  V30 38 1 13 35
M  V30 39 1 14 36
M  V30 40 1 17 37
M  V30 41 1 18 38
M  V30 42 1 20 39
M  V30 43 1 21 40
M  V30 44 1 22 41
M  V30 45 1 22 42
M  V30 46 1 23 43
M  V30 47 1 23 44
M  V30 END BOND
M  V30 END CTAB
M  END
>  <Dataset>  (327) 
ChEMBL_Kinases

>  <Ligand_Instance>  (327) 
nan

>  <PDB_ID>  (327) 
nan

>  <Standardized_SMILES>  (327) 
CN1CCC(c2cc(-c3ccncc3)c(-c3ccsc3)[nH]2)CC1

>  <Name>  (327) 
nan

>  <Pocket>  (327) 
nan

>  <ATP_Site>  (327) 
nan

>  <Peripheral>  (327) 
nan

>  <Num_H_Atoms_ProtBoundConf>  (327) 
nan

>  <Num_Resolved_Atoms>  (327) 
nan

>  <Num_Not_Resolved_Atoms>  (327) 
nan

$$$$
CHEMBL1928672
     RDKit          3D

  0  0  0  0  0  0  0  0  0  0999 V3000
M  V30 BEGIN CTAB
M  V30 COUNTS 43 46 0 0 0
M  V30 BEGIN ATOM
M  V30 1 N -1.149712 -4.358505 3.278930 0
M  V30 2 C -0.165103 -3.887377 2.852544 0
M  V30 3 C 1.056676 -3.314790 2.347441 0
M  V30 4 C 2.247753 -3.364279 3.039095 0
M  V30 5 C 3.370761 -2.789747 2.480860 0
M  V30 6 C 3.263014 -2.193211 1.264822 0
M  V30 7 C 2.071806 -2.121236 0.529460 0
M  V30 8 C 2.235000 -1.451458 -0.753333 0
M  V30 9 C 3.204846 -1.875402 -1.671820 0
M  V30 10 N 3.085416 -1.091262 -2.769230 0
M  V30 11 C 2.112362 -0.179218 -2.651170 0
M  V30 12 N 1.570472 0.800085 -3.366383 0
M  V30 13 C 0.542765 1.527501 -2.849222 0
M  V30 14 N 0.023098 1.304209 -1.606010 0
M  V30 15 C 0.562427 0.306560 -0.855519 0
M  V30 16 N -0.062850 0.231638 0.416000 0
M  V30 17 C 0.676569 0.564221 1.648147 0
M  V30 18 C -0.010778 1.857803 2.094657 0
M  V30 19 O -1.335083 1.739982 2.343803 0
M  V30 20 C -2.112370 0.960574 1.563504 0
M  V30 21 C -3.232175 0.375394 2.409499 0
M  V30 22 N -4.044853 1.436298 2.986666 0
M  V30 23 C -1.424508 -0.130118 0.804918 0
M  V30 24 C 1.597572 -0.416259 -1.397013 0
M  V30 25 C 0.946013 -2.711521 1.116712 0
M  V30 26 H 2.195283 -3.865273 3.989033 0
M  V30 27 H 4.283499 -2.849112 3.052537 0
M  V30 28 H 4.215778 -1.767790 0.912024 0
M  V30 29 H 3.921820 -2.672815 -1.550418 0
M  V30 30 H 3.694382 -1.190867 -3.622510 0
M  V30 31 H 0.197457 2.296156 -3.546094 0
M  V30 32 H 0.529302 -0.168735 2.438442 0
M  V30 33 H 1.722024 0.814104 1.429302 0
M  V30 34 H 0.508802 2.245521 3.014570 0
M  V30 35 H 0.125061 2.665274 1.345324 0
M  V30 36 H -2.613337 1.611565 0.809566 0
M  V30 37 H -2.835235 -0.275765 3.219183 0
M  V30 38 H -3.927827 -0.262151 1.816837 0
M  V30 39 H -3.756297 1.588586 3.984483 0
M  V30 40 H -4.028376 2.300058 2.416926 0
M  V30 41 H -1.338773 -0.987164 1.500899 0
M  V30 42 H -2.033407 -0.475008 -0.054530 0
M  V30 43 H 0.085689 -2.605847 0.475859 0
M  V30 END ATOM
M  V30 BEGIN BOND
M  V30 1 3 1 2
M  V30 2 1 2 3
M  V30 3 2 3 4
M  V30 4 1 4 5
M  V30 5 2 5 6
M  V30 6 1 6 7
M  V30 7 1 7 8
M  V30 8 2 8 9
M  V30 9 1 9 10
M  V30 10 1 10 11
M  V30 11 2 11 12
M  V30 12 1 12 13
M  V30 13 2 13 14
M  V30 14 1 14 15
M  V30 15 1 15 16
M  V30 16 1 16 17
M  V30 17 1 17 18
M  V30 18 1 18 19
M  V30 19 1 19 20
M  V30 20 1 20 21
M  V30 21 1 21 22
M  V30 22 1 20 23
M  V30 23 2 15 24
M  V30 24 2 7 25
M  V30 25 1 25 3
M  V30 26 1 24 8
M  V30 27 1 24 11
M  V30 28 1 23 16
M  V30 29 1 4 26
M  V30 30 1 5 27
M  V30 31 1 6 28
M  V30 32 1 9 29
M  V30 33 1 10 30
M  V30 34 1 13 31
M  V30 35 1 17 32
M  V30 36 1 17 33
M  V30 37 1 18 34
M  V30 38 1 18 35
M  V30 39 1 20 36
M  V30 40 1 21 37
M  V30 41 1 21 38
M  V30 42 1 22 39
M  V30 43 1 22 40
M  V30 44 1 23 41
M  V30 45 1 23 42
M  V30 46 1 25 43
M  V30 END BOND
M  V30 END CTAB
M  END
>  <Dataset>  (328) 
ChEMBL_Kinases

>  <Ligand_Instance>  (328) 
nan

>  <PDB_ID>  (328) 
nan

>  <Standardized_SMILES>  (328) 
N#Cc1cccc(-c2c[nH]c3ncnc(N4CCOC(CN)C4)c23)c1

>  <Name>  (328) 
nan

>  <Pocket>  (328) 
nan

>  <ATP_Site>  (328) 
nan

>  <Peripheral>  (328) 
nan

>  <Num_H_Atoms_ProtBoundConf>  (328) 
nan

>  <Num_Resolved_Atoms>  (328) 
nan

>  <Num_Not_Resolved_Atoms>  (328) 
nan

$$$$
CHEMBL1928684
     RDKit          3D

  0  0  0  0  0  0  0  0  0  0999 V3000
M  V30 BEGIN CTAB
M  V30 COUNTS 40 42 0 0 0
M  V30 BEGIN ATOM
M  V30 1 N -2.392908 -4.042733 3.070257 0
M  V30 2 C -0.973769 -3.991534 3.142413 0
M  V30 3 C -0.344912 -2.968063 2.220408 0
M  V30 4 C 1.147773 -3.084511 2.447506 0
M  V30 5 C 1.905534 -1.945724 1.855092 0
M  V30 6 N 0.942033 -1.096813 1.142177 0
M  V30 7 C 0.984203 -0.936315 -0.272762 0
M  V30 8 C 0.740427 0.282368 -0.861565 0
M  V30 9 C 0.725290 0.592713 -2.211262 0
M  V30 10 N 0.492644 1.886512 -2.741655 0
M  V30 11 C 0.309182 2.895760 -1.728996 0
M  V30 12 C -0.785619 3.558155 -1.223017 0
M  V30 13 N -0.580120 4.451796 -0.241336 0
M  V30 14 C 0.645762 4.712859 0.253048 0
M  V30 15 C 1.758208 4.043178 -0.255727 0
M  V30 16 N 1.560573 3.146811 -1.239662 0
M  V30 17 N 0.989360 -0.489193 -3.000071 0
M  V30 18 C 1.232474 -1.697825 -2.481412 0
M  V30 19 N 1.236091 -1.937535 -1.154001 0
M  V30 20 C -0.057567 -0.462729 2.005453 0
M  V30 21 C -0.866994 -1.599663 2.590618 0
M  V30 22 H -2.875705 -3.701858 3.922016 0
M  V30 23 H -2.828048 -3.645167 2.234934 0
M  V30 24 H -0.720817 -3.636973 4.184489 0
M  V30 25 H -0.459430 -4.957917 3.015487 0
M  V30 26 H -0.612810 -3.240018 1.179262 0
M  V30 27 H 1.498455 -4.012449 1.902883 0
M  V30 28 H 1.353616 -3.281965 3.521560 0
M  V30 29 H 2.241182 -1.287979 2.712797 0
M  V30 30 H 2.781530 -2.204318 1.267664 0
M  V30 31 H 0.536551 1.109610 -0.179509 0
M  V30 32 H 0.483974 1.938516 -3.785330 0
M  V30 33 H -1.666351 3.217848 -1.737838 0
M  V30 34 H 0.727552 5.446853 1.040461 0
M  V30 35 H 2.712930 4.311565 0.200027 0
M  V30 36 H 1.438886 -2.523156 -3.181107 0
M  V30 37 H -0.678199 0.247862 1.462479 0
M  V30 38 H 0.493563 0.074381 2.796152 0
M  V30 39 H -1.011607 -1.489164 3.691577 0
M  V30 40 H -1.879456 -1.531631 2.142317 0
M  V30 END ATOM
M  V30 BEGIN BOND
M  V30 1 1 1 2
M  V30 2 1 2 3
M  V30 3 1 3 4
M  V30 4 1 4 5
M  V30 5 1 5 6
M  V30 6 1 6 7
M  V30 7 2 7 8
M  V30 8 1 8 9
M  V30 9 1 9 10
M  V30 10 1 10 11
M  V30 11 2 11 12
M  V30 12 1 12 13
M  V30 13 2 13 14
M  V30 14 1 14 15
M  V30 15 2 15 16
M  V30 16 2 9 17
M  V30 17 1 17 18
M  V30 18 2 18 19
M  V30 19 1 6 20
M  V30 20 1 20 21
M  V30 21 1 21 3
M  V30 22 1 19 7
M  V30 23 1 16 11
M  V30 24 1 1 22
M  V30 25 1 1 23
M  V30 26 1 2 24
M  V30 27 1 2 25
M  V30 28 1 3 26
M  V30 29 1 4 27
M  V30 30 1 4 28
M  V30 31 1 5 29
M  V30 32 1 5 30
M  V30 33 1 8 31
M  V30 34 1 10 32
M  V30 35 1 12 33
M  V30 36 1 14 34
M  V30 37 1 15 35
M  V30 38 1 18 36
M  V30 39 1 20 37
M  V30 40 1 20 38
M  V30 41 1 21 39
M  V30 42 1 21 40
M  V30 END BOND
M  V30 END CTAB
M  END
>  <Dataset>  (329) 
ChEMBL_Kinases

>  <Ligand_Instance>  (329) 
nan

>  <PDB_ID>  (329) 
nan

>  <Standardized_SMILES>  (329) 
NCC1CCN(c2cc(Nc3cnccn3)ncn2)CC1

>  <Name>  (329) 
nan

>  <Pocket>  (329) 
nan

>  <ATP_Site>  (329) 
nan

>  <Peripheral>  (329) 
nan

>  <Num_H_Atoms_ProtBoundConf>  (329) 
nan

>  <Num_Resolved_Atoms>  (329) 
nan

>  <Num_Not_Resolved_Atoms>  (329) 
nan

$$$$
CHEMBL1928685
     RDKit          3D

  0  0  0  0  0  0  0  0  0  0999 V3000
M  V30 BEGIN CTAB
M  V30 COUNTS 41 43 0 0 0
M  V30 BEGIN ATOM
M  V30 1 N 2.604066 -5.358335 5.216469 0
M  V30 2 C 1.790180 -5.094031 4.416836 0
M  V30 3 C 0.808740 -4.778827 3.421057 0
M  V30 4 C 1.134226 -4.928115 2.089779 0
M  V30 5 N 0.139724 -4.608363 1.252115 0
M  V30 6 C -1.076786 -4.177075 1.654183 0
M  V30 7 N -1.897158 -3.926959 0.506356 0
M  V30 8 C -1.632447 -2.688424 -0.154838 0
M  V30 9 C -0.667048 -1.801104 0.243514 0
M  V30 10 C -0.384342 -0.606406 -0.379197 0
M  V30 11 N 0.652465 0.118116 0.248883 0
M  V30 12 C 2.051892 0.419169 -0.065080 0
M  V30 13 C 2.071427 1.885594 -0.476479 0
M  V30 14 C 1.466974 2.727302 0.606204 0
M  V30 15 C 0.434301 3.679853 0.028403 0
M  V30 16 N 1.140014 4.509645 -0.930731 0
M  V30 17 C 0.999865 1.971133 1.801293 0
M  V30 18 C 0.211896 0.719534 1.506901 0
M  V30 19 N -1.134959 -0.323647 -1.458978 0
M  V30 20 C -2.094031 -1.158134 -1.891473 0
M  V30 21 N -2.329524 -2.309442 -1.249130 0
M  V30 22 C -1.356263 -4.043392 2.993229 0
M  V30 23 N -0.380280 -4.356335 3.885959 0
M  V30 24 H 2.107961 -5.268864 1.765301 0
M  V30 25 H -2.641764 -4.543714 0.120553 0
M  V30 26 H -0.110183 -2.119623 1.127274 0
M  V30 27 H 2.467602 -0.230409 -0.834160 0
M  V30 28 H 2.652622 0.347250 0.878742 0
M  V30 29 H 1.367928 1.931865 -1.358638 0
M  V30 30 H 3.053818 2.218493 -0.835447 0
M  V30 31 H 2.300272 3.397446 0.965658 0
M  V30 32 H -0.354860 3.102601 -0.501187 0
M  V30 33 H 0.032656 4.247588 0.882272 0
M  V30 34 H 1.698139 5.244022 -0.440433 0
M  V30 35 H 1.760464 3.909704 -1.513132 0
M  V30 36 H 1.810403 1.752926 2.509578 0
M  V30 37 H 0.290274 2.664778 2.348134 0
M  V30 38 H -0.876766 0.890509 1.544676 0
M  V30 39 H 0.443419 -0.025911 2.293994 0
M  V30 40 H -2.620749 -0.803228 -2.769423 0
M  V30 41 H -2.381335 -3.683242 3.106045 0
M  V30 END ATOM
M  V30 BEGIN BOND
M  V30 1 3 1 2
M  V30 2 1 2 3
M  V30 3 2 3 4
M  V30 4 1 4 5
M  V30 5 2 5 6
M  V30 6 1 6 7
M  V30 7 1 7 8
M  V30 8 2 8 9
M  V30 9 1 9 10
M  V30 10 1 10 11
M  V30 11 1 11 12
M  V30 12 1 12 13
M  V30 13 1 13 14
M  V30 14 1 14 15
M  V30 15 1 15 16
M  V30 16 1 14 17
M  V30 17 1 17 18
M  V30 18 2 10 19
M  V30 19 1 19 20
M  V30 20 2 20 21
M  V30 21 1 6 22
M  V30 22 2 22 23
M  V30 23 1 23 3
M  V30 24 1 21 8
M  V30 25 1 18 11
M  V30 26 1 4 24
M  V30 27 1 7 25
M  V30 28 1 9 26
M  V30 29 1 12 27
M  V30 30 1 12 28
M  V30 31 1 13 29
M  V30 32 1 13 30
M  V30 33 1 14 31
M  V30 34 1 15 32
M  V30 35 1 15 33
M  V30 36 1 16 34
M  V30 37 1 16 35
M  V30 38 1 17 36
M  V30 39 1 17 37
M  V30 40 1 18 38
M  V30 41 1 18 39
M  V30 42 1 20 40
M  V30 43 1 22 41
M  V30 END BOND
M  V30 END CTAB
M  END
>  <Dataset>  (330) 
ChEMBL_Kinases

>  <Ligand_Instance>  (330) 
nan

>  <PDB_ID>  (330) 
nan

>  <Standardized_SMILES>  (330) 
N#Cc1cnc(Nc2cc(N3CCC(CN)CC3)ncn2)cn1

>  <Name>  (330) 
nan

>  <Pocket>  (330) 
nan

>  <ATP_Site>  (330) 
nan

>  <Peripheral>  (330) 
nan

>  <Num_H_Atoms_ProtBoundConf>  (330) 
nan

>  <Num_Resolved_Atoms>  (330) 
nan

>  <Num_Not_Resolved_Atoms>  (330) 
nan

$$$$
CHEMBL1928686
     RDKit          3D

  0  0  0  0  0  0  0  0  0  0999 V3000
M  V30 BEGIN CTAB
M  V30 COUNTS 38 40 0 0 0
M  V30 BEGIN ATOM
M  V30 1 N 0.104385 -3.889680 7.399760 0
M  V30 2 C 0.554490 -3.482211 6.417316 0
M  V30 3 C 1.102090 -2.978340 5.166088 0
M  V30 4 C 2.268914 -3.476827 4.628732 0
M  V30 5 N 2.725884 -2.958002 3.464543 0
M  V30 6 C 2.010087 -1.962737 2.873362 0
M  V30 7 N 2.648971 -1.552004 1.648081 0
M  V30 8 C 1.626711 -1.975607 0.719684 0
M  V30 9 C 0.953621 -0.958854 0.050681 0
M  V30 10 C -0.075612 -1.217404 -0.847901 0
M  V30 11 N -0.619564 -0.024491 -1.447026 0
M  V30 12 C -1.984407 0.375246 -1.539813 0
M  V30 13 C -2.211550 1.834360 -1.233800 0
M  V30 14 C -0.981718 2.588213 -0.806691 0
M  V30 15 N -0.687768 2.473619 0.610451 0
M  V30 16 C 0.239610 2.279416 -1.641142 0
M  V30 17 C 0.348626 0.855189 -2.042959 0
M  V30 18 N -0.426820 -2.480403 -1.075079 0
M  V30 19 C 0.230175 -3.456456 -0.425554 0
M  V30 20 N 1.239004 -3.240772 0.457925 0
M  V30 21 C 0.841593 -1.456652 3.400195 0
M  V30 22 N 0.390698 -1.990453 4.576978 0
M  V30 23 H 2.729253 -4.272756 5.212557 0
M  V30 24 H 3.543664 -1.081941 1.381568 0
M  V30 25 H 1.265112 0.074634 0.258997 0
M  V30 26 H -2.367231 0.093349 -2.542131 0
M  V30 27 H -2.583751 -0.240202 -0.804933 0
M  V30 28 H -2.944601 1.933317 -0.408607 0
M  V30 29 H -2.608259 2.313785 -2.141031 0
M  V30 30 H -1.205497 3.664756 -0.984892 0
M  V30 31 H -1.164910 3.225209 1.156601 0
M  V30 32 H -0.825464 1.544349 1.010578 0
M  V30 33 H 0.275265 2.925470 -2.542095 0
M  V30 34 H 1.116355 2.593069 -1.019220 0
M  V30 35 H 0.180032 0.760079 -3.159828 0
M  V30 36 H 1.386696 0.512272 -1.901175 0
M  V30 37 H -0.029810 -4.497712 -0.584360 0
M  V30 38 H 0.410447 -0.673963 2.796320 0
M  V30 END ATOM
M  V30 BEGIN BOND
M  V30 1 3 1 2
M  V30 2 1 2 3
M  V30 3 2 3 4
M  V30 4 1 4 5
M  V30 5 2 5 6
M  V30 6 1 6 7
M  V30 7 1 7 8
M  V30 8 2 8 9
M  V30 9 1 9 10
M  V30 10 1 10 11
M  V30 11 1 11 12
M  V30 12 1 12 13
M  V30 13 1 13 14
M  V30 14 1 14 15
M  V30 15 1 14 16
M  V30 16 1 16 17
M  V30 17 2 10 18
M  V30 18 1 18 19
M  V30 19 2 19 20
M  V30 20 1 6 21
M  V30 21 2 21 22
M  V30 22 1 22 3
M  V30 23 1 20 8
M  V30 24 1 17 11
M  V30 25 1 4 23
M  V30 26 1 7 24
M  V30 27 1 9 25
M  V30 28 1 12 26
M  V30 29 1 12 27
M  V30 30 1 13 28
M  V30 31 1 13 29
M  V30 32 1 14 30
M  V30 33 1 15 31
M  V30 34 1 15 32
M  V30 35 1 16 33
M  V30 36 1 16 34
M  V30 37 1 17 35
M  V30 38 1 17 36
M  V30 39 1 19 37
M  V30 40 1 21 38
M  V30 END BOND
M  V30 END CTAB
M  END
>  <Dataset>  (331) 
ChEMBL_Kinases

>  <Ligand_Instance>  (331) 
nan

>  <PDB_ID>  (331) 
nan

>  <Standardized_SMILES>  (331) 
N#Cc1cnc(Nc2cc(N3CCC(N)CC3)ncn2)cn1

>  <Name>  (331) 
nan

>  <Pocket>  (331) 
nan

>  <ATP_Site>  (331) 
nan

>  <Peripheral>  (331) 
nan

>  <Num_H_Atoms_ProtBoundConf>  (331) 
nan

>  <Num_Resolved_Atoms>  (331) 
nan

>  <Num_Not_Resolved_Atoms>  (331) 
nan

$$$$
CHEMBL1928687
     RDKit          3D

  0  0  0  0  0  0  0  0  0  0999 V3000
M  V30 BEGIN CTAB
M  V30 COUNTS 31 32 0 0 0
M  V30 BEGIN ATOM
M  V30 1 N -0.110474 -5.994311 3.190150 0
M  V30 2 C 0.242926 -4.906035 3.091603 0
M  V30 3 C 0.697644 -3.551880 2.982040 0
M  V30 4 C -0.197663 -2.514685 3.112857 0
M  V30 5 N 0.225703 -1.245716 3.008474 0
M  V30 6 C 1.528771 -0.950142 2.776023 0
M  V30 7 N 1.737567 0.454766 2.704058 0
M  V30 8 C 1.123268 1.210385 1.652587 0
M  V30 9 C 0.280070 0.670437 0.709872 0
M  V30 10 C -0.311099 1.389616 -0.310040 0
M  V30 11 N -1.180057 0.888649 -1.278856 0
M  V30 12 C -1.831596 -0.272276 -1.730962 0
M  V30 13 C -0.980396 -1.375932 -2.296749 0
M  V30 14 N -0.039545 -1.956679 -1.379734 0
M  V30 15 N 0.021146 2.684922 -0.293027 0
M  V30 16 C 0.829750 3.279194 0.586941 0
M  V30 17 N 1.366921 2.516012 1.549070 0
M  V30 18 C 2.403463 -2.013246 2.649767 0
M  V30 19 N 1.994409 -3.273665 2.749856 0
M  V30 20 H -1.267818 -2.701430 3.298353 0
M  V30 21 H 2.323865 0.970451 3.395554 0
M  V30 22 H 0.082637 -0.368575 0.811490 0
M  V30 23 H -1.485026 1.646152 -1.973016 0
M  V30 24 H -2.648156 -0.080414 -2.450193 0
M  V30 25 H -2.391680 -0.746814 -0.851322 0
M  V30 26 H -1.621025 -2.195937 -2.679593 0
M  V30 27 H -0.413459 -1.004904 -3.210522 0
M  V30 28 H 0.848977 -1.462420 -1.295164 0
M  V30 29 H -0.475706 -2.304241 -0.506818 0
M  V30 30 H 0.970464 4.337648 0.434297 0
M  V30 31 H 3.430754 -1.653245 2.468467 0
M  V30 END ATOM
M  V30 BEGIN BOND
M  V30 1 3 1 2
M  V30 2 1 2 3
M  V30 3 2 3 4
M  V30 4 1 4 5
M  V30 5 2 5 6
M  V30 6 1 6 7
M  V30 7 1 7 8
M  V30 8 2 8 9
M  V30 9 1 9 10
M  V30 10 1 10 11
M  V30 11 1 11 12
M  V30 12 1 12 13
M  V30 13 1 13 14
M  V30 14 2 10 15
M  V30 15 1 15 16
M  V30 16 2 16 17
M  V30 17 1 6 18
M  V30 18 2 18 19
M  V30 19 1 19 3
M  V30 20 1 17 8
M  V30 21 1 4 20
M  V30 22 1 7 21
M  V30 23 1 9 22
M  V30 24 1 11 23
M  V30 25 1 12 24
M  V30 26 1 12 25
M  V30 27 1 13 26
M  V30 28 1 13 27
M  V30 29 1 14 28
M  V30 30 1 14 29
M  V30 31 1 16 30
M  V30 32 1 18 31
M  V30 END BOND
M  V30 END CTAB
M  END
>  <Dataset>  (332) 
ChEMBL_Kinases

>  <Ligand_Instance>  (332) 
nan

>  <PDB_ID>  (332) 
nan

>  <Standardized_SMILES>  (332) 
N#Cc1cnc(Nc2cc(NCCN)ncn2)cn1

>  <Name>  (332) 
nan

>  <Pocket>  (332) 
nan

>  <ATP_Site>  (332) 
nan

>  <Peripheral>  (332) 
nan

>  <Num_H_Atoms_ProtBoundConf>  (332) 
nan

>  <Num_Resolved_Atoms>  (332) 
nan

>  <Num_Not_Resolved_Atoms>  (332) 
nan

$$$$
CHEMBL1928688
     RDKit          3D

  0  0  0  0  0  0  0  0  0  0999 V3000
M  V30 BEGIN CTAB
M  V30 COUNTS 34 35 0 0 0
M  V30 BEGIN ATOM
M  V30 1 N 1.385675 -3.251312 5.689670 0
M  V30 2 C 1.716461 -2.684552 4.718403 0
M  V30 3 C 2.106949 -1.998477 3.510093 0
M  V30 4 C 1.775880 -0.659512 3.467717 0
M  V30 5 N 2.142341 -0.006284 2.327511 0
M  V30 6 C 2.785183 -0.673394 1.334649 0
M  V30 7 N 3.048450 0.252327 0.260132 0
M  V30 8 C 2.011833 0.325579 -0.712365 0
M  V30 9 C 0.867052 -0.434644 -0.616422 0
M  V30 10 C -0.174719 -0.414958 -1.517767 0
M  V30 11 N -1.336762 -1.190688 -1.398388 0
M  V30 12 C -2.696776 -1.237234 -0.929428 0
M  V30 13 C -2.867526 -1.014779 0.533142 0
M  V30 14 C -2.393383 0.300303 1.049473 0
M  V30 15 N -3.072820 1.424394 0.431456 0
M  V30 16 N -0.088712 0.401810 -2.580964 0
M  V30 17 C 1.022315 1.153551 -2.693271 0
M  V30 18 N 2.022206 1.110058 -1.794002 0
M  V30 19 C 3.092047 -2.010746 1.427407 0
M  V30 20 N 2.740141 -2.669993 2.540339 0
M  V30 21 H 1.262160 -0.167164 4.283322 0
M  V30 22 H 3.889431 0.855995 0.121971 0
M  V30 23 H 0.721076 -1.123218 0.218794 0
M  V30 24 H -0.939106 -2.056005 -1.866804 0
M  V30 25 H -3.141785 -2.228587 -1.193434 0
M  V30 26 H -3.325567 -0.504265 -1.488596 0
M  V30 27 H -2.428544 -1.832589 1.149976 0
M  V30 28 H -3.975547 -1.060760 0.740220 0
M  V30 29 H -2.678625 0.367320 2.142663 0
M  V30 30 H -1.316029 0.474632 1.007779 0
M  V30 31 H -4.081170 1.224660 0.258786 0
M  V30 32 H -2.923219 2.294600 0.985542 0
M  V30 33 H 1.247280 1.867973 -3.498276 0
M  V30 34 H 3.602206 -2.377529 0.548914 0
M  V30 END ATOM
M  V30 BEGIN BOND
M  V30 1 3 1 2
M  V30 2 1 2 3
M  V30 3 2 3 4
M  V30 4 1 4 5
M  V30 5 2 5 6
M  V30 6 1 6 7
M  V30 7 1 7 8
M  V30 8 2 8 9
M  V30 9 1 9 10
M  V30 10 1 10 11
M  V30 11 1 11 12
M  V30 12 1 12 13
M  V30 13 1 13 14
M  V30 14 1 14 15
M  V30 15 2 10 16
M  V30 16 1 16 17
M  V30 17 2 17 18
M  V30 18 1 6 19
M  V30 19 2 19 20
M  V30 20 1 20 3
M  V30 21 1 18 8
M  V30 22 1 4 21
M  V30 23 1 7 22
M  V30 24 1 9 23
M  V30 25 1 11 24
M  V30 26 1 12 25
M  V30 27 1 12 26
M  V30 28 1 13 27
M  V30 29 1 13 28
M  V30 30 1 14 29
M  V30 31 1 14 30
M  V30 32 1 15 31
M  V30 33 1 15 32
M  V30 34 1 17 33
M  V30 35 1 19 34
M  V30 END BOND
M  V30 END CTAB
M  END
>  <Dataset>  (333) 
ChEMBL_Kinases

>  <Ligand_Instance>  (333) 
nan

>  <PDB_ID>  (333) 
nan

>  <Standardized_SMILES>  (333) 
N#Cc1cnc(Nc2cc(NCCCN)ncn2)cn1

>  <Name>  (333) 
nan

>  <Pocket>  (333) 
nan

>  <ATP_Site>  (333) 
nan

>  <Peripheral>  (333) 
nan

>  <Num_H_Atoms_ProtBoundConf>  (333) 
nan

>  <Num_Resolved_Atoms>  (333) 
nan

>  <Num_Not_Resolved_Atoms>  (333) 
nan

$$$$
CHEMBL1928690
     RDKit          3D

  0  0  0  0  0  0  0  0  0  0999 V3000
M  V30 BEGIN CTAB
M  V30 COUNTS 33 34 0 0 0
M  V30 BEGIN ATOM
M  V30 1 N -1.518452 -3.988905 6.468968 0
M  V30 2 C -0.890450 -3.540269 5.592743 0
M  V30 3 C -0.135464 -2.995173 4.524507 0
M  V30 4 C 1.122512 -2.563563 4.816018 0
M  V30 5 N 1.893031 -2.038244 3.860921 0
M  V30 6 C 1.539980 -1.882201 2.574735 0
M  V30 7 N 2.351844 -1.357518 1.551806 0
M  V30 8 C 2.230502 -0.906316 0.251543 0
M  V30 9 C 1.119133 -0.577552 -0.483819 0
M  V30 10 C 1.071700 -0.170748 -1.793992 0
M  V30 11 N -0.086515 0.168838 -2.510393 0
M  V30 12 C -1.452631 0.281946 -2.053972 0
M  V30 13 C -1.553437 1.462232 -1.140564 0
M  V30 14 C -2.955609 1.660433 -0.603223 0
M  V30 15 O -3.891830 1.866820 -1.597927 0
M  V30 16 N 2.277254 -0.103243 -2.375664 0
M  V30 17 C 3.418502 -0.401286 -1.746453 0
M  V30 18 N 3.375945 -0.790040 -0.468299 0
M  V30 19 C 0.262083 -2.335798 2.340623 0
M  V30 20 N -0.586251 -2.881321 3.251480 0
M  V30 21 H 1.609950 -2.593838 5.784814 0
M  V30 22 H 3.341568 -1.317058 1.960709 0
M  V30 23 H 0.169852 -0.633115 0.017950 0
M  V30 24 H 0.035053 0.377748 -3.540302 0
M  V30 25 H -1.600250 -0.626771 -1.389366 0
M  V30 26 H -2.172478 0.286922 -2.870825 0
M  V30 27 H -0.866624 1.440659 -0.282630 0
M  V30 28 H -1.284795 2.400145 -1.696540 0
M  V30 29 H -3.284177 0.795392 0.007880 0
M  V30 30 H -2.957338 2.588066 0.029261 0
M  V30 31 H -4.748894 2.055928 -1.151624 0
M  V30 32 H 4.357748 -0.321489 -2.286938 0
M  V30 33 H -0.250482 -2.342751 1.393681 0
M  V30 END ATOM
M  V30 BEGIN BOND
M  V30 1 3 1 2
M  V30 2 1 2 3
M  V30 3 2 3 4
M  V30 4 1 4 5
M  V30 5 2 5 6
M  V30 6 1 6 7
M  V30 7 1 7 8
M  V30 8 2 8 9
M  V30 9 1 9 10
M  V30 10 1 10 11
M  V30 11 1 11 12
M  V30 12 1 12 13
M  V30 13 1 13 14
M  V30 14 1 14 15
M  V30 15 2 10 16
M  V30 16 1 16 17
M  V30 17 2 17 18
M  V30 18 1 6 19
M  V30 19 2 19 20
M  V30 20 1 20 3
M  V30 21 1 18 8
M  V30 22 1 4 21
M  V30 23 1 7 22
M  V30 24 1 9 23
M  V30 25 1 11 24
M  V30 26 1 12 25
M  V30 27 1 12 26
M  V30 28 1 13 27
M  V30 29 1 13 28
M  V30 30 1 14 29
M  V30 31 1 14 30
M  V30 32 1 15 31
M  V30 33 1 17 32
M  V30 34 1 19 33
M  V30 END BOND
M  V30 END CTAB
M  END
>  <Dataset>  (334) 
ChEMBL_Kinases

>  <Ligand_Instance>  (334) 
nan

>  <PDB_ID>  (334) 
nan

>  <Standardized_SMILES>  (334) 
N#Cc1cnc(Nc2cc(NCCCO)ncn2)cn1

>  <Name>  (334) 
nan

>  <Pocket>  (334) 
nan

>  <ATP_Site>  (334) 
nan

>  <Peripheral>  (334) 
nan

>  <Num_H_Atoms_ProtBoundConf>  (334) 
nan

>  <Num_Resolved_Atoms>  (334) 
nan

>  <Num_Not_Resolved_Atoms>  (334) 
nan

$$$$
CHEMBL1928705
     RDKit          3D

  0  0  0  0  0  0  0  0  0  0999 V3000
M  V30 BEGIN CTAB
M  V30 COUNTS 46 48 0 0 0
M  V30 BEGIN ATOM
M  V30 1 C 2.090515 -4.084628 1.680159 0
M  V30 2 C 1.159178 -2.918810 1.637471 0 CFG=2
M  V30 3 C 0.982193 -2.219896 2.909005 0
M  V30 4 N 2.228616 -1.869382 3.567252 0
M  V30 5 C 1.933730 -0.788437 4.557644 0
M  V30 6 C 2.780290 -2.983606 4.349532 0
M  V30 7 O -0.058919 -3.263796 0.985464 0
M  V30 8 C -0.469689 -2.730203 -0.206615 0
M  V30 9 N 0.231242 -1.806733 -0.869438 0
M  V30 10 C -0.119862 -1.246581 -2.044260 0
M  V30 11 N 0.818645 -0.283193 -2.512021 0
M  V30 12 C 0.164447 0.855493 -1.962424 0
M  V30 13 C 0.216911 1.387661 -0.692669 0
M  V30 14 C -0.502012 2.515207 -0.367647 0
M  V30 15 C -0.377412 2.955771 0.929215 0
M  V30 16 C -1.093125 4.088853 1.289186 0
M  V30 17 C -1.923875 4.798492 0.414497 0
M  V30 18 C -2.013094 4.307191 -0.889026 0
M  V30 19 Cl -3.002375 5.072034 -2.114080 0
M  V30 20 C -1.314800 3.186008 -1.271801 0
M  V30 21 C -1.332095 2.614059 -2.525998 0
M  V30 22 N -0.634264 1.513318 -2.854433 0
M  V30 23 C -1.326277 -1.690510 -2.590744 0
M  V30 24 N -2.042615 -2.615934 -1.940308 0
M  V30 25 C -1.654850 -3.148135 -0.769977 0
M  V30 26 C -2.471490 -4.140993 -0.128681 0
M  V30 27 N -3.107536 -4.938455 0.392820 0
M  V30 28 H 2.009247 -4.707491 2.573273 0
M  V30 29 H 1.858552 -4.804206 0.829956 0
M  V30 30 H 3.152003 -3.736064 1.552372 0
M  V30 31 H 1.637599 -2.213658 0.869220 0
M  V30 32 H 0.421199 -1.257347 2.845596 0
M  V30 33 H 0.336346 -2.833405 3.623463 0
M  V30 34 H 2.090466 -1.120943 5.579005 0
M  V30 35 H 0.913544 -0.433256 4.381079 0
M  V30 36 H 2.633994 0.028789 4.261104 0
M  V30 37 H 3.595145 -3.433395 3.779959 0
M  V30 38 H 2.046273 -3.717189 4.650147 0
M  V30 39 H 3.276505 -2.498418 5.242138 0
M  V30 40 H 1.717438 -0.329376 -3.079808 0
M  V30 41 H 0.862050 0.826198 -0.033404 0
M  V30 42 H 0.232845 2.485054 1.684737 0
M  V30 43 H -1.086738 4.544862 2.278946 0
M  V30 44 H -2.478459 5.675063 0.691407 0
M  V30 45 H -1.957789 3.105272 -3.283421 0
M  V30 46 H -1.533398 -1.191757 -3.529992 0
M  V30 END ATOM
M  V30 BEGIN BOND
M  V30 1 1 1 2
M  V30 2 1 2 3
M  V30 3 1 3 4
M  V30 4 1 4 5
M  V30 5 1 4 6
M  V30 6 1 2 7
M  V30 7 1 7 8
M  V30 8 2 8 9
M  V30 9 1 9 10
M  V30 10 1 10 11
M  V30 11 1 11 12
M  V30 12 2 12 13
M  V30 13 1 13 14
M  V30 14 2 14 15
M  V30 15 1 15 16
M  V30 16 2 16 17
M  V30 17 1 17 18
M  V30 18 1 18 19
M  V30 19 2 18 20
M  V30 20 1 20 21
M  V30 21 2 21 22
M  V30 22 2 10 23
M  V30 23 1 23 24
M  V30 24 2 24 25
M  V30 25 1 25 26
M  V30 26 3 26 27
M  V30 27 1 25 8
M  V30 28 1 22 12
M  V30 29 1 20 14
M  V30 30 1 1 28
M  V30 31 1 1 29
M  V30 32 1 1 30
M  V30 33 1 2 31 CFG=3
M  V30 34 1 3 32
M  V30 35 1 3 33
M  V30 36 1 5 34
M  V30 37 1 5 35
M  V30 38 1 5 36
M  V30 39 1 6 37
M  V30 40 1 6 38
M  V30 41 1 6 39
M  V30 42 1 11 40
M  V30 43 1 13 41
M  V30 44 1 15 42
M  V30 45 1 16 43
M  V30 46 1 17 44
M  V30 47 1 21 45
M  V30 48 1 23 46
M  V30 END BOND
M  V30 END CTAB
M  END
>  <Dataset>  (335) 
ChEMBL_Kinases

>  <Ligand_Instance>  (335) 
nan

>  <PDB_ID>  (335) 
nan

>  <Standardized_SMILES>  (335) 
C[C@H](CN(C)C)Oc1nc(Nc2cc3cccc(Cl)c3cn2)cnc1C#N

>  <Name>  (335) 
nan

>  <Pocket>  (335) 
nan

>  <ATP_Site>  (335) 
nan

>  <Peripheral>  (335) 
nan

>  <Num_H_Atoms_ProtBoundConf>  (335) 
nan

>  <Num_Resolved_Atoms>  (335) 
nan

>  <Num_Not_Resolved_Atoms>  (335) 
nan

$$$$
CHEMBL1928694
     RDKit          3D

  0  0  0  0  0  0  0  0  0  0999 V3000
M  V30 BEGIN CTAB
M  V30 COUNTS 43 46 0 0 0
M  V30 BEGIN ATOM
M  V30 1 N 0.466789 -7.016199 0.752983 0
M  V30 2 C 1.082863 -6.085111 0.469113 0
M  V30 3 C 1.827283 -4.922026 0.120307 0
M  V30 4 C 1.874334 -4.465088 -1.196357 0
M  V30 5 N 2.549764 -3.380160 -1.610469 0
M  V30 6 C 3.249157 -2.655928 -0.688651 0
M  V30 7 N 4.047284 -1.491742 -0.780169 0
M  V30 8 C 3.468383 -0.207284 -0.606361 0
M  V30 9 C 2.120923 -0.058563 -0.347330 0
M  V30 10 C 1.540519 1.178236 -0.175373 0
M  V30 11 C 2.343556 2.318325 -0.266591 0
M  V30 12 C 3.685572 2.125154 -0.526844 0
M  V30 13 N 4.220072 0.906059 -0.689284 0
M  V30 14 N 1.557719 3.368793 -0.065897 0
M  V30 15 C 0.281055 2.971278 0.151590 0
M  V30 16 N 0.278084 1.623849 0.082627 0
M  V30 17 C -0.791497 0.692244 0.232519 0
M  V30 18 C -1.044935 0.191699 1.606363 0
M  V30 19 C -1.391633 1.199098 2.640088 0
M  V30 20 C -2.075953 0.458491 3.796962 0
M  V30 21 N -3.359123 -0.062105 3.442603 0
M  V30 22 C -3.465847 -0.133814 1.995091 0
M  V30 23 C -2.188090 -0.823222 1.531117 0
M  V30 24 C 3.214829 -3.093075 0.622923 0
M  V30 25 N 2.529136 -4.193687 1.038654 0
M  V30 26 H 1.349981 -4.977036 -1.991636 0
M  V30 27 H 5.060094 -1.566054 -0.973475 0
M  V30 28 H 1.495667 -0.924534 -0.275234 0
M  V30 29 H 4.261562 3.043276 -0.586460 0
M  V30 30 H -0.648853 3.486605 0.351817 0
M  V30 31 H -1.737787 1.205533 -0.112184 0
M  V30 32 H -0.718104 -0.190956 -0.440762 0
M  V30 33 H -0.158261 -0.414550 1.932976 0
M  V30 34 H -2.076753 1.964240 2.279670 0
M  V30 35 H -0.492965 1.667377 3.130019 0
M  V30 36 H -2.228244 1.223711 4.608763 0
M  V30 37 H -1.435298 -0.328444 4.223321 0
M  V30 38 H -4.150425 0.438036 3.899620 0
M  V30 39 H -3.591038 0.838052 1.503993 0
M  V30 40 H -4.313699 -0.778194 1.714786 0
M  V30 41 H -1.997047 -1.720035 2.120885 0
M  V30 42 H -2.365705 -1.131390 0.470270 0
M  V30 43 H 3.701596 -2.660241 1.502810 0
M  V30 END ATOM
M  V30 BEGIN BOND
M  V30 1 3 1 2
M  V30 2 1 2 3
M  V30 3 2 3 4
M  V30 4 1 4 5
M  V30 5 2 5 6
M  V30 6 1 6 7
M  V30 7 1 7 8
M  V30 8 2 8 9
M  V30 9 1 9 10
M  V30 10 2 10 11
M  V30 11 1 11 12
M  V30 12 2 12 13
M  V30 13 1 11 14
M  V30 14 2 14 15
M  V30 15 1 15 16
M  V30 16 1 16 17
M  V30 17 1 17 18
M  V30 18 1 18 19
M  V30 19 1 19 20
M  V30 20 1 20 21
M  V30 21 1 21 22
M  V30 22 1 22 23
M  V30 23 1 6 24
M  V30 24 2 24 25
M  V30 25 1 25 3
M  V30 26 1 13 8
M  V30 27 1 23 18
M  V30 28 1 16 10
M  V30 29 1 4 26
M  V30 30 1 7 27
M  V30 31 1 9 28
M  V30 32 1 12 29
M  V30 33 1 15 30
M  V30 34 1 17 31
M  V30 35 1 17 32
M  V30 36 1 18 33
M  V30 37 1 19 34
M  V30 38 1 19 35
M  V30 39 1 20 36
M  V30 40 1 20 37
M  V30 41 1 21 38
M  V30 42 1 22 39
M  V30 43 1 22 40
M  V30 44 1 23 41
M  V30 45 1 23 42
M  V30 46 1 24 43
M  V30 END BOND
M  V30 END CTAB
M  END
>  <Dataset>  (336) 
ChEMBL_Kinases

>  <Ligand_Instance>  (336) 
nan

>  <PDB_ID>  (336) 
nan

>  <Standardized_SMILES>  (336) 
N#Cc1cnc(Nc2cc3c(cn2)ncn3CC2CCNCC2)cn1

>  <Name>  (336) 
nan

>  <Pocket>  (336) 
nan

>  <ATP_Site>  (336) 
nan

>  <Peripheral>  (336) 
nan

>  <Num_H_Atoms_ProtBoundConf>  (336) 
nan

>  <Num_Resolved_Atoms>  (336) 
nan

>  <Num_Not_Resolved_Atoms>  (336) 
nan

$$$$
CHEMBL1928695
     RDKit          3D

  0  0  0  0  0  0  0  0  0  0999 V3000
M  V30 BEGIN CTAB
M  V30 COUNTS 44 47 0 0 0
M  V30 BEGIN ATOM
M  V30 1 N 0.016083 -5.926920 2.441104 0
M  V30 2 C 0.516311 -4.883178 2.439259 0
M  V30 3 C 1.122018 -3.575060 2.420395 0
M  V30 4 N 2.467595 -3.644394 2.690281 0
M  V30 5 C 3.172495 -2.504143 2.708285 0
M  V30 6 C 2.602043 -1.280755 2.468637 0
M  V30 7 N 3.259096 -0.026608 2.461022 0
M  V30 8 C 2.602243 1.201823 2.210243 0
M  V30 9 C 2.575127 1.494552 0.856040 0
M  V30 10 C 1.976865 2.661377 0.376127 0
M  V30 11 N 1.790631 3.213480 -0.827689 0
M  V30 12 C 1.132155 4.383587 -0.723759 0
M  V30 13 N 0.900640 4.564402 0.598372 0
M  V30 14 C 1.410203 3.519419 1.294948 0
M  V30 15 C 1.457954 3.194365 2.622967 0
M  V30 16 N 2.039781 2.057917 3.097906 0
M  V30 17 N 1.295474 -1.283926 2.214141 0
M  V30 18 C 0.481628 -2.344856 2.166415 0
M  V30 19 O -0.794272 -2.628645 1.948436 0
M  V30 20 C -2.017010 -2.206306 1.663365 0
M  V30 21 C -2.271064 -1.523939 0.350255 0
M  V30 22 C -1.509372 -0.275605 0.130711 0
M  V30 23 C -1.356404 -0.005322 -1.371412 0
M  V30 24 N -0.501615 -1.023565 -1.960138 0
M  V30 25 C -0.756546 -2.352811 -1.459643 0
M  V30 26 C -2.115862 -2.494828 -0.811309 0
M  V30 27 H 4.228714 -2.516031 2.915483 0
M  V30 28 H 4.298585 -0.102026 2.663276 0
M  V30 29 H 2.990219 0.888914 0.053665 0
M  V30 30 H 2.106862 2.802063 -1.715946 0
M  V30 31 H 0.869145 5.010237 -1.572479 0
M  V30 32 H 1.018959 3.856614 3.351713 0
M  V30 33 H -2.730008 -3.113196 1.658457 0
M  V30 34 H -2.495981 -1.539263 2.454268 0
M  V30 35 H -3.378534 -1.258126 0.351660 0
M  V30 36 H -0.507442 -0.288151 0.550979 0
M  V30 37 H -2.051189 0.626736 0.519746 0
M  V30 38 H -2.327802 -0.051849 -1.863606 0
M  V30 39 H -0.837794 0.952618 -1.467626 0
M  V30 40 H 0.502956 -0.749491 -1.881040 0
M  V30 41 H 0.040856 -2.743433 -0.805595 0
M  V30 42 H -0.776498 -3.014993 -2.368124 0
M  V30 43 H -2.853314 -2.227301 -1.572986 0
M  V30 44 H -2.196042 -3.514203 -0.399217 0
M  V30 END ATOM
M  V30 BEGIN BOND
M  V30 1 3 1 2
M  V30 2 1 2 3
M  V30 3 2 3 4
M  V30 4 1 4 5
M  V30 5 2 5 6
M  V30 6 1 6 7
M  V30 7 1 7 8
M  V30 8 2 8 9
M  V30 9 1 9 10
M  V30 10 1 10 11
M  V30 11 1 11 12
M  V30 12 2 12 13
M  V30 13 1 13 14
M  V30 14 1 14 15
M  V30 15 2 15 16
M  V30 16 1 6 17
M  V30 17 2 17 18
M  V30 18 1 18 19
M  V30 19 1 19 20
M  V30 20 1 20 21
M  V30 21 1 21 22
M  V30 22 1 22 23
M  V30 23 1 23 24
M  V30 24 1 24 25
M  V30 25 1 25 26
M  V30 26 1 18 3
M  V30 27 1 26 21
M  V30 28 1 16 8
M  V30 29 2 14 10
M  V30 30 1 5 27
M  V30 31 1 7 28
M  V30 32 1 9 29
M  V30 33 1 11 30
M  V30 34 1 12 31
M  V30 35 1 15 32
M  V30 36 1 20 33
M  V30 37 1 20 34
M  V30 38 1 21 35
M  V30 39 1 22 36
M  V30 40 1 22 37
M  V30 41 1 23 38
M  V30 42 1 23 39
M  V30 43 1 24 40
M  V30 44 1 25 41
M  V30 45 1 25 42
M  V30 46 1 26 43
M  V30 47 1 26 44
M  V30 END BOND
M  V30 END CTAB
M  END
>  <Dataset>  (337) 
ChEMBL_Kinases

>  <Ligand_Instance>  (337) 
nan

>  <PDB_ID>  (337) 
nan

>  <Standardized_SMILES>  (337) 
N#Cc1ncc(Nc2cc3[nH]cnc3cn2)nc1OCC1CCNCC1

>  <Name>  (337) 
nan

>  <Pocket>  (337) 
nan

>  <ATP_Site>  (337) 
nan

>  <Peripheral>  (337) 
nan

>  <Num_H_Atoms_ProtBoundConf>  (337) 
nan

>  <Num_Resolved_Atoms>  (337) 
nan

>  <Num_Not_Resolved_Atoms>  (337) 
nan

$$$$
CHEMBL1928696
     RDKit          3D

  0  0  0  0  0  0  0  0  0  0999 V3000
M  V30 BEGIN CTAB
M  V30 COUNTS 28 30 0 0 0
M  V30 BEGIN ATOM
M  V30 1 N -0.644029 -5.632797 4.492706 0
M  V30 2 C -0.059999 -4.738044 4.063710 0
M  V30 3 C 0.681625 -3.597888 3.545352 0
M  V30 4 C 0.774914 -3.526913 2.171182 0
M  V30 5 N 1.439075 -2.508285 1.626572 0
M  V30 6 C 2.037594 -1.524193 2.317314 0
M  V30 7 N 2.722350 -0.529216 1.552785 0
M  V30 8 C 1.715618 0.244298 0.909520 0
M  V30 9 C 0.852224 -0.310172 -0.006837 0
M  V30 10 C -0.177712 0.241750 -0.743581 0
M  V30 11 C -0.945882 -0.489298 -1.621343 0
M  V30 12 C -1.934138 0.190958 -2.288849 0
M  V30 13 C -2.106488 1.562929 -2.048280 0
M  V30 14 C -1.327724 2.286428 -1.157499 0
M  V30 15 C -0.309112 1.595314 -0.465355 0
M  V30 16 C 0.527807 2.235280 0.456044 0
M  V30 17 N 1.486643 1.556512 1.095217 0
M  V30 18 C 1.930526 -1.614926 3.691035 0
M  V30 19 N 1.272952 -2.619490 4.289657 0
M  V30 20 H 0.340017 -4.248322 1.446319 0
M  V30 21 H 3.769091 -0.341003 1.449687 0
M  V30 22 H 0.988591 -1.370474 -0.238856 0
M  V30 23 H -0.725453 -1.559832 -1.736117 0
M  V30 24 H -2.536557 -0.390920 -2.992795 0
M  V30 25 H -2.900371 2.019972 -2.614180 0
M  V30 26 H -1.461874 3.333016 -0.986132 0
M  V30 27 H 0.397374 3.313291 0.634173 0
M  V30 28 H 2.398543 -0.830961 4.261162 0
M  V30 END ATOM
M  V30 BEGIN BOND
M  V30 1 3 1 2
M  V30 2 1 2 3
M  V30 3 2 3 4
M  V30 4 1 4 5
M  V30 5 2 5 6
M  V30 6 1 6 7
M  V30 7 1 7 8
M  V30 8 2 8 9
M  V30 9 1 9 10
M  V30 10 2 10 11
M  V30 11 1 11 12
M  V30 12 2 12 13
M  V30 13 1 13 14
M  V30 14 2 14 15
M  V30 15 1 15 16
M  V30 16 2 16 17
M  V30 17 1 6 18
M  V30 18 2 18 19
M  V30 19 1 19 3
M  V30 20 1 17 8
M  V30 21 1 15 10
M  V30 22 1 4 20
M  V30 23 1 7 21
M  V30 24 1 9 22
M  V30 25 1 11 23
M  V30 26 1 12 24
M  V30 27 1 13 25
M  V30 28 1 14 26
M  V30 29 1 16 27
M  V30 30 1 18 28
M  V30 END BOND
M  V30 END CTAB
M  END
>  <Dataset>  (338) 
ChEMBL_Kinases

>  <Ligand_Instance>  (338) 
nan

>  <PDB_ID>  (338) 
nan

>  <Standardized_SMILES>  (338) 
N#Cc1cnc(Nc2cc3ccccc3cn2)cn1

>  <Name>  (338) 
nan

>  <Pocket>  (338) 
nan

>  <ATP_Site>  (338) 
nan

>  <Peripheral>  (338) 
nan

>  <Num_H_Atoms_ProtBoundConf>  (338) 
nan

>  <Num_Resolved_Atoms>  (338) 
nan

>  <Num_Not_Resolved_Atoms>  (338) 
nan

$$$$
CHEMBL1928698
     RDKit          3D

  0  0  0  0  0  0  0  0  0  0999 V3000
M  V30 BEGIN CTAB
M  V30 COUNTS 28 30 0 0 0
M  V30 BEGIN ATOM
M  V30 1 N -0.654870 -3.679110 6.278951 0
M  V30 2 C -0.153324 -3.394439 5.259711 0
M  V30 3 C 0.481762 -3.063206 3.996704 0
M  V30 4 C 1.439923 -2.062429 4.000416 0
M  V30 5 N 2.018044 -1.775562 2.798122 0
M  V30 6 C 1.686935 -2.422021 1.653974 0
M  V30 7 N 2.399365 -1.991310 0.475232 0
M  V30 8 C 1.525350 -0.911736 0.082972 0
M  V30 9 C 0.424772 -1.004227 -0.742678 0
M  V30 10 C -0.255203 0.172897 -0.973838 0
M  V30 11 C -1.356651 0.108701 -1.793890 0
M  V30 12 C -2.063884 1.285548 -2.044771 0
M  V30 13 C -1.618322 2.458717 -1.453721 0
M  V30 14 C -0.514883 2.536544 -0.629305 0
M  V30 15 Cl 0.027405 4.030638 0.104944 0
M  V30 16 C 0.166871 1.352655 -0.398334 0
M  V30 17 C 1.280155 1.433873 0.434144 0
M  V30 18 N 1.933200 0.254887 0.645175 0
M  V30 19 C 0.727354 -3.412784 1.694262 0
M  V30 20 N 0.135720 -3.722980 2.861495 0
M  V30 21 H 1.713972 -1.536764 4.910385 0
M  V30 22 H 3.264017 -2.281036 -0.027284 0
M  V30 23 H 0.202789 -1.976541 -1.125750 0
M  V30 24 H -1.678478 -0.834550 -2.242699 0
M  V30 25 H -2.945051 1.294493 -2.686740 0
M  V30 26 H -2.126003 3.418651 -1.608131 0
M  V30 27 H 1.624953 2.349856 0.893108 0
M  V30 28 H 0.519687 -3.881749 0.740155 0
M  V30 END ATOM
M  V30 BEGIN BOND
M  V30 1 3 1 2
M  V30 2 1 2 3
M  V30 3 2 3 4
M  V30 4 1 4 5
M  V30 5 2 5 6
M  V30 6 1 6 7
M  V30 7 1 7 8
M  V30 8 2 8 9
M  V30 9 1 9 10
M  V30 10 2 10 11
M  V30 11 1 11 12
M  V30 12 2 12 13
M  V30 13 1 13 14
M  V30 14 1 14 15
M  V30 15 2 14 16
M  V30 16 1 16 17
M  V30 17 2 17 18
M  V30 18 1 6 19
M  V30 19 2 19 20
M  V30 20 1 20 3
M  V30 21 1 18 8
M  V30 22 1 16 10
M  V30 23 1 4 21
M  V30 24 1 7 22
M  V30 25 1 9 23
M  V30 26 1 11 24
M  V30 27 1 12 25
M  V30 28 1 13 26
M  V30 29 1 17 27
M  V30 30 1 19 28
M  V30 END BOND
M  V30 END CTAB
M  END
>  <Dataset>  (339) 
ChEMBL_Kinases

>  <Ligand_Instance>  (339) 
nan

>  <PDB_ID>  (339) 
nan

>  <Standardized_SMILES>  (339) 
N#Cc1cnc(Nc2cc3cccc(Cl)c3cn2)cn1

>  <Name>  (339) 
nan

>  <Pocket>  (339) 
nan

>  <ATP_Site>  (339) 
nan

>  <Peripheral>  (339) 
nan

>  <Num_H_Atoms_ProtBoundConf>  (339) 
nan

>  <Num_Resolved_Atoms>  (339) 
nan

>  <Num_Not_Resolved_Atoms>  (339) 
nan

$$$$
CHEMBL1928699
     RDKit          3D

  0  0  0  0  0  0  0  0  0  0999 V3000
M  V30 BEGIN CTAB
M  V30 COUNTS 47 50 0 0 0
M  V30 BEGIN ATOM
M  V30 1 N 3.584203 -3.503817 5.562177 0
M  V30 2 C 3.560267 -2.838866 4.615866 0
M  V30 3 C 3.550880 -2.025111 3.432742 0
M  V30 4 N 4.651727 -1.783385 2.693792 0
M  V30 5 C 4.593526 -1.013790 1.591964 0
M  V30 6 C 3.408844 -0.436559 1.166167 0
M  V30 7 N 3.303063 0.383611 0.005634 0
M  V30 8 C 2.086969 0.985459 -0.438245 0
M  V30 9 C 1.125228 0.478801 -1.295970 0
M  V30 10 C 0.023255 1.259284 -1.579068 0
M  V30 11 C -0.896343 0.698114 -2.438148 0
M  V30 12 C -2.023128 1.442005 -2.755123 0
M  V30 13 C -2.218821 2.719140 -2.220186 0
M  V30 14 C -1.240572 3.185906 -1.373172 0
M  V30 15 Cl -1.478694 4.794472 -0.694292 0
M  V30 16 C -0.109312 2.507228 -1.019916 0
M  V30 17 C 0.860945 2.990400 -0.168929 0
M  V30 18 N 1.944376 2.214681 0.105162 0
M  V30 19 N 2.309744 -0.690094 1.921742 0
M  V30 20 C 2.360187 -1.458435 3.024426 0
M  V30 21 O 1.170563 -1.619606 3.677110 0
M  V30 22 C -0.072913 -1.089091 3.339554 0
M  V30 23 C -0.582307 -1.509529 1.977938 0
M  V30 24 C -0.743048 -2.989049 1.854578 0
M  V30 25 C -2.169768 -3.451704 1.736506 0
M  V30 26 N -2.860445 -2.796054 0.642203 0
M  V30 27 C -2.645620 -1.384112 0.581309 0
M  V30 28 C -1.985147 -0.904019 1.853878 0
M  V30 29 H 5.496725 -0.831326 1.008990 0
M  V30 30 H 4.187324 0.531304 -0.526422 0
M  V30 31 H 1.363205 -0.510105 -1.656456 0
M  V30 32 H -0.764331 -0.287619 -2.862697 0
M  V30 33 H -2.795800 1.075064 -3.423194 0
M  V30 34 H -3.089228 3.329638 -2.446519 0
M  V30 35 H 0.692823 3.968266 0.229505 0
M  V30 36 H -0.015617 0.027515 3.362389 0
M  V30 37 H -0.794902 -1.366112 4.138355 0
M  V30 38 H 0.076688 -1.077225 1.198234 0
M  V30 39 H -0.293336 -3.554483 2.696505 0
M  V30 40 H -0.223903 -3.313882 0.927827 0
M  V30 41 H -2.703392 -3.378997 2.697200 0
M  V30 42 H -2.112482 -4.535640 1.432966 0
M  V30 43 H -3.851746 -3.056651 0.640558 0
M  V30 44 H -1.953507 -1.172658 -0.267882 0
M  V30 45 H -3.613177 -0.853600 0.490315 0
M  V30 46 H -2.550376 -1.293697 2.722709 0
M  V30 47 H -1.972540 0.190056 1.959515 0
M  V30 END ATOM
M  V30 BEGIN BOND
M  V30 1 3 1 2
M  V30 2 1 2 3
M  V30 3 2 3 4
M  V30 4 1 4 5
M  V30 5 2 5 6
M  V30 6 1 6 7
M  V30 7 1 7 8
M  V30 8 2 8 9
M  V30 9 1 9 10
M  V30 10 2 10 11
M  V30 11 1 11 12
M  V30 12 2 12 13
M  V30 13 1 13 14
M  V30 14 1 14 15
M  V30 15 2 14 16
M  V30 16 1 16 17
M  V30 17 2 17 18
M  V30 18 1 6 19
M  V30 19 2 19 20
M  V30 20 1 20 21
M  V30 21 1 21 22
M  V30 22 1 22 23
M  V30 23 1 23 24
M  V30 24 1 24 25
M  V30 25 1 25 26
M  V30 26 1 26 27
M  V30 27 1 27 28
M  V30 28 1 20 3
M  V30 29 1 28 23
M  V30 30 1 18 8
M  V30 31 1 16 10
M  V30 32 1 5 29
M  V30 33 1 7 30
M  V30 34 1 9 31
M  V30 35 1 11 32
M  V30 36 1 12 33
M  V30 37 1 13 34
M  V30 38 1 17 35
M  V30 39 1 22 36
M  V30 40 1 22 37
M  V30 41 1 23 38
M  V30 42 1 24 39
M  V30 43 1 24 40
M  V30 44 1 25 41
M  V30 45 1 25 42
M  V30 46 1 26 43
M  V30 47 1 27 44
M  V30 48 1 27 45
M  V30 49 1 28 46
M  V30 50 1 28 47
M  V30 END BOND
M  V30 END CTAB
M  END
>  <Dataset>  (340) 
ChEMBL_Kinases

>  <Ligand_Instance>  (340) 
nan

>  <PDB_ID>  (340) 
nan

>  <Standardized_SMILES>  (340) 
N#Cc1ncc(Nc2cc3cccc(Cl)c3cn2)nc1OCC1CCNCC1

>  <Name>  (340) 
nan

>  <Pocket>  (340) 
nan

>  <ATP_Site>  (340) 
nan

>  <Peripheral>  (340) 
nan

>  <Num_H_Atoms_ProtBoundConf>  (340) 
nan

>  <Num_Resolved_Atoms>  (340) 
nan

>  <Num_Not_Resolved_Atoms>  (340) 
nan

$$$$
CHEMBL1928700
     RDKit          3D

  0  0  0  0  0  0  0  0  0  0999 V3000
M  V30 BEGIN CTAB
M  V30 COUNTS 44 47 0 0 0
M  V30 BEGIN ATOM
M  V30 1 N 1.204216 -6.059652 2.404980 0
M  V30 2 C 1.690314 -5.061327 2.109106 0
M  V30 3 C 2.293314 -3.802794 1.750472 0
M  V30 4 N 3.629121 -3.672655 1.673953 0
M  V30 5 C 4.150584 -2.477404 1.332600 0
M  V30 6 C 3.392423 -1.368294 1.055484 0
M  V30 7 N 3.991511 -0.106080 0.684307 0
M  V30 8 C 2.994196 0.916612 0.540451 0
M  V30 9 C 2.199818 0.677744 -0.560955 0
M  V30 10 C 1.170172 1.582549 -0.816353 0
M  V30 11 C 0.331414 1.392183 -1.902504 0
M  V30 12 C -0.685862 2.290951 -2.133290 0
M  V30 13 C -0.859202 3.352346 -1.300480 0
M  V30 14 C -0.011033 3.511830 -0.234706 0
M  V30 15 C 1.016376 2.647167 0.042340 0
M  V30 16 C 1.822933 2.870357 1.141446 0
M  V30 17 N 2.806829 1.972506 1.353754 0
M  V30 18 N 2.061049 -1.579299 1.154050 0
M  V30 19 C 1.477007 -2.733785 1.485240 0
M  V30 20 O 0.064662 -2.775729 1.537542 0
M  V30 21 C -0.599915 -1.595902 1.118526 0
M  V30 22 C -0.972205 -0.707624 2.274630 0
M  V30 23 C -2.485050 -0.550445 2.276912 0
M  V30 24 C -3.044712 -1.959785 2.091397 0
M  V30 25 N -2.937631 -2.248129 0.680773 0
M  V30 26 C -1.680478 -1.831152 0.120043 0
M  V30 27 H 5.238855 -2.385684 1.271300 0
M  V30 28 H 5.019376 -0.087336 0.568773 0
M  V30 29 H 2.292630 -0.140215 -1.252493 0
M  V30 30 H 0.477000 0.529799 -2.561286 0
M  V30 31 H -1.322771 2.097684 -2.999547 0
M  V30 32 H -1.647006 4.059842 -1.471652 0
M  V30 33 H -0.137891 4.350317 0.434436 0
M  V30 34 H 1.698452 3.715986 1.817675 0
M  V30 35 H 0.221321 -1.017621 0.583933 0
M  V30 36 H -0.467268 0.283479 2.254792 0
M  V30 37 H -0.699984 -1.228418 3.211462 0
M  V30 38 H -2.785425 0.097366 1.432492 0
M  V30 39 H -2.791884 -0.127736 3.259099 0
M  V30 40 H -2.356451 -2.682756 2.591785 0
M  V30 41 H -4.059831 -2.057718 2.474464 0
M  V30 42 H -3.135914 -3.236575 0.466970 0
M  V30 43 H -1.825554 -0.904096 -0.506390 0
M  V30 44 H -1.339623 -2.621326 -0.577942 0
M  V30 END ATOM
M  V30 BEGIN BOND
M  V30 1 3 1 2
M  V30 2 1 2 3
M  V30 3 2 3 4
M  V30 4 1 4 5
M  V30 5 2 5 6
M  V30 6 1 6 7
M  V30 7 1 7 8
M  V30 8 2 8 9
M  V30 9 1 9 10
M  V30 10 2 10 11
M  V30 11 1 11 12
M  V30 12 2 12 13
M  V30 13 1 13 14
M  V30 14 2 14 15
M  V30 15 1 15 16
M  V30 16 2 16 17
M  V30 17 1 6 18
M  V30 18 2 18 19
M  V30 19 1 19 20
M  V30 20 1 20 21
M  V30 21 1 21 22
M  V30 22 1 22 23
M  V30 23 1 23 24
M  V30 24 1 24 25
M  V30 25 1 25 26
M  V30 26 1 19 3
M  V30 27 1 26 21
M  V30 28 1 17 8
M  V30 29 1 15 10
M  V30 30 1 5 27
M  V30 31 1 7 28
M  V30 32 1 9 29
M  V30 33 1 11 30
M  V30 34 1 12 31
M  V30 35 1 13 32
M  V30 36 1 14 33
M  V30 37 1 16 34
M  V30 38 1 21 35
M  V30 39 1 22 36
M  V30 40 1 22 37
M  V30 41 1 23 38
M  V30 42 1 23 39
M  V30 43 1 24 40
M  V30 44 1 24 41
M  V30 45 1 25 42
M  V30 46 1 26 43
M  V30 47 1 26 44
M  V30 END BOND
M  V30 END CTAB
M  END
>  <Dataset>  (341) 
ChEMBL_Kinases

>  <Ligand_Instance>  (341) 
nan

>  <PDB_ID>  (341) 
nan

>  <Standardized_SMILES>  (341) 
N#Cc1ncc(Nc2cc3ccccc3cn2)nc1OC1CCCNC1

>  <Name>  (341) 
nan

>  <Pocket>  (341) 
nan

>  <ATP_Site>  (341) 
nan

>  <Peripheral>  (341) 
nan

>  <Num_H_Atoms_ProtBoundConf>  (341) 
nan

>  <Num_Resolved_Atoms>  (341) 
nan

>  <Num_Not_Resolved_Atoms>  (341) 
nan

$$$$
CHEMBL1928702
     RDKit          3D

  0  0  0  0  0  0  0  0  0  0999 V3000
M  V30 BEGIN CTAB
M  V30 COUNTS 43 45 0 0 0
M  V30 BEGIN ATOM
M  V30 1 C 1.295599 -3.815490 2.715082 0
M  V30 2 N 0.965957 -4.361510 1.451280 0
M  V30 3 C -0.222061 -5.129890 1.347383 0
M  V30 4 C 1.358018 -3.617512 0.299488 0
M  V30 5 C 0.538299 -2.334736 0.256368 0
M  V30 6 O -0.833273 -2.601258 0.183840 0
M  V30 7 C -1.794946 -1.571594 0.122800 0
M  V30 8 N -1.381502 -0.269170 0.131115 0
M  V30 9 C -2.275121 0.740294 0.072674 0
M  V30 10 N -1.801476 2.091457 0.079242 0
M  V30 11 C -0.390079 2.267517 0.161293 0
M  V30 12 C 0.216071 2.424736 1.391108 0
M  V30 13 C 1.586710 2.584917 1.371549 0
M  V30 14 C 2.291117 2.750321 2.554777 0
M  V30 15 C 3.680554 2.914092 2.559832 0
M  V30 16 C 4.327624 2.905104 1.342257 0
M  V30 17 C 3.690187 2.745570 0.130305 0
M  V30 18 Cl 4.544598 2.736767 -1.407673 0
M  V30 19 C 2.312676 2.588289 0.195585 0
M  V30 20 C 1.662404 2.426082 -1.032472 0
M  V30 21 N 0.308470 2.268958 -0.998005 0
M  V30 22 C -3.617558 0.434190 0.004421 0
M  V30 23 N -4.034592 -0.848714 -0.004110 0
M  V30 24 C -3.138997 -1.877467 0.054571 0
M  V30 25 C -3.587628 -3.242884 0.045417 0
M  V30 26 N -3.943176 -4.358345 0.021616 0
M  V30 27 H 1.518708 -4.578048 3.494625 0
M  V30 28 H 2.231790 -3.230308 2.599738 0
M  V30 29 H 0.522269 -3.087507 3.057494 0
M  V30 30 H -0.272295 -5.594743 0.324023 0
M  V30 31 H -0.252256 -5.988729 2.051056 0
M  V30 32 H -1.130333 -4.514324 1.476608 0
M  V30 33 H 2.423809 -3.341250 0.287083 0
M  V30 34 H 1.164309 -4.227913 -0.629011 0
M  V30 35 H 0.866269 -1.678305 -0.598344 0
M  V30 36 H 0.789502 -1.752998 1.191334 0
M  V30 37 H -2.511582 2.870068 0.023307 0
M  V30 38 H -0.324334 2.426972 2.322361 0
M  V30 39 H 1.754168 2.752869 3.485732 0
M  V30 40 H 4.207459 3.041416 3.488239 0
M  V30 41 H 5.403460 3.027344 1.291621 0
M  V30 42 H 2.181725 2.420843 -1.983547 0
M  V30 43 H -4.355573 1.225507 -0.043267 0
M  V30 END ATOM
M  V30 BEGIN BOND
M  V30 1 1 1 2
M  V30 2 1 2 3
M  V30 3 1 2 4
M  V30 4 1 4 5
M  V30 5 1 5 6
M  V30 6 1 6 7
M  V30 7 2 7 8
M  V30 8 1 8 9
M  V30 9 1 9 10
M  V30 10 1 10 11
M  V30 11 2 11 12
M  V30 12 1 12 13
M  V30 13 2 13 14
M  V30 14 1 14 15
M  V30 15 2 15 16
M  V30 16 1 16 17
M  V30 17 1 17 18
M  V30 18 2 17 19
M  V30 19 1 19 20
M  V30 20 2 20 21
M  V30 21 2 9 22
M  V30 22 1 22 23
M  V30 23 2 23 24
M  V30 24 1 24 25
M  V30 25 3 25 26
M  V30 26 1 24 7
M  V30 27 1 21 11
M  V30 28 1 19 13
M  V30 29 1 1 27
M  V30 30 1 1 28
M  V30 31 1 1 29
M  V30 32 1 3 30
M  V30 33 1 3 31
M  V30 34 1 3 32
M  V30 35 1 4 33
M  V30 36 1 4 34
M  V30 37 1 5 35
M  V30 38 1 5 36
M  V30 39 1 10 37
M  V30 40 1 12 38
M  V30 41 1 14 39
M  V30 42 1 15 40
M  V30 43 1 16 41
M  V30 44 1 20 42
M  V30 45 1 22 43
M  V30 END BOND
M  V30 END CTAB
M  END
>  <Dataset>  (342) 
ChEMBL_Kinases

>  <Ligand_Instance>  (342) 
nan

>  <PDB_ID>  (342) 
nan

>  <Standardized_SMILES>  (342) 
CN(C)CCOc1nc(Nc2cc3cccc(Cl)c3cn2)cnc1C#N

>  <Name>  (342) 
nan

>  <Pocket>  (342) 
nan

>  <ATP_Site>  (342) 
nan

>  <Peripheral>  (342) 
nan

>  <Num_H_Atoms_ProtBoundConf>  (342) 
nan

>  <Num_Resolved_Atoms>  (342) 
nan

>  <Num_Not_Resolved_Atoms>  (342) 
nan

$$$$
CHEMBL1928704
     RDKit          3D

  0  0  0  0  0  0  0  0  0  0999 V3000
M  V30 BEGIN CTAB
M  V30 COUNTS 46 48 0 0 0
M  V30 BEGIN ATOM
M  V30 1 C 0.104615 -4.558153 3.435511 0
M  V30 2 C 0.971891 -3.491779 2.869320 0
M  V30 3 C 0.954116 -2.306451 3.906264 0
M  V30 4 N 2.114110 -1.512165 3.794688 0
M  V30 5 C 2.369097 -0.737063 2.657942 0
M  V30 6 C 2.687832 -0.998322 4.993449 0
M  V30 7 O 0.880831 -3.092501 1.628223 0
M  V30 8 C 0.792431 -2.703823 0.420916 0
M  V30 9 N 1.153441 -1.591643 -0.231912 0
M  V30 10 C 0.951562 -1.409354 -1.547240 0
M  V30 11 N 1.410145 -0.059197 -1.809631 0
M  V30 12 C 0.218243 0.755151 -1.666068 0
M  V30 13 C 0.336529 2.125516 -1.617808 0
M  V30 14 C -0.753121 2.976610 -1.495856 0
M  V30 15 C -0.695516 4.359560 -1.427112 0
M  V30 16 C -1.838468 5.137707 -1.292875 0
M  V30 17 C -3.076124 4.527544 -1.224309 0
M  V30 18 C -3.204412 3.160595 -1.285854 0
M  V30 19 Cl -4.759345 2.314707 -1.203903 0
M  V30 20 C -2.029820 2.462202 -1.417922 0
M  V30 21 C -2.140483 1.098887 -1.467313 0
M  V30 22 N -1.046089 0.344609 -1.584170 0
M  V30 23 C 0.355690 -2.379118 -2.295087 0
M  V30 24 N -0.045759 -3.531422 -1.743203 0
M  V30 25 C 0.180268 -3.675144 -0.384668 0
M  V30 26 C -0.302371 -4.978797 0.047823 0
M  V30 27 N -0.693788 -6.016734 0.413695 0
M  V30 28 H 0.645085 -5.524735 3.671801 0
M  V30 29 H -0.289000 -4.257899 4.454935 0
M  V30 30 H -0.810271 -4.741029 2.853608 0
M  V30 31 H 2.082581 -3.810241 3.057499 0
M  V30 32 H 0.074032 -1.654282 3.700815 0
M  V30 33 H 0.829533 -2.711411 4.922370 0
M  V30 34 H 2.908268 -1.309674 1.848743 0
M  V30 35 H 3.093592 0.091661 2.895872 0
M  V30 36 H 1.478170 -0.248682 2.218443 0
M  V30 37 H 3.105300 -1.838410 5.620814 0
M  V30 38 H 1.930921 -0.502223 5.653332 0
M  V30 39 H 3.562500 -0.340028 4.826827 0
M  V30 40 H 2.318107 0.381925 -2.049145 0
M  V30 41 H 1.287021 2.631247 -1.674860 0
M  V30 42 H 0.302827 4.807911 -1.485639 0
M  V30 43 H -1.767862 6.210199 -1.242742 0
M  V30 44 H -4.022879 5.088566 -1.114009 0
M  V30 45 H -3.032338 0.487025 -1.425164 0
M  V30 46 H 0.297205 -2.027811 -3.318497 0
M  V30 END ATOM
M  V30 BEGIN BOND
M  V30 1 1 1 2
M  V30 2 1 2 3
M  V30 3 1 3 4
M  V30 4 1 4 5
M  V30 5 1 4 6
M  V30 6 1 2 7
M  V30 7 1 7 8
M  V30 8 2 8 9
M  V30 9 1 9 10
M  V30 10 1 10 11
M  V30 11 1 11 12
M  V30 12 2 12 13
M  V30 13 1 13 14
M  V30 14 2 14 15
M  V30 15 1 15 16
M  V30 16 2 16 17
M  V30 17 1 17 18
M  V30 18 1 18 19
M  V30 19 2 18 20
M  V30 20 1 20 21
M  V30 21 2 21 22
M  V30 22 2 10 23
M  V30 23 1 23 24
M  V30 24 2 24 25
M  V30 25 1 25 26
M  V30 26 3 26 27
M  V30 27 1 25 8
M  V30 28 1 22 12
M  V30 29 1 20 14
M  V30 30 1 1 28
M  V30 31 1 1 29
M  V30 32 1 1 30
M  V30 33 1 2 31
M  V30 34 1 3 32
M  V30 35 1 3 33
M  V30 36 1 5 34
M  V30 37 1 5 35
M  V30 38 1 5 36
M  V30 39 1 6 37
M  V30 40 1 6 38
M  V30 41 1 6 39
M  V30 42 1 11 40
M  V30 43 1 13 41
M  V30 44 1 15 42
M  V30 45 1 16 43
M  V30 46 1 17 44
M  V30 47 1 21 45
M  V30 48 1 23 46
M  V30 END BOND
M  V30 END CTAB
M  END
>  <Dataset>  (343) 
ChEMBL_Kinases

>  <Ligand_Instance>  (343) 
nan

>  <PDB_ID>  (343) 
nan

>  <Standardized_SMILES>  (343) 
CC(CN(C)C)Oc1nc(Nc2cc3cccc(Cl)c3cn2)cnc1C#N

>  <Name>  (343) 
nan

>  <Pocket>  (343) 
nan

>  <ATP_Site>  (343) 
nan

>  <Peripheral>  (343) 
nan

>  <Num_H_Atoms_ProtBoundConf>  (343) 
nan

>  <Num_Resolved_Atoms>  (343) 
nan

>  <Num_Not_Resolved_Atoms>  (343) 
nan

$$$$
CHEMBL1928693
     RDKit          3D

  0  0  0  0  0  0  0  0  0  0999 V3000
M  V30 BEGIN CTAB
M  V30 COUNTS 25 27 0 0 0
M  V30 BEGIN ATOM
M  V30 1 N 1.126822 -5.648353 4.942175 0
M  V30 2 C 0.822512 -4.887422 4.129672 0
M  V30 3 C 0.434058 -3.932847 3.117706 0
M  V30 4 C 1.159839 -3.737159 1.956022 0
M  V30 5 N 0.707574 -2.792104 1.075721 0
M  V30 6 C -0.428825 -2.104525 1.397135 0
M  V30 7 N -0.604129 -1.215067 0.284873 0
M  V30 8 C -0.058459 0.065608 -0.010186 0
M  V30 9 C -0.647264 1.292193 0.073158 0
M  V30 10 C 0.076528 2.405390 -0.272073 0
M  V30 11 N -0.196701 3.731733 -0.315775 0
M  V30 12 C 0.933208 4.330836 -0.757788 0
M  V30 13 N 1.878702 3.371224 -0.979088 0
M  V30 14 C 1.371243 2.159619 -0.684121 0
M  V30 15 C 1.998382 0.934745 -0.779144 0
M  V30 16 N 1.229621 -0.143121 -0.421974 0
M  V30 17 C -1.148950 -2.292175 2.536617 0
M  V30 18 N -0.667518 -3.227958 3.373835 0
M  V30 19 H 2.040466 -4.371647 1.857821 0
M  V30 20 H -1.218127 -1.354422 -0.572200 0
M  V30 21 H -1.651887 1.310274 0.407083 0
M  V30 22 H -1.120516 4.070510 -0.041160 0
M  V30 23 H 1.005778 5.400459 -0.895533 0
M  V30 24 H 3.039953 0.843266 -1.114700 0
M  V30 25 H -1.996864 -1.613696 2.521888 0
M  V30 END ATOM
M  V30 BEGIN BOND
M  V30 1 3 1 2
M  V30 2 1 2 3
M  V30 3 2 3 4
M  V30 4 1 4 5
M  V30 5 2 5 6
M  V30 6 1 6 7
M  V30 7 1 7 8
M  V30 8 2 8 9
M  V30 9 1 9 10
M  V30 10 1 10 11
M  V30 11 1 11 12
M  V30 12 2 12 13
M  V30 13 1 13 14
M  V30 14 1 14 15
M  V30 15 2 15 16
M  V30 16 1 6 17
M  V30 17 2 17 18
M  V30 18 1 18 3
M  V30 19 1 16 8
M  V30 20 2 14 10
M  V30 21 1 4 19
M  V30 22 1 7 20
M  V30 23 1 9 21
M  V30 24 1 11 22
M  V30 25 1 12 23
M  V30 26 1 15 24
M  V30 27 1 17 25
M  V30 END BOND
M  V30 END CTAB
M  END
>  <Dataset>  (344) 
ChEMBL_Kinases

>  <Ligand_Instance>  (344) 
nan

>  <PDB_ID>  (344) 
nan

>  <Standardized_SMILES>  (344) 
N#Cc1cnc(Nc2cc3[nH]cnc3cn2)cn1

>  <Name>  (344) 
nan

>  <Pocket>  (344) 
nan

>  <ATP_Site>  (344) 
nan

>  <Peripheral>  (344) 
nan

>  <Num_H_Atoms_ProtBoundConf>  (344) 
nan

>  <Num_Resolved_Atoms>  (344) 
nan

>  <Num_Not_Resolved_Atoms>  (344) 
nan

$$$$
CHEMBL1933279
     RDKit          3D

  0  0  0  0  0  0  0  0  0  0999 V3000
M  V30 BEGIN CTAB
M  V30 COUNTS 47 51 0 0 0
M  V30 BEGIN ATOM
M  V30 1 C 0.383988 -3.991556 3.222792 0
M  V30 2 N -0.275943 -4.443011 2.026496 0
M  V30 3 C -0.358836 -3.598850 0.973063 0
M  V30 4 N 0.064818 -2.279490 0.708802 0
M  V30 5 C 1.305199 -1.864514 0.154392 0
M  V30 6 O 2.197417 -2.686215 -0.173152 0
M  V30 7 C 1.616547 -0.454407 -0.067837 0
M  V30 8 C 2.844167 -0.128468 -0.611225 0
M  V30 9 C 3.226874 1.196680 -0.858424 0
M  V30 10 C 2.362432 2.228563 -0.555996 0
M  V30 11 C 2.410180 3.620039 -0.664794 0
M  V30 12 C 1.195087 4.099208 -0.177926 0
M  V30 13 N 0.454712 3.042669 0.204468 0
M  V30 14 C 1.131890 1.900363 -0.011219 0
M  V30 15 C 0.764980 0.591963 0.228187 0
M  V30 16 C -0.887044 3.198062 0.765889 0
M  V30 17 C -0.893326 4.267299 1.822941 0
M  V30 18 C -1.331545 5.612123 1.246795 0
M  V30 19 N -0.245611 6.135337 0.441121 0
M  V30 20 C 0.912522 5.547749 -0.149721 0
M  V30 21 O 1.730449 6.336299 -0.673922 0
M  V30 22 N -1.017216 -4.267409 -0.001696 0
M  V30 23 C -1.344727 -5.504481 0.420210 0
M  V30 24 C -1.994692 -6.606683 -0.098839 0
M  V30 25 C -2.173439 -7.777034 0.627826 0
M  V30 26 C -1.675636 -7.829988 1.924728 0
M  V30 27 C -1.012852 -6.743208 2.491263 0
M  V30 28 C -0.867478 -5.603116 1.711549 0
M  V30 29 H 0.243849 -4.695189 4.069920 0
M  V30 30 H 1.500475 -3.939581 3.081377 0
M  V30 31 H -0.047119 -3.034817 3.513841 0
M  V30 32 H -0.670434 -1.588746 0.977854 0
M  V30 33 H 3.592459 -0.870149 -0.882655 0
M  V30 34 H 4.193080 1.440996 -1.285330 0
M  V30 35 H 3.252808 4.185234 -1.059483 0
M  V30 36 H -0.191659 0.365042 0.649898 0
M  V30 37 H -1.660891 3.357303 0.001735 0
M  V30 38 H -1.117272 2.225073 1.265750 0
M  V30 39 H -1.499970 3.958123 2.680991 0
M  V30 40 H 0.168407 4.381021 2.164171 0
M  V30 41 H -1.639446 6.291348 2.067967 0
M  V30 42 H -2.232910 5.472152 0.584161 0
M  V30 43 H -0.349691 7.160948 0.266308 0
M  V30 44 H -2.361062 -6.508560 -1.112642 0
M  V30 45 H -2.684715 -8.623929 0.199360 0
M  V30 46 H -1.807732 -8.747680 2.514639 0
M  V30 47 H -0.621007 -6.770779 3.497961 0
M  V30 END ATOM
M  V30 BEGIN BOND
M  V30 1 1 1 2
M  V30 2 1 2 3
M  V30 3 1 3 4
M  V30 4 1 4 5
M  V30 5 2 5 6
M  V30 6 1 5 7
M  V30 7 2 7 8
M  V30 8 1 8 9
M  V30 9 2 9 10
M  V30 10 1 10 11
M  V30 11 2 11 12
M  V30 12 1 12 13
M  V30 13 1 13 14
M  V30 14 2 14 15
M  V30 15 1 13 16
M  V30 16 1 16 17
M  V30 17 1 17 18
M  V30 18 1 18 19
M  V30 19 1 19 20
M  V30 20 2 20 21
M  V30 21 2 3 22
M  V30 22 1 22 23
M  V30 23 2 23 24
M  V30 24 1 24 25
M  V30 25 2 25 26
M  V30 26 1 26 27
M  V30 27 2 27 28
M  V30 28 1 28 2
M  V30 29 1 15 7
M  V30 30 1 28 23
M  V30 31 1 14 10
M  V30 32 1 20 12
M  V30 33 1 1 29
M  V30 34 1 1 30
M  V30 35 1 1 31
M  V30 36 1 4 32
M  V30 37 1 8 33
M  V30 38 1 9 34
M  V30 39 1 11 35
M  V30 40 1 15 36
M  V30 41 1 16 37
M  V30 42 1 16 38
M  V30 43 1 17 39
M  V30 44 1 17 40
M  V30 45 1 18 41
M  V30 46 1 18 42
M  V30 47 1 19 43
M  V30 48 1 24 44
M  V30 49 1 25 45
M  V30 50 1 26 46
M  V30 51 1 27 47
M  V30 END BOND
M  V30 END CTAB
M  END
>  <Dataset>  (345) 
ChEMBL_Kinases

>  <Ligand_Instance>  (345) 
nan

>  <PDB_ID>  (345) 
nan

>  <Standardized_SMILES>  (345) 
Cn1c(NC(=O)c2ccc3cc4n(c3c2)CCCNC4=O)nc2ccccc21

>  <Name>  (345) 
nan

>  <Pocket>  (345) 
nan

>  <ATP_Site>  (345) 
nan

>  <Peripheral>  (345) 
nan

>  <Num_H_Atoms_ProtBoundConf>  (345) 
nan

>  <Num_Resolved_Atoms>  (345) 
nan

>  <Num_Not_Resolved_Atoms>  (345) 
nan

$$$$
CHEMBL1933278
     RDKit          3D

  0  0  0  0  0  0  0  0  0  0999 V3000
M  V30 BEGIN CTAB
M  V30 COUNTS 50 54 0 0 0
M  V30 BEGIN ATOM
M  V30 1 O -0.460169 -0.477184 2.263153 0
M  V30 2 C 0.411554 -0.773447 1.411565 0
M  V30 3 N 1.577066 0.020069 1.529627 0
M  V30 4 C 1.860264 1.061891 2.455159 0
M  V30 5 C 2.428807 1.162134 3.703551 0
M  V30 6 N 2.403640 2.465602 4.048677 0
M  V30 7 N 1.857290 3.193978 3.101482 0
M  V30 8 C 1.676519 4.637392 3.156182 0
M  V30 9 C 2.891282 5.291286 2.579322 0
M  V30 10 C 4.017839 5.665381 3.279270 0
M  V30 11 C 5.037430 6.253584 2.585841 0
M  V30 12 N 5.010525 6.490072 1.264568 0
M  V30 13 C 3.912840 6.129148 0.563523 0
M  V30 14 C 2.862239 5.532950 1.225439 0
M  V30 15 C 1.502288 2.361782 2.086379 0
M  V30 16 C 0.320445 -1.801695 0.381678 0
M  V30 17 C 1.289159 -2.119452 -0.552503 0
M  V30 18 C 1.051752 -3.126980 -1.470146 0
M  V30 19 C -0.140378 -3.808017 -1.453024 0
M  V30 20 C -0.652561 -4.834189 -2.220601 0
M  V30 21 C -1.916783 -5.125077 -1.746799 0
M  V30 22 N -2.176108 -4.304500 -0.719738 0
M  V30 23 C -1.114497 -3.499218 -0.524965 0
M  V30 24 C -0.887539 -2.495106 0.395524 0
M  V30 25 C -3.409808 -4.316227 0.030112 0
M  V30 26 C -4.622558 -4.486456 -0.806681 0
M  V30 27 C -5.013052 -5.930486 -1.027190 0
M  V30 28 N -4.091612 -6.455895 -2.019317 0
M  V30 29 C -2.720847 -6.190744 -2.375761 0
M  V30 30 O -2.216955 -6.914570 -3.263030 0
M  V30 31 H 2.409417 -0.081589 0.907935 0
M  V30 32 H 2.774347 0.248618 4.163973 0
M  V30 33 H 0.781814 4.925643 2.601876 0
M  V30 34 H 1.534174 4.957716 4.226071 0
M  V30 35 H 4.000096 5.458056 4.338981 0
M  V30 36 H 5.917915 6.545906 3.133201 0
M  V30 37 H 3.869296 6.311049 -0.507302 0
M  V30 38 H 2.021978 5.269679 0.619622 0
M  V30 39 H 1.025110 2.760977 1.186557 0
M  V30 40 H 2.194853 -1.541326 -0.501355 0
M  V30 41 H 1.822484 -3.343366 -2.174919 0
M  V30 42 H -0.145979 -5.308919 -3.035079 0
M  V30 43 H -1.692342 -2.289144 1.110338 0
M  V30 44 H -3.364596 -5.084933 0.832914 0
M  V30 45 H -3.472764 -3.332514 0.541225 0
M  V30 46 H -5.481987 -4.028406 -0.251407 0
M  V30 47 H -4.568304 -3.966441 -1.765490 0
M  V30 48 H -4.894447 -6.529168 -0.096941 0
M  V30 49 H -6.034585 -6.013610 -1.403806 0
M  V30 50 H -4.483031 -7.205687 -2.638427 0
M  V30 END ATOM
M  V30 BEGIN BOND
M  V30 1 2 1 2
M  V30 2 1 2 3
M  V30 3 1 3 4
M  V30 4 1 4 5
M  V30 5 2 5 6
M  V30 6 1 6 7
M  V30 7 1 7 8
M  V30 8 1 8 9
M  V30 9 2 9 10
M  V30 10 1 10 11
M  V30 11 2 11 12
M  V30 12 1 12 13
M  V30 13 2 13 14
M  V30 14 1 7 15
M  V30 15 1 2 16
M  V30 16 2 16 17
M  V30 17 1 17 18
M  V30 18 2 18 19
M  V30 19 1 19 20
M  V30 20 2 20 21
M  V30 21 1 21 22
M  V30 22 1 22 23
M  V30 23 2 23 24
M  V30 24 1 22 25
M  V30 25 1 25 26
M  V30 26 1 26 27
M  V30 27 1 27 28
M  V30 28 1 28 29
M  V30 29 2 29 30
M  V30 30 2 15 4
M  V30 31 1 24 16
M  V30 32 1 14 9
M  V30 33 1 23 19
M  V30 34 1 29 21
M  V30 35 1 3 31
M  V30 36 1 5 32
M  V30 37 1 8 33
M  V30 38 1 8 34
M  V30 39 1 10 35
M  V30 40 1 11 36
M  V30 41 1 13 37
M  V30 42 1 14 38
M  V30 43 1 15 39
M  V30 44 1 17 40
M  V30 45 1 18 41
M  V30 46 1 20 42
M  V30 47 1 24 43
M  V30 48 1 25 44
M  V30 49 1 25 45
M  V30 50 1 26 46
M  V30 51 1 26 47
M  V30 52 1 27 48
M  V30 53 1 27 49
M  V30 54 1 28 50
M  V30 END BOND
M  V30 END CTAB
M  END
>  <Dataset>  (346) 
ChEMBL_Kinases

>  <Ligand_Instance>  (346) 
nan

>  <PDB_ID>  (346) 
nan

>  <Standardized_SMILES>  (346) 
O=C(Nc1cnn(Cc2ccncc2)c1)c1ccc2cc3n(c2c1)CCCNC3=O

>  <Name>  (346) 
nan

>  <Pocket>  (346) 
nan

>  <ATP_Site>  (346) 
nan

>  <Peripheral>  (346) 
nan

>  <Num_H_Atoms_ProtBoundConf>  (346) 
nan

>  <Num_Resolved_Atoms>  (346) 
nan

>  <Num_Not_Resolved_Atoms>  (346) 
nan

$$$$
CHEMBL1933277
     RDKit          3D

  0  0  0  0  0  0  0  0  0  0999 V3000
M  V30 BEGIN CTAB
M  V30 COUNTS 50 54 0 0 0
M  V30 BEGIN ATOM
M  V30 1 O 0.466274 -0.131149 1.843030 0
M  V30 2 C 1.302492 -1.069921 1.745802 0
M  V30 3 N 2.462164 -0.855607 2.532786 0
M  V30 4 C 2.418546 0.380037 3.259505 0
M  V30 5 C 1.929118 0.648257 4.523787 0
M  V30 6 N 2.100536 1.951592 4.789392 0
M  V30 7 N 2.675868 2.562128 3.772674 0
M  V30 8 C 3.070602 3.953620 3.568064 0
M  V30 9 C 1.975157 4.743128 2.953368 0
M  V30 10 C 1.964948 4.770474 1.557499 0
M  V30 11 C 0.953904 5.500111 0.921364 0
M  V30 12 C -0.024386 6.186784 1.646749 0
M  V30 13 C 0.051301 6.113074 3.021955 0
M  V30 14 N 1.025052 5.410032 3.657190 0
M  V30 15 C 2.880485 1.620228 2.823374 0
M  V30 16 C 1.088382 -2.254796 0.904152 0
M  V30 17 C 1.994696 -3.288389 0.786672 0
M  V30 18 C 1.677920 -4.340393 -0.031340 0
M  V30 19 C 0.474751 -4.385288 -0.736703 0
M  V30 20 C 0.028047 -5.373368 -1.588794 0
M  V30 21 C -1.209463 -4.891449 -1.993056 0
M  V30 22 N -1.493034 -3.682212 -1.418032 0
M  V30 23 C -0.432496 -3.357425 -0.623246 0
M  V30 24 C -0.098602 -2.303028 0.205823 0
M  V30 25 C -2.566847 -2.753771 -1.459254 0
M  V30 26 C -3.703037 -3.034736 -2.341899 0
M  V30 27 C -4.327061 -4.377670 -2.304209 0
M  V30 28 N -3.551714 -5.369628 -3.071394 0
M  V30 29 C -2.127088 -5.579384 -2.927436 0
M  V30 30 O -1.540749 -6.428348 -3.647978 0
M  V30 31 H 3.224707 -1.592106 2.516774 0
M  V30 32 H 1.487013 -0.091561 5.167681 0
M  V30 33 H 3.217511 4.379116 4.600943 0
M  V30 34 H 4.034914 4.051081 3.056562 0
M  V30 35 H 2.681690 4.268844 0.921903 0
M  V30 36 H 0.906104 5.549891 -0.169147 0
M  V30 37 H -0.809737 6.752737 1.200324 0
M  V30 38 H -0.676579 6.622740 3.644678 0
M  V30 39 H 3.336702 1.764359 1.845001 0
M  V30 40 H 2.919266 -3.231666 1.342281 0
M  V30 41 H 2.398131 -5.164236 -0.126210 0
M  V30 42 H 0.470277 -6.296371 -1.900419 0
M  V30 43 H -0.825899 -1.481815 0.295090 0
M  V30 44 H -2.129305 -1.775001 -1.752214 0
M  V30 45 H -2.925843 -2.600230 -0.403168 0
M  V30 46 H -4.537694 -2.318832 -2.077126 0
M  V30 47 H -3.483291 -2.788611 -3.402831 0
M  V30 48 H -4.596691 -4.739502 -1.304845 0
M  V30 49 H -5.290246 -4.302498 -2.866468 0
M  V30 50 H -3.965277 -6.010682 -3.789392 0
M  V30 END ATOM
M  V30 BEGIN BOND
M  V30 1 2 1 2
M  V30 2 1 2 3
M  V30 3 1 3 4
M  V30 4 1 4 5
M  V30 5 2 5 6
M  V30 6 1 6 7
M  V30 7 1 7 8
M  V30 8 1 8 9
M  V30 9 2 9 10
M  V30 10 1 10 11
M  V30 11 2 11 12
M  V30 12 1 12 13
M  V30 13 2 13 14
M  V30 14 1 7 15
M  V30 15 1 2 16
M  V30 16 2 16 17
M  V30 17 1 17 18
M  V30 18 2 18 19
M  V30 19 1 19 20
M  V30 20 2 20 21
M  V30 21 1 21 22
M  V30 22 1 22 23
M  V30 23 2 23 24
M  V30 24 1 22 25
M  V30 25 1 25 26
M  V30 26 1 26 27
M  V30 27 1 27 28
M  V30 28 1 28 29
M  V30 29 2 29 30
M  V30 30 2 15 4
M  V30 31 1 24 16
M  V30 32 1 14 9
M  V30 33 1 23 19
M  V30 34 1 29 21
M  V30 35 1 3 31
M  V30 36 1 5 32
M  V30 37 1 8 33
M  V30 38 1 8 34
M  V30 39 1 10 35
M  V30 40 1 11 36
M  V30 41 1 12 37
M  V30 42 1 13 38
M  V30 43 1 15 39
M  V30 44 1 17 40
M  V30 45 1 18 41
M  V30 46 1 20 42
M  V30 47 1 24 43
M  V30 48 1 25 44
M  V30 49 1 25 45
M  V30 50 1 26 46
M  V30 51 1 26 47
M  V30 52 1 27 48
M  V30 53 1 27 49
M  V30 54 1 28 50
M  V30 END BOND
M  V30 END CTAB
M  END
>  <Dataset>  (347) 
ChEMBL_Kinases

>  <Ligand_Instance>  (347) 
nan

>  <PDB_ID>  (347) 
nan

>  <Standardized_SMILES>  (347) 
O=C(Nc1cnn(Cc2ccccn2)c1)c1ccc2cc3n(c2c1)CCCNC3=O

>  <Name>  (347) 
nan

>  <Pocket>  (347) 
nan

>  <ATP_Site>  (347) 
nan

>  <Peripheral>  (347) 
nan

>  <Num_H_Atoms_ProtBoundConf>  (347) 
nan

>  <Num_Resolved_Atoms>  (347) 
nan

>  <Num_Not_Resolved_Atoms>  (347) 
nan

$$$$
CHEMBL1933193
     RDKit          3D

  0  0  0  0  0  0  0  0  0  0999 V3000
M  V30 BEGIN CTAB
M  V30 COUNTS 49 53 0 0 0
M  V30 BEGIN ATOM
M  V30 1 O -4.772742 -2.404015 0.231311 0
M  V30 2 C -4.356168 -3.091802 1.183843 0
M  V30 3 N -3.386155 -2.568510 2.060697 0
M  V30 4 C -2.689291 -1.327682 2.144734 0
M  V30 5 C -1.484301 -1.215754 1.468631 0
M  V30 6 C -0.772857 -0.046075 1.515216 0
M  V30 7 C 0.506604 0.139630 0.824339 0
M  V30 8 C 1.103478 -0.860982 0.062868 0
M  V30 9 C 2.274191 -0.293525 -0.408729 0
M  V30 10 C 2.388889 1.002063 0.045935 0
M  V30 11 N 1.312465 1.239459 0.786189 0
M  V30 12 C 3.535282 1.883102 -0.284441 0
M  V30 13 C 3.834012 2.825272 0.863989 0
M  V30 14 C 4.576284 3.951830 0.183635 0
M  V30 15 N 4.119463 3.988256 -1.185570 0
M  V30 16 C 3.233818 2.861429 -1.390516 0
M  V30 17 C 4.773229 1.062507 -0.558632 0
M  V30 18 N 4.435725 0.066926 -1.557131 0
M  V30 19 C 3.346480 -0.813628 -1.260737 0
M  V30 20 O 3.315478 -1.990837 -1.717686 0
M  V30 21 C -1.293032 1.018593 2.256639 0
M  V30 22 C -2.504095 0.886069 2.928056 0
M  V30 23 N -3.178134 -0.294209 2.854797 0
M  V30 24 C -4.798825 -4.444137 1.486545 0
M  V30 25 C -5.750252 -4.986824 0.645112 0
M  V30 26 C -6.230119 -6.273474 0.860050 0
M  V30 27 C -5.770605 -7.055024 1.925155 0
M  V30 28 C -4.812327 -6.448521 2.734833 0
M  V30 29 N -4.347307 -5.202609 2.527132 0
M  V30 30 H -2.952448 -3.037360 2.896355 0
M  V30 31 H -1.107324 -2.044836 0.908088 0
M  V30 32 H 0.733724 -1.874153 -0.125038 0
M  V30 33 H 1.073133 2.113616 1.282552 0
M  V30 34 H 4.477719 2.268748 1.577337 0
M  V30 35 H 2.919051 3.175027 1.380607 0
M  V30 36 H 4.389617 4.874408 0.747264 0
M  V30 37 H 5.661211 3.727570 0.253298 0
M  V30 38 H 4.957088 3.883902 -1.807972 0
M  V30 39 H 3.382310 2.336850 -2.341599 0
M  V30 40 H 2.191057 3.193075 -1.343707 0
M  V30 41 H 5.112697 0.608793 0.395577 0
M  V30 42 H 5.578323 1.694448 -0.954433 0
M  V30 43 H 4.932109 -0.056695 -2.484068 0
M  V30 44 H -0.800695 1.960753 2.342484 0
M  V30 45 H -2.935807 1.705834 3.517602 0
M  V30 46 H -6.163993 -4.448540 -0.209488 0
M  V30 47 H -6.971926 -6.762536 0.245617 0
M  V30 48 H -6.103122 -8.052205 2.140753 0
M  V30 49 H -4.389011 -6.981679 3.598109 0
M  V30 END ATOM
M  V30 BEGIN BOND
M  V30 1 2 1 2
M  V30 2 1 2 3
M  V30 3 1 3 4
M  V30 4 2 4 5
M  V30 5 1 5 6
M  V30 6 1 6 7
M  V30 7 2 7 8
M  V30 8 1 8 9
M  V30 9 2 9 10
M  V30 10 1 10 11
M  V30 11 1 10 12
M  V30 12 1 12 13
M  V30 13 1 13 14
M  V30 14 1 14 15
M  V30 15 1 15 16
M  V30 16 1 12 17
M  V30 17 1 17 18
M  V30 18 1 18 19
M  V30 19 2 19 20
M  V30 20 2 6 21
M  V30 21 1 21 22
M  V30 22 2 22 23
M  V30 23 1 2 24
M  V30 24 2 24 25
M  V30 25 1 25 26
M  V30 26 2 26 27
M  V30 27 1 27 28
M  V30 28 2 28 29
M  V30 29 1 23 4
M  V30 30 1 29 24
M  V30 31 1 11 7
M  V30 32 1 16 12
M  V30 33 1 19 9
M  V30 34 1 3 30
M  V30 35 1 5 31
M  V30 36 1 8 32
M  V30 37 1 11 33
M  V30 38 1 13 34
M  V30 39 1 13 35
M  V30 40 1 14 36
M  V30 41 1 14 37
M  V30 42 1 15 38
M  V30 43 1 16 39
M  V30 44 1 16 40
M  V30 45 1 17 41
M  V30 46 1 17 42
M  V30 47 1 18 43
M  V30 48 1 21 44
M  V30 49 1 22 45
M  V30 50 1 25 46
M  V30 51 1 26 47
M  V30 52 1 27 48
M  V30 53 1 28 49
M  V30 END BOND
M  V30 END CTAB
M  END
>  <Dataset>  (348) 
ChEMBL_Kinases

>  <Ligand_Instance>  (348) 
nan

>  <PDB_ID>  (348) 
nan

>  <Standardized_SMILES>  (348) 
O=C(Nc1cc(-c2cc3c([nH]2)C2(CCNC2)CNC3=O)ccn1)c1ccccn1

>  <Name>  (348) 
nan

>  <Pocket>  (348) 
nan

>  <ATP_Site>  (348) 
nan

>  <Peripheral>  (348) 
nan

>  <Num_H_Atoms_ProtBoundConf>  (348) 
nan

>  <Num_Resolved_Atoms>  (348) 
nan

>  <Num_Not_Resolved_Atoms>  (348) 
nan

$$$$
CHEMBL1933192
     RDKit          3D

  0  0  0  0  0  0  0  0  0  0999 V3000
M  V30 BEGIN CTAB
M  V30 COUNTS 54 58 0 0 0
M  V30 BEGIN ATOM
M  V30 1 O 0.353349 -4.363796 1.695251 0
M  V30 2 C 0.196494 -4.659641 0.481801 0
M  V30 3 N 0.782814 -3.873006 -0.533693 0
M  V30 4 C 1.544761 -2.749807 -0.097950 0
M  V30 5 C 0.919861 -1.530815 0.069825 0
M  V30 6 C 1.540136 -0.375285 0.483732 0
M  V30 7 C 0.815084 0.882165 0.639897 0
M  V30 8 C -0.535757 1.025691 0.391216 0
M  V30 9 C -0.924267 2.310976 0.624941 0
M  V30 10 C 0.214176 2.975214 1.027189 0
M  V30 11 N 1.239283 2.075970 1.021978 0
M  V30 12 C 0.160403 4.419357 1.370252 0
M  V30 13 C 1.493718 5.021008 1.081585 0
M  V30 14 C 2.168355 5.096313 2.433422 0
M  V30 15 N 1.305985 4.429117 3.368644 0
M  V30 16 C -0.035948 4.537354 2.867545 0
M  V30 17 C -0.958579 5.114056 0.618919 0
M  V30 18 N -2.204423 4.425060 0.874608 0
M  V30 19 C -2.197302 3.024046 0.532348 0
M  V30 20 O -3.256493 2.414914 0.160278 0
M  V30 21 C 2.899186 -0.441595 0.753099 0
M  V30 22 C 3.533048 -1.678156 0.582896 0
M  V30 23 N 2.868813 -2.789776 0.170525 0
M  V30 24 C -0.612251 -5.841587 0.197472 0
M  V30 25 C -1.141745 -6.543379 1.261743 0
M  V30 26 C -1.929944 -7.688748 1.098551 0
M  V30 27 C -2.146144 -8.075583 -0.207377 0
M  V30 28 C -1.646242 -7.418810 -1.312803 0
M  V30 29 O -1.917182 -7.883319 -2.597547 0
M  V30 30 C -3.060014 -7.439534 -3.324949 0
M  V30 31 F -3.069356 -8.060785 -4.550895 0
M  V30 32 F -3.007773 -6.073073 -3.538138 0
M  V30 33 F -4.241562 -7.705286 -2.674119 0
M  V30 34 C -0.878834 -6.298977 -1.072720 0
M  V30 35 H 0.652499 -4.118806 -1.542200 0
M  V30 36 H -0.149053 -1.451309 -0.135324 0
M  V30 37 H -1.256973 0.267977 0.053718 0
M  V30 38 H 2.240445 2.299609 1.287264 0
M  V30 39 H 1.467053 5.993833 0.585581 0
M  V30 40 H 2.130838 4.337222 0.451554 0
M  V30 41 H 3.144857 4.562199 2.457969 0
M  V30 42 H 2.338732 6.120109 2.788429 0
M  V30 43 H 1.553845 3.408611 3.473015 0
M  V30 44 H -0.465558 5.515810 3.146420 0
M  V30 45 H -0.701294 3.749454 3.263829 0
M  V30 46 H -0.680921 5.103882 -0.452915 0
M  V30 47 H -1.056837 6.141038 0.987455 0
M  V30 48 H -3.114120 4.803176 1.275061 0
M  V30 49 H 3.467509 0.421621 1.084360 0
M  V30 50 H 4.601407 -1.726123 0.795666 0
M  V30 51 H -0.983037 -6.254545 2.304813 0
M  V30 52 H -2.328384 -8.213787 1.952435 0
M  V30 53 H -2.758081 -8.965911 -0.353150 0
M  V30 54 H -0.483617 -5.777792 -1.912808 0
M  V30 END ATOM
M  V30 BEGIN BOND
M  V30 1 2 1 2
M  V30 2 1 2 3
M  V30 3 1 3 4
M  V30 4 2 4 5
M  V30 5 1 5 6
M  V30 6 1 6 7
M  V30 7 2 7 8
M  V30 8 1 8 9
M  V30 9 2 9 10
M  V30 10 1 10 11
M  V30 11 1 10 12
M  V30 12 1 12 13
M  V30 13 1 13 14
M  V30 14 1 14 15
M  V30 15 1 15 16
M  V30 16 1 12 17
M  V30 17 1 17 18
M  V30 18 1 18 19
M  V30 19 2 19 20
M  V30 20 2 6 21
M  V30 21 1 21 22
M  V30 22 2 22 23
M  V30 23 1 2 24
M  V30 24 2 24 25
M  V30 25 1 25 26
M  V30 26 2 26 27
M  V30 27 1 27 28
M  V30 28 1 28 29
M  V30 29 1 29 30
M  V30 30 1 30 31
M  V30 31 1 30 32
M  V30 32 1 30 33
M  V30 33 2 28 34
M  V30 34 1 23 4
M  V30 35 1 34 24
M  V30 36 1 11 7
M  V30 37 1 16 12
M  V30 38 1 19 9
M  V30 39 1 3 35
M  V30 40 1 5 36
M  V30 41 1 8 37
M  V30 42 1 11 38
M  V30 43 1 13 39
M  V30 44 1 13 40
M  V30 45 1 14 41
M  V30 46 1 14 42
M  V30 47 1 15 43
M  V30 48 1 16 44
M  V30 49 1 16 45
M  V30 50 1 17 46
M  V30 51 1 17 47
M  V30 52 1 18 48
M  V30 53 1 21 49
M  V30 54 1 22 50
M  V30 55 1 25 51
M  V30 56 1 26 52
M  V30 57 1 27 53
M  V30 58 1 34 54
M  V30 END BOND
M  V30 END CTAB
M  END
>  <Dataset>  (349) 
ChEMBL_Kinases

>  <Ligand_Instance>  (349) 
nan

>  <PDB_ID>  (349) 
nan

>  <Standardized_SMILES>  (349) 
O=C(Nc1cc(-c2cc3c([nH]2)C2(CCNC2)CNC3=O)ccn1)c1cccc(OC(F)(F)F)c1

>  <Name>  (349) 
nan

>  <Pocket>  (349) 
nan

>  <ATP_Site>  (349) 
nan

>  <Peripheral>  (349) 
nan

>  <Num_H_Atoms_ProtBoundConf>  (349) 
nan

>  <Num_Resolved_Atoms>  (349) 
nan

>  <Num_Not_Resolved_Atoms>  (349) 
nan

$$$$
CHEMBL1933191
     RDKit          3D

  0  0  0  0  0  0  0  0  0  0999 V3000
M  V30 BEGIN CTAB
M  V30 COUNTS 50 54 0 0 0
M  V30 BEGIN ATOM
M  V30 1 O -0.272113 -2.355476 3.742352 0
M  V30 2 C -0.973924 -3.304098 3.308808 0
M  V30 3 N -2.067296 -2.849650 2.517042 0
M  V30 4 C -2.025233 -1.406118 2.459553 0
M  V30 5 C -1.354712 -0.702483 1.501928 0
M  V30 6 C -1.379378 0.678927 1.539851 0
M  V30 7 C -0.666667 1.452603 0.521848 0
M  V30 8 C -0.635076 2.832128 0.479144 0
M  V30 9 C 0.132996 3.155778 -0.618815 0
M  V30 10 C 0.522399 1.965709 -1.177894 0
M  V30 11 N 0.030334 0.903501 -0.476035 0
M  V30 12 C 1.377308 1.885808 -2.400609 0
M  V30 13 C 2.816658 1.594029 -2.044179 0
M  V30 14 C 2.934715 0.094206 -2.138162 0
M  V30 15 N 1.920601 -0.339741 -3.076642 0
M  V30 16 C 1.008961 0.732411 -3.301211 0
M  V30 17 C 1.314273 3.146014 -3.226175 0
M  V30 18 N 1.405538 4.352230 -2.436875 0
M  V30 19 C 0.580234 4.388917 -1.256333 0
M  V30 20 O 0.230629 5.489174 -0.754337 0
M  V30 21 C -2.089601 1.276246 2.556752 0
M  V30 22 C -2.776264 0.582327 3.537465 0
M  V30 23 N -2.708362 -0.778649 3.437745 0
M  V30 24 C -0.704743 -4.716306 3.582032 0
M  V30 25 C -1.419669 -5.813532 3.148420 0
M  V30 26 C -1.017550 -7.082527 3.505944 0
M  V30 27 C 0.069585 -7.329702 4.280714 0
M  V30 28 C 0.797618 -6.248603 4.724459 0
M  V30 29 F 1.898168 -6.447545 5.505626 0
M  V30 30 C 0.402397 -4.976344 4.371562 0
M  V30 31 H -2.725766 -3.575531 2.100386 0
M  V30 32 H -0.820779 -1.250730 0.737248 0
M  V30 33 H -1.085357 3.574877 1.124467 0
M  V30 34 H 0.166952 -0.115562 -0.673332 0
M  V30 35 H 2.955612 1.884372 -0.989056 0
M  V30 36 H 3.537734 2.107580 -2.713244 0
M  V30 37 H 3.929250 -0.187437 -2.498679 0
M  V30 38 H 2.721444 -0.422237 -1.187411 0
M  V30 39 H 1.495747 -1.244885 -2.796825 0
M  V30 40 H 0.916112 1.042040 -4.361509 0
M  V30 41 H -0.007935 0.357952 -2.984406 0
M  V30 42 H 0.355873 3.154283 -3.786127 0
M  V30 43 H 2.171990 3.111684 -3.937889 0
M  V30 44 H 1.970831 5.231278 -2.558293 0
M  V30 45 H -2.132557 2.374940 2.620290 0
M  V30 46 H -3.330529 1.067494 4.331127 0
M  V30 47 H -2.287126 -5.562989 2.526980 0
M  V30 48 H -1.657838 -7.859591 3.105216 0
M  V30 49 H 0.356101 -8.342737 4.542008 0
M  V30 50 H 1.019935 -4.165468 4.754333 0
M  V30 END ATOM
M  V30 BEGIN BOND
M  V30 1 2 1 2
M  V30 2 1 2 3
M  V30 3 1 3 4
M  V30 4 2 4 5
M  V30 5 1 5 6
M  V30 6 1 6 7
M  V30 7 2 7 8
M  V30 8 1 8 9
M  V30 9 2 9 10
M  V30 10 1 10 11
M  V30 11 1 10 12
M  V30 12 1 12 13
M  V30 13 1 13 14
M  V30 14 1 14 15
M  V30 15 1 15 16
M  V30 16 1 12 17
M  V30 17 1 17 18
M  V30 18 1 18 19
M  V30 19 2 19 20
M  V30 20 2 6 21
M  V30 21 1 21 22
M  V30 22 2 22 23
M  V30 23 1 2 24
M  V30 24 2 24 25
M  V30 25 1 25 26
M  V30 26 2 26 27
M  V30 27 1 27 28
M  V30 28 1 28 29
M  V30 29 2 28 30
M  V30 30 1 23 4
M  V30 31 1 30 24
M  V30 32 1 11 7
M  V30 33 1 16 12
M  V30 34 1 19 9
M  V30 35 1 3 31
M  V30 36 1 5 32
M  V30 37 1 8 33
M  V30 38 1 11 34
M  V30 39 1 13 35
M  V30 40 1 13 36
M  V30 41 1 14 37
M  V30 42 1 14 38
M  V30 43 1 15 39
M  V30 44 1 16 40
M  V30 45 1 16 41
M  V30 46 1 17 42
M  V30 47 1 17 43
M  V30 48 1 18 44
M  V30 49 1 21 45
M  V30 50 1 22 46
M  V30 51 1 25 47
M  V30 52 1 26 48
M  V30 53 1 27 49
M  V30 54 1 30 50
M  V30 END BOND
M  V30 END CTAB
M  END
>  <Dataset>  (350) 
ChEMBL_Kinases

>  <Ligand_Instance>  (350) 
nan

>  <PDB_ID>  (350) 
nan

>  <Standardized_SMILES>  (350) 
O=C(Nc1cc(-c2cc3c([nH]2)C2(CCNC2)CNC3=O)ccn1)c1cccc(F)c1

>  <Name>  (350) 
nan

>  <Pocket>  (350) 
nan

>  <ATP_Site>  (350) 
nan

>  <Peripheral>  (350) 
nan

>  <Num_H_Atoms_ProtBoundConf>  (350) 
nan

>  <Num_Resolved_Atoms>  (350) 
nan

>  <Num_Not_Resolved_Atoms>  (350) 
nan

$$$$
CHEMBL1933190
     RDKit          3D

  0  0  0  0  0  0  0  0  0  0999 V3000
M  V30 BEGIN CTAB
M  V30 COUNTS 50 54 0 0 0
M  V30 BEGIN ATOM
M  V30 1 O -1.980880 -3.800160 0.480512 0
M  V30 2 C -1.556352 -4.237325 1.582417 0
M  V30 3 N -1.479805 -3.269137 2.603650 0
M  V30 4 C -1.918359 -1.990807 2.114840 0
M  V30 5 C -1.127021 -1.043292 1.539883 0
M  V30 6 C -1.729402 0.128864 1.129817 0
M  V30 7 C -0.914340 1.172926 0.507078 0
M  V30 8 C -1.386285 2.390407 0.051862 0
M  V30 9 C -0.341197 3.124053 -0.475737 0
M  V30 10 C 0.755522 2.302136 -0.316666 0
M  V30 11 N 0.388718 1.149246 0.269429 0
M  V30 12 C 2.075971 2.791728 -0.787487 0
M  V30 13 C 2.945109 3.304236 0.342184 0
M  V30 14 C 3.703705 2.090451 0.817948 0
M  V30 15 N 3.397069 1.025144 -0.111118 0
M  V30 16 C 2.920034 1.650172 -1.320392 0
M  V30 17 C 1.944956 3.808171 -1.895691 0
M  V30 18 N 1.056638 4.897675 -1.536194 0
M  V30 19 C -0.235892 4.462444 -1.095069 0
M  V30 20 O -1.297920 5.145547 -1.198596 0
M  V30 21 C -3.086206 0.316767 1.304127 0
M  V30 22 C -3.882179 -0.670450 1.897742 0
M  V30 23 N -3.261733 -1.816122 2.292509 0
M  V30 24 C -1.200175 -5.633858 1.697917 0
M  V30 25 C -1.358008 -6.405740 0.553410 0
M  V30 26 C -1.027744 -7.763285 0.611437 0
M  V30 27 C -0.554469 -8.319375 1.786718 0
M  V30 28 F -0.256152 -9.624691 1.777006 0
M  V30 29 C -0.410537 -7.522656 2.903382 0
M  V30 30 C -0.730266 -6.161512 2.884077 0
M  V30 31 H -1.125479 -3.596444 3.552823 0
M  V30 32 H -0.099260 -1.253119 1.438060 0
M  V30 33 H -2.416636 2.716224 0.102280 0
M  V30 34 H 0.978388 0.317302 0.529603 0
M  V30 35 H 2.299825 3.682173 1.154146 0
M  V30 36 H 3.599982 4.133962 0.000924 0
M  V30 37 H 4.787188 2.343239 0.801797 0
M  V30 38 H 3.375564 1.791233 1.833336 0
M  V30 39 H 4.278725 0.497164 -0.356258 0
M  V30 40 H 3.750494 2.023493 -1.920685 0
M  V30 41 H 2.272072 0.916871 -1.843311 0
M  V30 42 H 1.631910 3.308926 -2.835118 0
M  V30 43 H 2.941665 4.254464 -2.071744 0
M  V30 44 H 1.195272 5.939716 -1.543130 0
M  V30 45 H -3.548345 1.240629 0.978516 0
M  V30 46 H -4.949162 -0.526474 2.036505 0
M  V30 47 H -1.724665 -6.022647 -0.394691 0
M  V30 48 H -1.157483 -8.354959 -0.295680 0
M  V30 49 H -0.032913 -7.996858 3.817179 0
M  V30 50 H -0.608420 -5.557891 3.773719 0
M  V30 END ATOM
M  V30 BEGIN BOND
M  V30 1 2 1 2
M  V30 2 1 2 3
M  V30 3 1 3 4
M  V30 4 2 4 5
M  V30 5 1 5 6
M  V30 6 1 6 7
M  V30 7 2 7 8
M  V30 8 1 8 9
M  V30 9 2 9 10
M  V30 10 1 10 11
M  V30 11 1 10 12
M  V30 12 1 12 13
M  V30 13 1 13 14
M  V30 14 1 14 15
M  V30 15 1 15 16
M  V30 16 1 12 17
M  V30 17 1 17 18
M  V30 18 1 18 19
M  V30 19 2 19 20
M  V30 20 2 6 21
M  V30 21 1 21 22
M  V30 22 2 22 23
M  V30 23 1 2 24
M  V30 24 2 24 25
M  V30 25 1 25 26
M  V30 26 2 26 27
M  V30 27 1 27 28
M  V30 28 1 27 29
M  V30 29 2 29 30
M  V30 30 1 23 4
M  V30 31 1 30 24
M  V30 32 1 11 7
M  V30 33 1 16 12
M  V30 34 1 19 9
M  V30 35 1 3 31
M  V30 36 1 5 32
M  V30 37 1 8 33
M  V30 38 1 11 34
M  V30 39 1 13 35
M  V30 40 1 13 36
M  V30 41 1 14 37
M  V30 42 1 14 38
M  V30 43 1 15 39
M  V30 44 1 16 40
M  V30 45 1 16 41
M  V30 46 1 17 42
M  V30 47 1 17 43
M  V30 48 1 18 44
M  V30 49 1 21 45
M  V30 50 1 22 46
M  V30 51 1 25 47
M  V30 52 1 26 48
M  V30 53 1 29 49
M  V30 54 1 30 50
M  V30 END BOND
M  V30 END CTAB
M  END
>  <Dataset>  (351) 
ChEMBL_Kinases

>  <Ligand_Instance>  (351) 
nan

>  <PDB_ID>  (351) 
nan

>  <Standardized_SMILES>  (351) 
O=C(Nc1cc(-c2cc3c([nH]2)C2(CCNC2)CNC3=O)ccn1)c1ccc(F)cc1

>  <Name>  (351) 
nan

>  <Pocket>  (351) 
nan

>  <ATP_Site>  (351) 
nan

>  <Peripheral>  (351) 
nan

>  <Num_H_Atoms_ProtBoundConf>  (351) 
nan

>  <Num_Resolved_Atoms>  (351) 
nan

>  <Num_Not_Resolved_Atoms>  (351) 
nan

$$$$
CHEMBL1933189
     RDKit          3D

  0  0  0  0  0  0  0  0  0  0999 V3000
M  V30 BEGIN CTAB
M  V30 COUNTS 56 61 0 0 0
M  V30 BEGIN ATOM
M  V30 1 O 1.048337 -3.726258 -1.007226 0
M  V30 2 C 0.112072 -4.289176 -0.369987 0
M  V30 3 N -0.023591 -3.790607 0.951097 0
M  V30 4 C 0.789378 -2.775545 1.512462 0
M  V30 5 C 0.287137 -1.507109 1.310934 0
M  V30 6 C 0.984874 -0.403480 1.810557 0
M  V30 7 C 0.546973 0.991555 1.657000 0
M  V30 8 C -0.638144 1.283845 0.974385 0
M  V30 9 C -0.776501 2.658028 0.997415 0
M  V30 10 C 0.301861 3.153598 1.676916 0
M  V30 11 N 1.088643 2.142409 2.067457 0
M  V30 12 C 0.544107 4.591390 1.931223 0
M  V30 13 C 1.050863 4.824903 3.337717 0
M  V30 14 C 2.162608 5.821787 3.238817 0
M  V30 15 N 2.471951 5.998331 1.851405 0
M  V30 16 C 1.622525 5.159730 1.062801 0
M  V30 17 C -0.703324 5.425406 1.767148 0
M  V30 18 N -1.568022 4.954401 0.702607 0
M  V30 19 C -1.800100 3.561689 0.457768 0
M  V30 20 O -2.798462 3.132420 -0.169061 0
M  V30 21 C 2.153719 -0.702900 2.482874 0
M  V30 22 C 2.663286 -1.969156 2.688927 0
M  V30 23 N 1.939577 -2.984533 2.180618 0
M  V30 24 C -0.739357 -5.337529 -0.926696 0
M  V30 25 C -1.758914 -5.948126 -0.227531 0
M  V30 26 C -2.505221 -6.934717 -0.858817 0
M  V30 27 C -2.227124 -7.293365 -2.161999 0
M  V30 28 C -2.978128 -8.275344 -2.774317 0
M  V30 29 C -2.751428 -8.679485 -4.073393 0
M  V30 30 C -1.728713 -8.075500 -4.792732 0
M  V30 31 C -0.971429 -7.089658 -4.184505 0
M  V30 32 C -1.209443 -6.689804 -2.872398 0
M  V30 33 C -0.469104 -5.704907 -2.233037 0
M  V30 34 H -0.771662 -4.184936 1.577645 0
M  V30 35 H -0.630974 -1.280658 0.782170 0
M  V30 36 H -1.348206 0.608984 0.500241 0
M  V30 37 H 1.994439 2.155292 2.607306 0
M  V30 38 H 1.346183 3.895407 3.863245 0
M  V30 39 H 0.252472 5.287426 3.986384 0
M  V30 40 H 3.056105 5.367909 3.738392 0
M  V30 41 H 1.960134 6.754266 3.787993 0
M  V30 42 H 2.309275 7.007780 1.618925 0
M  V30 43 H 2.271296 4.321749 0.688028 0
M  V30 44 H 1.193286 5.697332 0.185113 0
M  V30 45 H -1.228698 5.430350 2.736080 0
M  V30 46 H -0.366621 6.469249 1.498309 0
M  V30 47 H -2.060781 5.643402 0.065062 0
M  V30 48 H 2.727093 0.144033 2.888850 0
M  V30 49 H 3.588092 -2.128308 3.226829 0
M  V30 50 H -1.952676 -5.648100 0.786657 0
M  V30 51 H -3.289833 -7.381851 -0.272556 0
M  V30 52 H -3.794729 -8.776563 -2.240109 0
M  V30 53 H -3.370575 -9.455107 -4.506294 0
M  V30 54 H -1.526707 -8.373001 -5.817624 0
M  V30 55 H -0.164738 -6.598625 -4.720911 0
M  V30 56 H 0.310422 -5.284185 -2.865318 0
M  V30 END ATOM
M  V30 BEGIN BOND
M  V30 1 2 1 2
M  V30 2 1 2 3
M  V30 3 1 3 4
M  V30 4 2 4 5
M  V30 5 1 5 6
M  V30 6 1 6 7
M  V30 7 2 7 8
M  V30 8 1 8 9
M  V30 9 2 9 10
M  V30 10 1 10 11
M  V30 11 1 10 12
M  V30 12 1 12 13
M  V30 13 1 13 14
M  V30 14 1 14 15
M  V30 15 1 15 16
M  V30 16 1 12 17
M  V30 17 1 17 18
M  V30 18 1 18 19
M  V30 19 2 19 20
M  V30 20 2 6 21
M  V30 21 1 21 22
M  V30 22 2 22 23
M  V30 23 1 2 24
M  V30 24 2 24 25
M  V30 25 1 25 26
M  V30 26 2 26 27
M  V30 27 1 27 28
M  V30 28 2 28 29
M  V30 29 1 29 30
M  V30 30 2 30 31
M  V30 31 1 31 32
M  V30 32 2 32 33
M  V30 33 1 23 4
M  V30 34 1 33 24
M  V30 35 1 11 7
M  V30 36 1 16 12
M  V30 37 1 32 27
M  V30 38 1 19 9
M  V30 39 1 3 34
M  V30 40 1 5 35
M  V30 41 1 8 36
M  V30 42 1 11 37
M  V30 43 1 13 38
M  V30 44 1 13 39
M  V30 45 1 14 40
M  V30 46 1 14 41
M  V30 47 1 15 42
M  V30 48 1 16 43
M  V30 49 1 16 44
M  V30 50 1 17 45
M  V30 51 1 17 46
M  V30 52 1 18 47
M  V30 53 1 21 48
M  V30 54 1 22 49
M  V30 55 1 25 50
M  V30 56 1 26 51
M  V30 57 1 28 52
M  V30 58 1 29 53
M  V30 59 1 30 54
M  V30 60 1 31 55
M  V30 61 1 33 56
M  V30 END BOND
M  V30 END CTAB
M  END
>  <Dataset>  (352) 
ChEMBL_Kinases

>  <Ligand_Instance>  (352) 
nan

>  <PDB_ID>  (352) 
nan

>  <Standardized_SMILES>  (352) 
O=C(Nc1cc(-c2cc3c([nH]2)C2(CCNC2)CNC3=O)ccn1)c1ccc2ccccc2c1

>  <Name>  (352) 
nan

>  <Pocket>  (352) 
nan

>  <ATP_Site>  (352) 
nan

>  <Peripheral>  (352) 
nan

>  <Num_H_Atoms_ProtBoundConf>  (352) 
nan

>  <Num_Resolved_Atoms>  (352) 
nan

>  <Num_Not_Resolved_Atoms>  (352) 
nan

$$$$
CHEMBL1933188
     RDKit          3D

  0  0  0  0  0  0  0  0  0  0999 V3000
M  V30 BEGIN CTAB
M  V30 COUNTS 56 60 0 0 0
M  V30 BEGIN ATOM
M  V30 1 C 7.261285 -5.893745 0.588650 0
M  V30 2 C 6.036983 -5.113195 0.883228 0
M  V30 3 C 6.017480 -4.062048 1.777068 0
M  V30 4 C 4.843052 -3.374336 2.007391 0
M  V30 5 C 3.690207 -3.741729 1.341121 0
M  V30 6 C 2.405925 -3.062125 1.530959 0
M  V30 7 O 1.340195 -3.401833 0.914981 0
M  V30 8 N 2.202090 -1.969589 2.403944 0
M  V30 9 C 0.844960 -1.538125 2.359137 0
M  V30 10 C 0.407399 -0.584491 1.481429 0
M  V30 11 C -0.922224 -0.257895 1.539393 0
M  V30 12 C -1.519075 0.754822 0.647489 0
M  V30 13 C -0.808361 1.445634 -0.300660 0
M  V30 14 C -1.707912 2.297363 -0.929950 0
M  V30 15 C -2.949308 2.102978 -0.346643 0
M  V30 16 N -2.805035 1.159448 0.609493 0
M  V30 17 C -4.223272 2.808127 -0.706813 0
M  V30 18 C -5.399518 1.866057 -0.612940 0
M  V30 19 C -6.523461 2.656714 -0.019774 0
M  V30 20 N -6.017169 3.971955 0.298295 0
M  V30 21 C -4.572496 3.861922 0.315891 0
M  V30 22 C -4.128849 3.384224 -2.094007 0
M  V30 23 N -2.838751 3.966643 -2.355346 0
M  V30 24 C -1.644118 3.282342 -1.993214 0
M  V30 25 O -0.524001 3.493998 -2.557963 0
M  V30 26 C -1.735850 -0.905380 2.472895 0
M  V30 27 C -1.278093 -1.861628 3.347234 0
M  V30 28 N 0.042429 -2.157962 3.259964 0
M  V30 29 C 3.700004 -4.792709 0.444465 0
M  V30 30 C 4.890643 -5.487907 0.212681 0
M  V30 31 C 4.820191 -6.608546 -0.768095 0
M  V30 32 H 7.724395 -5.637315 -0.386495 0
M  V30 33 H 8.021550 -5.793830 1.402973 0
M  V30 34 H 7.051176 -6.999254 0.546142 0
M  V30 35 H 6.927545 -3.776899 2.298859 0
M  V30 36 H 4.814893 -2.555573 2.699674 0
M  V30 37 H 3.023702 -1.613839 2.959172 0
M  V30 38 H 1.062283 -0.119108 0.789171 0
M  V30 39 H 0.242207 1.367493 -0.537136 0
M  V30 40 H -3.498471 0.737474 1.267471 0
M  V30 41 H -5.134530 1.027810 0.084102 0
M  V30 42 H -5.659175 1.441253 -1.616556 0
M  V30 43 H -7.364289 2.669878 -0.742815 0
M  V30 44 H -6.884916 2.175835 0.923037 0
M  V30 45 H -6.366208 4.714031 -0.322267 0
M  V30 46 H -4.188054 4.862756 0.042482 0
M  V30 47 H -4.274830 3.549260 1.336253 0
M  V30 48 H -4.922246 4.134587 -2.246510 0
M  V30 49 H -4.349249 2.535290 -2.801403 0
M  V30 50 H -2.734525 4.910704 -2.819330 0
M  V30 51 H -2.800796 -0.681172 2.558938 0
M  V30 52 H -1.934407 -2.346367 4.060433 0
M  V30 53 H 2.786801 -5.085793 -0.085069 0
M  V30 54 H 4.138204 -7.390447 -0.338212 0
M  V30 55 H 4.239335 -6.184329 -1.634937 0
M  V30 56 H 5.797760 -6.987296 -1.065435 0
M  V30 END ATOM
M  V30 BEGIN BOND
M  V30 1 1 1 2
M  V30 2 2 2 3
M  V30 3 1 3 4
M  V30 4 2 4 5
M  V30 5 1 5 6
M  V30 6 2 6 7
M  V30 7 1 6 8
M  V30 8 1 8 9
M  V30 9 2 9 10
M  V30 10 1 10 11
M  V30 11 1 11 12
M  V30 12 2 12 13
M  V30 13 1 13 14
M  V30 14 2 14 15
M  V30 15 1 15 16
M  V30 16 1 15 17
M  V30 17 1 17 18
M  V30 18 1 18 19
M  V30 19 1 19 20
M  V30 20 1 20 21
M  V30 21 1 17 22
M  V30 22 1 22 23
M  V30 23 1 23 24
M  V30 24 2 24 25
M  V30 25 2 11 26
M  V30 26 1 26 27
M  V30 27 2 27 28
M  V30 28 1 5 29
M  V30 29 2 29 30
M  V30 30 1 30 31
M  V30 31 1 30 2
M  V30 32 1 28 9
M  V30 33 1 16 12
M  V30 34 1 21 17
M  V30 35 1 24 14
M  V30 36 1 1 32
M  V30 37 1 1 33
M  V30 38 1 1 34
M  V30 39 1 3 35
M  V30 40 1 4 36
M  V30 41 1 8 37
M  V30 42 1 10 38
M  V30 43 1 13 39
M  V30 44 1 16 40
M  V30 45 1 18 41
M  V30 46 1 18 42
M  V30 47 1 19 43
M  V30 48 1 19 44
M  V30 49 1 20 45
M  V30 50 1 21 46
M  V30 51 1 21 47
M  V30 52 1 22 48
M  V30 53 1 22 49
M  V30 54 1 23 50
M  V30 55 1 26 51
M  V30 56 1 27 52
M  V30 57 1 29 53
M  V30 58 1 31 54
M  V30 59 1 31 55
M  V30 60 1 31 56
M  V30 END BOND
M  V30 END CTAB
M  END
>  <Dataset>  (353) 
ChEMBL_Kinases

>  <Ligand_Instance>  (353) 
nan

>  <PDB_ID>  (353) 
nan

>  <Standardized_SMILES>  (353) 
Cc1ccc(C(=O)Nc2cc(-c3cc4c([nH]3)C3(CCNC3)CNC4=O)ccn2)cc1C

>  <Name>  (353) 
nan

>  <Pocket>  (353) 
nan

>  <ATP_Site>  (353) 
nan

>  <Peripheral>  (353) 
nan

>  <Num_H_Atoms_ProtBoundConf>  (353) 
nan

>  <Num_Resolved_Atoms>  (353) 
nan

>  <Num_Not_Resolved_Atoms>  (353) 
nan

$$$$
CHEMBL1933187
     RDKit          3D

  0  0  0  0  0  0  0  0  0  0999 V3000
M  V30 BEGIN CTAB
M  V30 COUNTS 56 60 0 0 0
M  V30 BEGIN ATOM
M  V30 1 O -1.086094 -5.113452 -0.743354 0
M  V30 2 C -2.185054 -4.760828 -0.241870 0
M  V30 3 N -2.254382 -3.783280 0.780893 0
M  V30 4 C -1.138494 -3.101692 1.350304 0
M  V30 5 C -0.697641 -1.910426 0.799045 0
M  V30 6 C 0.363834 -1.211779 1.298560 0
M  V30 7 C 0.843322 0.045545 0.730956 0
M  V30 8 C 0.257793 0.637167 -0.369090 0
M  V30 9 C 0.982132 1.793508 -0.600368 0
M  V30 10 C 1.987763 1.907051 0.336457 0
M  V30 11 N 1.864969 0.815749 1.130530 0
M  V30 12 C 2.967539 3.040587 0.386776 0
M  V30 13 C 4.305663 2.638388 0.917231 0
M  V30 14 C 4.456486 2.759286 2.403751 0
M  V30 15 C 3.820792 4.006143 2.976792 0
M  V30 16 N 2.414920 3.973986 2.593754 0
M  V30 17 C 2.384548 4.200351 1.169698 0
M  V30 18 C 3.149615 3.551070 -1.032289 0
M  V30 19 N 1.830861 3.949157 -1.546599 0
M  V30 20 C 0.884742 2.870393 -1.608411 0
M  V30 21 O -0.028097 2.812822 -2.497135 0
M  V30 22 C 1.008299 -1.751927 2.413820 0
M  V30 23 C 0.577322 -2.947520 2.978847 0
M  V30 24 N -0.488960 -3.601765 2.436997 0
M  V30 25 C -3.376429 -5.416162 -0.774739 0
M  V30 26 C -3.224770 -6.358157 -1.771922 0
M  V30 27 C -4.340468 -7.005790 -2.306058 0
M  V30 28 C -5.614677 -6.726383 -1.857752 0
M  V30 29 C -5.777167 -5.786514 -0.861483 0
M  V30 30 C -7.138830 -5.461183 -0.354797 0
M  V30 31 F -7.863232 -6.644545 -0.447714 0
M  V30 32 F -7.125062 -4.975741 0.934317 0
M  V30 33 F -7.750781 -4.570628 -1.209126 0
M  V30 34 C -4.661951 -5.158366 -0.347466 0
M  V30 35 H -3.167732 -3.493570 1.194074 0
M  V30 36 H -1.206931 -1.505364 -0.063801 0
M  V30 37 H -0.577855 0.362788 -0.995866 0
M  V30 38 H 2.425581 0.528495 1.948334 0
M  V30 39 H 4.580282 1.611333 0.628755 0
M  V30 40 H 5.062937 3.341835 0.463667 0
M  V30 41 H 5.562602 2.803460 2.607233 0
M  V30 42 H 4.088568 1.912204 2.986757 0
M  V30 43 H 3.856412 3.935816 4.065742 0
M  V30 44 H 4.334752 4.881966 2.558467 0
M  V30 45 H 2.034380 3.039033 2.860854 0
M  V30 46 H 1.369538 4.394552 0.770181 0
M  V30 47 H 3.008220 5.089937 0.948110 0
M  V30 48 H 3.738654 4.493521 -0.964669 0
M  V30 49 H 3.601940 2.819621 -1.710300 0
M  V30 50 H 1.480582 4.886328 -1.870359 0
M  V30 51 H 1.859739 -1.262279 2.874186 0
M  V30 52 H 1.103543 -3.331636 3.841609 0
M  V30 53 H -2.250354 -6.642966 -2.188638 0
M  V30 54 H -4.311126 -7.754144 -3.086980 0
M  V30 55 H -6.507360 -7.206542 -2.245626 0
M  V30 56 H -4.811376 -4.425314 0.432557 0
M  V30 END ATOM
M  V30 BEGIN BOND
M  V30 1 2 1 2
M  V30 2 1 2 3
M  V30 3 1 3 4
M  V30 4 2 4 5
M  V30 5 1 5 6
M  V30 6 1 6 7
M  V30 7 2 7 8
M  V30 8 1 8 9
M  V30 9 2 9 10
M  V30 10 1 10 11
M  V30 11 1 10 12
M  V30 12 1 12 13
M  V30 13 1 13 14
M  V30 14 1 14 15
M  V30 15 1 15 16
M  V30 16 1 16 17
M  V30 17 1 12 18
M  V30 18 1 18 19
M  V30 19 1 19 20
M  V30 20 2 20 21
M  V30 21 2 6 22
M  V30 22 1 22 23
M  V30 23 2 23 24
M  V30 24 1 2 25
M  V30 25 2 25 26
M  V30 26 1 26 27
M  V30 27 2 27 28
M  V30 28 1 28 29
M  V30 29 1 29 30
M  V30 30 1 30 31
M  V30 31 1 30 32
M  V30 32 1 30 33
M  V30 33 2 29 34
M  V30 34 1 24 4
M  V30 35 1 34 25
M  V30 36 1 11 7
M  V30 37 1 17 12
M  V30 38 1 20 9
M  V30 39 1 3 35
M  V30 40 1 5 36
M  V30 41 1 8 37
M  V30 42 1 11 38
M  V30 43 1 13 39
M  V30 44 1 13 40
M  V30 45 1 14 41
M  V30 46 1 14 42
M  V30 47 1 15 43
M  V30 48 1 15 44
M  V30 49 1 16 45
M  V30 50 1 17 46
M  V30 51 1 17 47
M  V30 52 1 18 48
M  V30 53 1 18 49
M  V30 54 1 19 50
M  V30 55 1 22 51
M  V30 56 1 23 52
M  V30 57 1 26 53
M  V30 58 1 27 54
M  V30 59 1 28 55
M  V30 60 1 34 56
M  V30 END BOND
M  V30 END CTAB
M  END
>  <Dataset>  (354) 
ChEMBL_Kinases

>  <Ligand_Instance>  (354) 
nan

>  <PDB_ID>  (354) 
nan

>  <Standardized_SMILES>  (354) 
O=C(Nc1cc(-c2cc3c([nH]2)C2(CCCNC2)CNC3=O)ccn1)c1cccc(C(F)(F)F)c1

>  <Name>  (354) 
nan

>  <Pocket>  (354) 
nan

>  <ATP_Site>  (354) 
nan

>  <Peripheral>  (354) 
nan

>  <Num_H_Atoms_ProtBoundConf>  (354) 
nan

>  <Num_Resolved_Atoms>  (354) 
nan

>  <Num_Not_Resolved_Atoms>  (354) 
nan

$$$$
CHEMBL1933186
     RDKit          3D

  0  0  0  0  0  0  0  0  0  0999 V3000
M  V30 BEGIN CTAB
M  V30 COUNTS 53 57 0 0 0
M  V30 BEGIN ATOM
M  V30 1 O -0.009554 -4.601672 -0.203867 0
M  V30 2 C -0.053593 -4.845667 1.038747 0
M  V30 3 N 0.872714 -4.133635 1.827453 0
M  V30 4 C 1.656967 -3.279284 0.963063 0
M  V30 5 C 1.211537 -1.997816 0.710621 0
M  V30 6 C 1.992693 -1.225444 -0.117267 0
M  V30 7 C 1.592187 0.141397 -0.434573 0
M  V30 8 C 2.260116 1.018803 -1.233878 0
M  V30 9 C 1.497264 2.165893 -1.225439 0
M  V30 10 C 0.369268 2.027686 -0.440990 0
M  V30 11 N 0.481807 0.758784 0.020548 0
M  V30 12 C -0.638542 3.075671 -0.233094 0
M  V30 13 C -0.259997 3.972370 0.952646 0
M  V30 14 C -0.203514 3.034129 2.145812 0
M  V30 15 C -1.570003 2.492124 2.391089 0
M  V30 16 N -2.243145 1.939877 1.267222 0
M  V30 17 C -2.019742 2.569617 0.010999 0
M  V30 18 C -0.672399 3.994552 -1.437805 0
M  V30 19 N 0.679268 4.468072 -1.667718 0
M  V30 20 C 1.691475 3.467475 -1.898302 0
M  V30 21 O 2.681775 3.714809 -2.640014 0
M  V30 22 C 3.155508 -1.740674 -0.649075 0
M  V30 23 C 3.582793 -3.038826 -0.377932 0
M  V30 24 N 2.805739 -3.799509 0.442395 0
M  V30 25 C -1.030961 -5.813361 1.524884 0
M  V30 26 C -1.842379 -6.393612 0.569666 0
M  V30 27 C -2.791616 -7.326893 1.001899 0
M  V30 28 F -3.602881 -7.910641 0.068779 0
M  V30 29 C -2.885430 -7.635219 2.360560 0
M  V30 30 C -2.058852 -7.036919 3.289727 0
M  V30 31 F -2.228223 -7.406176 4.601384 0
M  V30 32 C -1.110382 -6.106503 2.870688 0
M  V30 33 H 0.861236 -4.312870 2.855749 0
M  V30 34 H 0.290857 -1.640139 1.152834 0
M  V30 35 H 3.180851 0.853763 -1.757248 0
M  V30 36 H -0.200273 0.288626 0.657574 0
M  V30 37 H 0.691305 4.459545 0.730434 0
M  V30 38 H -1.123224 4.633925 1.103658 0
M  V30 39 H 0.590427 2.277472 2.056048 0
M  V30 40 H 0.060482 3.664279 3.033949 0
M  V30 41 H -1.441225 1.651460 3.134093 0
M  V30 42 H -2.202129 3.228028 2.920599 0
M  V30 43 H -2.429425 0.934797 1.268447 0
M  V30 44 H -2.726787 3.420447 -0.150029 0
M  V30 45 H -2.250068 1.822804 -0.787571 0
M  V30 46 H -1.323808 4.874675 -1.259253 0
M  V30 47 H -1.018001 3.515290 -2.359713 0
M  V30 48 H 0.964880 5.473486 -1.677282 0
M  V30 49 H 3.744431 -1.098937 -1.298235 0
M  V30 50 H 4.508170 -3.424396 -0.811435 0
M  V30 51 H -1.786863 -6.169749 -0.486507 0
M  V30 52 H -3.636980 -8.362552 2.632183 0
M  V30 53 H -0.477693 -5.653344 3.611076 0
M  V30 END ATOM
M  V30 BEGIN BOND
M  V30 1 2 1 2
M  V30 2 1 2 3
M  V30 3 1 3 4
M  V30 4 2 4 5
M  V30 5 1 5 6
M  V30 6 1 6 7
M  V30 7 2 7 8
M  V30 8 1 8 9
M  V30 9 2 9 10
M  V30 10 1 10 11
M  V30 11 1 10 12
M  V30 12 1 12 13
M  V30 13 1 13 14
M  V30 14 1 14 15
M  V30 15 1 15 16
M  V30 16 1 16 17
M  V30 17 1 12 18
M  V30 18 1 18 19
M  V30 19 1 19 20
M  V30 20 2 20 21
M  V30 21 2 6 22
M  V30 22 1 22 23
M  V30 23 2 23 24
M  V30 24 1 2 25
M  V30 25 2 25 26
M  V30 26 1 26 27
M  V30 27 1 27 28
M  V30 28 2 27 29
M  V30 29 1 29 30
M  V30 30 1 30 31
M  V30 31 2 30 32
M  V30 32 1 24 4
M  V30 33 1 32 25
M  V30 34 1 11 7
M  V30 35 1 17 12
M  V30 36 1 20 9
M  V30 37 1 3 33
M  V30 38 1 5 34
M  V30 39 1 8 35
M  V30 40 1 11 36
M  V30 41 1 13 37
M  V30 42 1 13 38
M  V30 43 1 14 39
M  V30 44 1 14 40
M  V30 45 1 15 41
M  V30 46 1 15 42
M  V30 47 1 16 43
M  V30 48 1 17 44
M  V30 49 1 17 45
M  V30 50 1 18 46
M  V30 51 1 18 47
M  V30 52 1 19 48
M  V30 53 1 22 49
M  V30 54 1 23 50
M  V30 55 1 26 51
M  V30 56 1 29 52
M  V30 57 1 32 53
M  V30 END BOND
M  V30 END CTAB
M  END
>  <Dataset>  (355) 
ChEMBL_Kinases

>  <Ligand_Instance>  (355) 
nan

>  <PDB_ID>  (355) 
nan

>  <Standardized_SMILES>  (355) 
O=C(Nc1cc(-c2cc3c([nH]2)C2(CCCNC2)CNC3=O)ccn1)c1cc(F)cc(F)c1

>  <Name>  (355) 
nan

>  <Pocket>  (355) 
nan

>  <ATP_Site>  (355) 
nan

>  <Peripheral>  (355) 
nan

>  <Num_H_Atoms_ProtBoundConf>  (355) 
nan

>  <Num_Resolved_Atoms>  (355) 
nan

>  <Num_Not_Resolved_Atoms>  (355) 
nan

$$$$
CHEMBL1933185
     RDKit          3D

  0  0  0  0  0  0  0  0  0  0999 V3000
M  V30 BEGIN CTAB
M  V30 COUNTS 52 56 0 0 0
M  V30 BEGIN ATOM
M  V30 1 O 0.200957 -3.868136 0.450744 0
M  V30 2 C -0.362297 -4.755327 -0.232546 0
M  V30 3 N -1.350532 -4.357320 -1.151360 0
M  V30 4 C -1.847787 -3.078283 -1.459131 0
M  V30 5 C -1.459816 -1.884369 -0.904963 0
M  V30 6 C -1.986499 -0.658111 -1.249352 0
M  V30 7 C -1.510909 0.561757 -0.604923 0
M  V30 8 C -1.961164 1.838209 -0.866668 0
M  V30 9 C -1.244264 2.676672 -0.038541 0
M  V30 10 C -0.361622 1.945262 0.728271 0
M  V30 11 N -0.564657 0.667035 0.344625 0
M  V30 12 C 0.586080 2.483480 1.740318 0
M  V30 13 C 1.933321 2.709079 1.107711 0
M  V30 14 C 2.864220 3.249310 2.169991 0
M  V30 15 C 2.886856 2.333291 3.355369 0
M  V30 16 N 1.600912 1.978842 3.873651 0
M  V30 17 C 0.787013 1.438716 2.819256 0
M  V30 18 C 0.034237 3.761694 2.278781 0
M  V30 19 N -0.307873 4.629071 1.167830 0
M  V30 20 C -1.221736 4.136973 0.193885 0
M  V30 21 O -2.004675 4.883322 -0.472501 0
M  V30 22 C -2.971849 -0.588322 -2.212351 0
M  V30 23 C -3.342606 -1.799166 -2.751944 0
M  V30 24 N -2.807050 -2.963141 -2.389873 0
M  V30 25 C 0.044543 -6.128652 -0.027559 0
M  V30 26 C 1.014696 -6.471303 0.881392 0
M  V30 27 C 1.379373 -7.790594 1.052505 0
M  V30 28 C 0.816972 -8.829386 0.348298 0
M  V30 29 C -0.150028 -8.419877 -0.547962 0
M  V30 30 N -0.534677 -7.134149 -0.743605 0
M  V30 31 H -1.752080 -5.187238 -1.666777 0
M  V30 32 H -0.706648 -1.875240 -0.159917 0
M  V30 33 H -2.726684 2.171337 -1.574927 0
M  V30 34 H -0.057064 -0.159161 0.727517 0
M  V30 35 H 1.908865 3.470007 0.305231 0
M  V30 36 H 2.371387 1.794934 0.700272 0
M  V30 37 H 3.924383 3.282013 1.791227 0
M  V30 38 H 2.643661 4.300704 2.449836 0
M  V30 39 H 3.428250 1.407212 3.072029 0
M  V30 40 H 3.409791 2.898040 4.172842 0
M  V30 41 H 1.148851 2.655063 4.494918 0
M  V30 42 H -0.132090 0.957352 3.158436 0
M  V30 43 H 1.417336 0.635181 2.340076 0
M  V30 44 H 0.684992 4.255768 3.015660 0
M  V30 45 H -0.930449 3.492097 2.796024 0
M  V30 46 H 0.060408 5.613378 1.002722 0
M  V30 47 H -3.430104 0.337176 -2.532261 0
M  V30 48 H -4.106449 -1.829904 -3.510600 0
M  V30 49 H 1.485224 -5.697017 1.456980 0
M  V30 50 H 2.155981 -8.001690 1.789181 0
M  V30 51 H 1.087068 -9.861526 0.467156 0
M  V30 52 H -0.679426 -9.121611 -1.171288 0
M  V30 END ATOM
M  V30 BEGIN BOND
M  V30 1 2 1 2
M  V30 2 1 2 3
M  V30 3 1 3 4
M  V30 4 2 4 5
M  V30 5 1 5 6
M  V30 6 1 6 7
M  V30 7 2 7 8
M  V30 8 1 8 9
M  V30 9 2 9 10
M  V30 10 1 10 11
M  V30 11 1 10 12
M  V30 12 1 12 13
M  V30 13 1 13 14
M  V30 14 1 14 15
M  V30 15 1 15 16
M  V30 16 1 16 17
M  V30 17 1 12 18
M  V30 18 1 18 19
M  V30 19 1 19 20
M  V30 20 2 20 21
M  V30 21 2 6 22
M  V30 22 1 22 23
M  V30 23 2 23 24
M  V30 24 1 2 25
M  V30 25 2 25 26
M  V30 26 1 26 27
M  V30 27 2 27 28
M  V30 28 1 28 29
M  V30 29 2 29 30
M  V30 30 1 24 4
M  V30 31 1 30 25
M  V30 32 1 11 7
M  V30 33 1 17 12
M  V30 34 1 20 9
M  V30 35 1 3 31
M  V30 36 1 5 32
M  V30 37 1 8 33
M  V30 38 1 11 34
M  V30 39 1 13 35
M  V30 40 1 13 36
M  V30 41 1 14 37
M  V30 42 1 14 38
M  V30 43 1 15 39
M  V30 44 1 15 40
M  V30 45 1 16 41
M  V30 46 1 17 42
M  V30 47 1 17 43
M  V30 48 1 18 44
M  V30 49 1 18 45
M  V30 50 1 19 46
M  V30 51 1 22 47
M  V30 52 1 23 48
M  V30 53 1 26 49
M  V30 54 1 27 50
M  V30 55 1 28 51
M  V30 56 1 29 52
M  V30 END BOND
M  V30 END CTAB
M  END
>  <Dataset>  (356) 
ChEMBL_Kinases

>  <Ligand_Instance>  (356) 
nan

>  <PDB_ID>  (356) 
nan

>  <Standardized_SMILES>  (356) 
O=C(Nc1cc(-c2cc3c([nH]2)C2(CCCNC2)CNC3=O)ccn1)c1ccccn1

>  <Name>  (356) 
nan

>  <Pocket>  (356) 
nan

>  <ATP_Site>  (356) 
nan

>  <Peripheral>  (356) 
nan

>  <Num_H_Atoms_ProtBoundConf>  (356) 
nan

>  <Num_Resolved_Atoms>  (356) 
nan

>  <Num_Not_Resolved_Atoms>  (356) 
nan

$$$$
CHEMBL1933184
     RDKit          3D

  0  0  0  0  0  0  0  0  0  0999 V3000
M  V30 BEGIN CTAB
M  V30 COUNTS 56 60 0 0 0
M  V30 BEGIN ATOM
M  V30 1 O -1.810743 -3.877528 -0.493291 0
M  V30 2 C -2.244243 -3.970124 0.689958 0
M  V30 3 N -1.269279 -3.791579 1.698939 0
M  V30 4 C 0.012774 -3.541476 1.121418 0
M  V30 5 C 0.503604 -2.291082 0.813156 0
M  V30 6 C 1.760308 -2.224666 0.260408 0
M  V30 7 C 2.320553 -0.917201 -0.082670 0
M  V30 8 C 3.562468 -0.672264 -0.642124 0
M  V30 9 C 3.709808 0.682143 -0.808890 0
M  V30 10 C 2.538704 1.292555 -0.345055 0
M  V30 11 N 1.770233 0.292237 0.065401 0
M  V30 12 C 2.377117 2.772822 -0.386751 0
M  V30 13 C 2.839768 3.362094 0.911169 0
M  V30 14 C 1.745983 3.683823 1.884910 0
M  V30 15 C 0.597625 4.365294 1.155542 0
M  V30 16 N 0.061804 3.363810 0.274591 0
M  V30 17 C 0.979406 3.152746 -0.794348 0
M  V30 18 C 3.272725 3.370546 -1.459801 0
M  V30 19 N 4.635834 2.892819 -1.380055 0
M  V30 20 C 4.824783 1.480675 -1.355196 0
M  V30 21 O 5.856285 0.919904 -1.761968 0
M  V30 22 C 2.505709 -3.355827 0.020833 0
M  V30 23 C 1.992022 -4.602613 0.338794 0
M  V30 24 N 0.756665 -4.655132 0.881209 0
M  V30 25 C -3.656459 -4.242434 0.918179 0
M  V30 26 C -4.444506 -4.384719 -0.206581 0
M  V30 27 C -5.786842 -4.643380 -0.017236 0
M  V30 28 C -6.348084 -4.760612 1.235239 0
M  V30 29 C -7.805586 -5.040969 1.379572 0
M  V30 30 F -8.530600 -3.872320 1.505123 0
M  V30 31 F -8.194668 -5.731102 0.239284 0
M  V30 32 F -7.940324 -5.842162 2.510962 0
M  V30 33 C -5.518647 -4.610114 2.322561 0
M  V30 34 C -4.161887 -4.349089 2.186140 0
M  V30 35 H -1.582130 -3.859485 2.693079 0
M  V30 36 H -0.122419 -1.433569 1.021275 0
M  V30 37 H 4.325050 -1.391660 -0.919708 0
M  V30 38 H 0.798866 0.368892 0.482617 0
M  V30 39 H 3.534398 2.635759 1.385484 0
M  V30 40 H 3.422474 4.295599 0.770373 0
M  V30 41 H 2.118463 4.449317 2.604550 0
M  V30 42 H 1.351690 2.819309 2.423546 0
M  V30 43 H -0.154346 4.766326 1.836477 0
M  V30 44 H 1.011012 5.186426 0.510295 0
M  V30 45 H -0.257266 2.508577 0.737601 0
M  V30 46 H 0.588919 2.264661 -1.367381 0
M  V30 47 H 0.934232 3.985760 -1.524198 0
M  V30 48 H 2.901288 3.181357 -2.489435 0
M  V30 49 H 3.315137 4.472914 -1.338925 0
M  V30 50 H 5.497727 3.500756 -1.338939 0
M  V30 51 H 3.496845 -3.272575 -0.417410 0
M  V30 52 H 2.545988 -5.532855 0.167544 0
M  V30 53 H -4.055188 -4.302203 -1.233969 0
M  V30 54 H -6.394745 -4.752849 -0.926286 0
M  V30 55 H -6.014411 -4.712679 3.295655 0
M  V30 56 H -3.550389 -4.238722 3.071178 0
M  V30 END ATOM
M  V30 BEGIN BOND
M  V30 1 2 1 2
M  V30 2 1 2 3
M  V30 3 1 3 4
M  V30 4 2 4 5
M  V30 5 1 5 6
M  V30 6 1 6 7
M  V30 7 2 7 8
M  V30 8 1 8 9
M  V30 9 2 9 10
M  V30 10 1 10 11
M  V30 11 1 10 12
M  V30 12 1 12 13
M  V30 13 1 13 14
M  V30 14 1 14 15
M  V30 15 1 15 16
M  V30 16 1 16 17
M  V30 17 1 12 18
M  V30 18 1 18 19
M  V30 19 1 19 20
M  V30 20 2 20 21
M  V30 21 2 6 22
M  V30 22 1 22 23
M  V30 23 2 23 24
M  V30 24 1 2 25
M  V30 25 2 25 26
M  V30 26 1 26 27
M  V30 27 2 27 28
M  V30 28 1 28 29
M  V30 29 1 29 30
M  V30 30 1 29 31
M  V30 31 1 29 32
M  V30 32 1 28 33
M  V30 33 2 33 34
M  V30 34 1 24 4
M  V30 35 1 34 25
M  V30 36 1 11 7
M  V30 37 1 17 12
M  V30 38 1 20 9
M  V30 39 1 3 35
M  V30 40 1 5 36
M  V30 41 1 8 37
M  V30 42 1 11 38
M  V30 43 1 13 39
M  V30 44 1 13 40
M  V30 45 1 14 41
M  V30 46 1 14 42
M  V30 47 1 15 43
M  V30 48 1 15 44
M  V30 49 1 16 45
M  V30 50 1 17 46
M  V30 51 1 17 47
M  V30 52 1 18 48
M  V30 53 1 18 49
M  V30 54 1 19 50
M  V30 55 1 22 51
M  V30 56 1 23 52
M  V30 57 1 26 53
M  V30 58 1 27 54
M  V30 59 1 33 55
M  V30 60 1 34 56
M  V30 END BOND
M  V30 END CTAB
M  END
>  <Dataset>  (357) 
ChEMBL_Kinases

>  <Ligand_Instance>  (357) 
nan

>  <PDB_ID>  (357) 
nan

>  <Standardized_SMILES>  (357) 
O=C(Nc1cc(-c2cc3c([nH]2)C2(CCCNC2)CNC3=O)ccn1)c1ccc(C(F)(F)F)cc1

>  <Name>  (357) 
nan

>  <Pocket>  (357) 
nan

>  <ATP_Site>  (357) 
nan

>  <Peripheral>  (357) 
nan

>  <Num_H_Atoms_ProtBoundConf>  (357) 
nan

>  <Num_Resolved_Atoms>  (357) 
nan

>  <Num_Not_Resolved_Atoms>  (357) 
nan

$$$$
CHEMBL1933183
     RDKit          3D

  0  0  0  0  0  0  0  0  0  0999 V3000
M  V30 BEGIN CTAB
M  V30 COUNTS 57 61 0 0 0
M  V30 BEGIN ATOM
M  V30 1 O 1.383960 -2.208462 -1.171007 0
M  V30 2 C 2.571743 -2.615374 -1.246724 0
M  V30 3 N 3.506909 -2.095276 -0.329998 0
M  V30 4 C 3.320691 -1.148422 0.707593 0
M  V30 5 C 2.174530 -0.516228 1.057055 0
M  V30 6 C 2.068555 0.397162 2.083419 0
M  V30 7 C 0.789116 1.032212 2.391577 0
M  V30 8 C 0.572257 1.956118 3.392411 0
M  V30 9 C -0.753037 2.276830 3.319808 0
M  V30 10 C -1.374881 1.582333 2.303957 0
M  V30 11 N -0.389944 0.840580 1.772755 0
M  V30 12 C -2.806324 1.656964 1.913091 0
M  V30 13 C -3.004745 1.327527 0.458065 0
M  V30 14 C -4.449478 1.397772 0.096045 0
M  V30 15 C -5.307231 0.626088 1.061081 0
M  V30 16 N -4.449883 -0.155207 1.915808 0
M  V30 17 C -3.589465 0.637963 2.739627 0
M  V30 18 C -3.321736 3.011628 2.283930 0
M  V30 19 N -3.012037 3.247331 3.681849 0
M  V30 20 C -1.634422 3.188767 4.080088 0
M  V30 21 O -1.159196 3.879659 5.043235 0
M  V30 22 C 3.186965 0.713208 2.827140 0
M  V30 23 C 4.343229 0.060749 2.457490 0
M  V30 24 N 4.393649 -0.820151 1.450209 0
M  V30 25 C 2.893448 -3.594412 -2.276535 0
M  V30 26 C 4.133144 -4.149461 -2.509478 0
M  V30 27 C 4.390138 -5.074673 -3.497969 0
M  V30 28 C 3.371268 -5.496671 -4.325669 0
M  V30 29 C 2.108359 -4.973881 -4.137804 0
M  V30 30 O 1.061503 -5.380450 -4.956850 0
M  V30 31 C 0.314641 -6.507809 -4.519276 0
M  V30 32 F -0.678462 -6.769575 -5.447920 0
M  V30 33 F 1.224096 -7.572702 -4.562458 0
M  V30 34 F -0.184609 -6.355214 -3.241539 0
M  V30 35 C 1.911296 -4.050735 -3.131844 0
M  V30 36 H 4.457972 -2.498037 -0.479866 0
M  V30 37 H 1.282738 -0.712173 0.529053 0
M  V30 38 H 1.285275 2.351054 4.090954 0
M  V30 39 H -0.502860 0.172637 0.958560 0
M  V30 40 H -2.380189 1.901692 -0.222356 0
M  V30 41 H -2.702445 0.251210 0.348787 0
M  V30 42 H -4.588535 0.954989 -0.933243 0
M  V30 43 H -4.815618 2.451329 -0.033322 0
M  V30 44 H -5.935011 1.313251 1.675318 0
M  V30 45 H -5.950606 -0.111790 0.512055 0
M  V30 46 H -4.995144 -0.792412 2.508063 0
M  V30 47 H -2.906359 -0.072518 3.268109 0
M  V30 48 H -4.160974 1.132915 3.556855 0
M  V30 49 H -2.738376 3.760823 1.696660 0
M  V30 50 H -4.415151 3.119853 2.102733 0
M  V30 51 H -3.701505 3.462074 4.456080 0
M  V30 52 H 3.141620 1.422394 3.636573 0
M  V30 53 H 5.270186 0.245503 2.984211 0
M  V30 54 H 4.959919 -3.846468 -1.883714 0
M  V30 55 H 5.390410 -5.473721 -3.629252 0
M  V30 56 H 3.583372 -6.216846 -5.091033 0
M  V30 57 H 0.879249 -3.677700 -3.041297 0
M  V30 END ATOM
M  V30 BEGIN BOND
M  V30 1 2 1 2
M  V30 2 1 2 3
M  V30 3 1 3 4
M  V30 4 2 4 5
M  V30 5 1 5 6
M  V30 6 1 6 7
M  V30 7 2 7 8
M  V30 8 1 8 9
M  V30 9 2 9 10
M  V30 10 1 10 11
M  V30 11 1 10 12
M  V30 12 1 12 13
M  V30 13 1 13 14
M  V30 14 1 14 15
M  V30 15 1 15 16
M  V30 16 1 16 17
M  V30 17 1 12 18
M  V30 18 1 18 19
M  V30 19 1 19 20
M  V30 20 2 20 21
M  V30 21 2 6 22
M  V30 22 1 22 23
M  V30 23 2 23 24
M  V30 24 1 2 25
M  V30 25 2 25 26
M  V30 26 1 26 27
M  V30 27 2 27 28
M  V30 28 1 28 29
M  V30 29 1 29 30
M  V30 30 1 30 31
M  V30 31 1 31 32
M  V30 32 1 31 33
M  V30 33 1 31 34
M  V30 34 2 29 35
M  V30 35 1 24 4
M  V30 36 1 35 25
M  V30 37 1 11 7
M  V30 38 1 17 12
M  V30 39 1 20 9
M  V30 40 1 3 36
M  V30 41 1 5 37
M  V30 42 1 8 38
M  V30 43 1 11 39
M  V30 44 1 13 40
M  V30 45 1 13 41
M  V30 46 1 14 42
M  V30 47 1 14 43
M  V30 48 1 15 44
M  V30 49 1 15 45
M  V30 50 1 16 46
M  V30 51 1 17 47
M  V30 52 1 17 48
M  V30 53 1 18 49
M  V30 54 1 18 50
M  V30 55 1 19 51
M  V30 56 1 22 52
M  V30 57 1 23 53
M  V30 58 1 26 54
M  V30 59 1 27 55
M  V30 60 1 28 56
M  V30 61 1 35 57
M  V30 END BOND
M  V30 END CTAB
M  END
>  <Dataset>  (358) 
ChEMBL_Kinases

>  <Ligand_Instance>  (358) 
nan

>  <PDB_ID>  (358) 
nan

>  <Standardized_SMILES>  (358) 
O=C(Nc1cc(-c2cc3c([nH]2)C2(CCCNC2)CNC3=O)ccn1)c1cccc(OC(F)(F)F)c1

>  <Name>  (358) 
nan

>  <Pocket>  (358) 
nan

>  <ATP_Site>  (358) 
nan

>  <Peripheral>  (358) 
nan

>  <Num_H_Atoms_ProtBoundConf>  (358) 
nan

>  <Num_Resolved_Atoms>  (358) 
nan

>  <Num_Not_Resolved_Atoms>  (358) 
nan

$$$$
CHEMBL1933181
     RDKit          3D

  0  0  0  0  0  0  0  0  0  0999 V3000
M  V30 BEGIN CTAB
M  V30 COUNTS 53 57 0 0 0
M  V30 BEGIN ATOM
M  V30 1 O -1.056377 -3.337123 1.318480 0
M  V30 2 C -0.899733 -4.458851 0.777344 0
M  V30 3 N -0.202406 -4.504775 -0.442971 0
M  V30 4 C 0.377072 -3.453822 -1.195404 0
M  V30 5 C 0.389929 -2.133095 -0.900569 0
M  V30 6 C 0.975849 -1.157896 -1.682416 0
M  V30 7 C 0.935230 0.247250 -1.274611 0
M  V30 8 C 1.489470 1.292634 -1.984994 0
M  V30 9 C 1.246079 2.443893 -1.286553 0
M  V30 10 C 0.540356 2.057852 -0.155196 0
M  V30 11 N 0.361858 0.724388 -0.165636 0
M  V30 12 C 0.128847 3.118072 0.812980 0
M  V30 13 C -1.199374 2.784164 1.459836 0
M  V30 14 C -1.070765 2.673050 2.958937 0
M  V30 15 C 0.097211 1.783294 3.278696 0
M  V30 16 N 1.347469 2.272084 2.770640 0
M  V30 17 C 1.206446 3.365712 1.854558 0
M  V30 18 C -0.053313 4.465852 0.114724 0
M  V30 19 N 1.173997 4.846719 -0.584837 0
M  V30 20 C 1.590440 3.855538 -1.545011 0
M  V30 21 O 2.241382 4.138785 -2.606030 0
M  V30 22 C 1.602573 -1.525825 -2.857523 0
M  V30 23 C 1.580913 -2.875637 -3.144079 0
M  V30 24 N 0.995506 -3.783922 -2.347055 0
M  V30 25 C -1.451225 -5.612803 1.456464 0
M  V30 26 C -1.371005 -6.912728 1.004746 0
M  V30 27 C -1.900085 -8.005265 1.659687 0
M  V30 28 C -2.562243 -7.811225 2.854816 0
M  V30 29 F -3.101803 -8.846895 3.541560 0
M  V30 30 C -2.675274 -6.531722 3.358532 0
M  V30 31 C -2.123978 -5.481457 2.654897 0
M  V30 32 H -0.129824 -5.487853 -0.804983 0
M  V30 33 H -0.071638 -1.789584 -0.017687 0
M  V30 34 H 2.023721 1.186715 -2.937004 0
M  V30 35 H -0.138408 0.170870 0.569177 0
M  V30 36 H -2.004073 3.495035 1.196284 0
M  V30 37 H -1.550049 1.791079 1.097446 0
M  V30 38 H -1.981775 2.129367 3.312390 0
M  V30 39 H -0.997534 3.658289 3.454864 0
M  V30 40 H -0.097806 0.772524 2.893121 0
M  V30 41 H 0.164824 1.707892 4.384946 0
M  V30 42 H 1.997992 1.544302 2.446576 0
M  V30 43 H 0.901844 4.305602 2.381597 0
M  V30 44 H 2.146408 3.522070 1.314519 0
M  V30 45 H -0.156691 5.218122 0.929109 0
M  V30 46 H -0.928790 4.495188 -0.540926 0
M  V30 47 H 1.793860 5.690313 -0.518030 0
M  V30 48 H 2.078032 -0.803710 -3.508591 0
M  V30 49 H 2.046297 -3.247320 -4.040318 0
M  V30 50 H -0.875292 -7.131091 0.092464 0
M  V30 51 H -1.806871 -9.016596 1.254821 0
M  V30 52 H -3.193093 -6.375451 4.294247 0
M  V30 53 H -2.248117 -4.485990 3.109565 0
M  V30 END ATOM
M  V30 BEGIN BOND
M  V30 1 2 1 2
M  V30 2 1 2 3
M  V30 3 1 3 4
M  V30 4 2 4 5
M  V30 5 1 5 6
M  V30 6 1 6 7
M  V30 7 2 7 8
M  V30 8 1 8 9
M  V30 9 2 9 10
M  V30 10 1 10 11
M  V30 11 1 10 12
M  V30 12 1 12 13
M  V30 13 1 13 14
M  V30 14 1 14 15
M  V30 15 1 15 16
M  V30 16 1 16 17
M  V30 17 1 12 18
M  V30 18 1 18 19
M  V30 19 1 19 20
M  V30 20 2 20 21
M  V30 21 2 6 22
M  V30 22 1 22 23
M  V30 23 2 23 24
M  V30 24 1 2 25
M  V30 25 2 25 26
M  V30 26 1 26 27
M  V30 27 2 27 28
M  V30 28 1 28 29
M  V30 29 1 28 30
M  V30 30 2 30 31
M  V30 31 1 24 4
M  V30 32 1 31 25
M  V30 33 1 11 7
M  V30 34 1 17 12
M  V30 35 1 20 9
M  V30 36 1 3 32
M  V30 37 1 5 33
M  V30 38 1 8 34
M  V30 39 1 11 35
M  V30 40 1 13 36
M  V30 41 1 13 37
M  V30 42 1 14 38
M  V30 43 1 14 39
M  V30 44 1 15 40
M  V30 45 1 15 41
M  V30 46 1 16 42
M  V30 47 1 17 43
M  V30 48 1 17 44
M  V30 49 1 18 45
M  V30 50 1 18 46
M  V30 51 1 19 47
M  V30 52 1 22 48
M  V30 53 1 23 49
M  V30 54 1 26 50
M  V30 55 1 27 51
M  V30 56 1 30 52
M  V30 57 1 31 53
M  V30 END BOND
M  V30 END CTAB
M  END
>  <Dataset>  (359) 
ChEMBL_Kinases

>  <Ligand_Instance>  (359) 
nan

>  <PDB_ID>  (359) 
nan

>  <Standardized_SMILES>  (359) 
O=C(Nc1cc(-c2cc3c([nH]2)C2(CCCNC2)CNC3=O)ccn1)c1ccc(F)cc1

>  <Name>  (359) 
nan

>  <Pocket>  (359) 
nan

>  <ATP_Site>  (359) 
nan

>  <Peripheral>  (359) 
nan

>  <Num_H_Atoms_ProtBoundConf>  (359) 
nan

>  <Num_Resolved_Atoms>  (359) 
nan

>  <Num_Not_Resolved_Atoms>  (359) 
nan

$$$$
CHEMBL1933147
     RDKit          3D

  0  0  0  0  0  0  0  0  0  0999 V3000
M  V30 BEGIN CTAB
M  V30 COUNTS 50 54 0 0 0
M  V30 BEGIN ATOM
M  V30 1 O 1.915310 -0.263415 0.921623 0
M  V30 2 C 0.681188 -0.540049 1.017573 0
M  V30 3 N -0.063425 0.279777 1.890795 0
M  V30 4 C 0.812014 1.267822 2.477327 0
M  V30 5 C 1.141676 2.536216 2.039754 0
M  V30 6 C 2.015218 3.021166 2.993065 0
M  V30 7 C 2.647949 4.368960 2.951023 0
M  V30 8 C 3.955893 4.303695 2.213828 0
M  V30 9 C 5.113829 4.043487 2.913518 0
M  V30 10 C 6.296361 3.990385 2.206636 0
M  V30 11 C 6.370165 4.184516 0.842689 0
M  V30 12 C 5.191431 4.446640 0.148634 0
M  V30 13 C 3.988244 4.506217 0.830802 0
M  V30 14 N 2.173764 2.053393 3.941687 0
M  V30 15 O 1.437519 1.011106 3.603603 0
M  V30 16 C 0.154451 -1.654237 0.235476 0
M  V30 17 C 1.061276 -2.322912 -0.560818 0
M  V30 18 C 0.617053 -3.400220 -1.333832 0
M  V30 19 C -0.738345 -3.725781 -1.240666 0
M  V30 20 C -1.344075 -4.764235 -1.938101 0
M  V30 21 C -2.670513 -4.678438 -1.512042 0
M  V30 22 N -2.842298 -3.657134 -0.620663 0
M  V30 23 C -1.635108 -3.068608 -0.456629 0
M  V30 24 C -1.179707 -1.991497 0.313280 0
M  V30 25 C -3.952917 -3.144162 0.101467 0
M  V30 26 C -5.271436 -3.751092 -0.126941 0
M  V30 27 C -5.422386 -5.212920 -0.022547 0
M  V30 28 N -4.936351 -5.934286 -1.209539 0
M  V30 29 C -3.755904 -5.580195 -1.967733 0
M  V30 30 O -3.564823 -6.038496 -3.122120 0
M  V30 31 H -1.072908 0.081615 1.992251 0
M  V30 32 H 0.757672 2.983080 1.135898 0
M  V30 33 H 1.934042 5.050932 2.458007 0
M  V30 34 H 2.861521 4.714838 3.982025 0
M  V30 35 H 5.040090 3.893071 3.985422 0
M  V30 36 H 7.196845 3.788779 2.746226 0
M  V30 37 H 7.330412 4.130075 0.344538 0
M  V30 38 H 5.284066 4.594339 -0.922332 0
M  V30 39 H 3.076235 4.711481 0.277322 0
M  V30 40 H 2.111186 -2.072168 -0.634110 0
M  V30 41 H 1.312418 -3.934510 -1.962120 0
M  V30 42 H -1.023833 -5.514184 -2.644612 0
M  V30 43 H -1.885992 -1.463824 0.939038 0
M  V30 44 H -4.016211 -2.054806 -0.106663 0
M  V30 45 H -3.717091 -3.210347 1.192745 0
M  V30 46 H -6.000674 -3.323031 0.600388 0
M  V30 47 H -5.683276 -3.432752 -1.115083 0
M  V30 48 H -6.483951 -5.467207 0.101288 0
M  V30 49 H -4.916004 -5.626476 0.889351 0
M  V30 50 H -5.399082 -6.776045 -1.621460 0
M  V30 END ATOM
M  V30 BEGIN BOND
M  V30 1 2 1 2
M  V30 2 1 2 3
M  V30 3 1 3 4
M  V30 4 2 4 5
M  V30 5 1 5 6
M  V30 6 1 6 7
M  V30 7 1 7 8
M  V30 8 2 8 9
M  V30 9 1 9 10
M  V30 10 2 10 11
M  V30 11 1 11 12
M  V30 12 2 12 13
M  V30 13 2 6 14
M  V30 14 1 14 15
M  V30 15 1 2 16
M  V30 16 2 16 17
M  V30 17 1 17 18
M  V30 18 2 18 19
M  V30 19 1 19 20
M  V30 20 2 20 21
M  V30 21 1 21 22
M  V30 22 1 22 23
M  V30 23 2 23 24
M  V30 24 1 22 25
M  V30 25 1 25 26
M  V30 26 1 26 27
M  V30 27 1 27 28
M  V30 28 1 28 29
M  V30 29 2 29 30
M  V30 30 1 15 4
M  V30 31 1 24 16
M  V30 32 1 13 8
M  V30 33 1 23 19
M  V30 34 1 29 21
M  V30 35 1 3 31
M  V30 36 1 5 32
M  V30 37 1 7 33
M  V30 38 1 7 34
M  V30 39 1 9 35
M  V30 40 1 10 36
M  V30 41 1 11 37
M  V30 42 1 12 38
M  V30 43 1 13 39
M  V30 44 1 17 40
M  V30 45 1 18 41
M  V30 46 1 20 42
M  V30 47 1 24 43
M  V30 48 1 25 44
M  V30 49 1 25 45
M  V30 50 1 26 46
M  V30 51 1 26 47
M  V30 52 1 27 48
M  V30 53 1 27 49
M  V30 54 1 28 50
M  V30 END BOND
M  V30 END CTAB
M  END
>  <Dataset>  (360) 
ChEMBL_Kinases

>  <Ligand_Instance>  (360) 
nan

>  <PDB_ID>  (360) 
nan

>  <Standardized_SMILES>  (360) 
O=C(Nc1cc(Cc2ccccc2)no1)c1ccc2cc3n(c2c1)CCCNC3=O

>  <Name>  (360) 
nan

>  <Pocket>  (360) 
nan

>  <ATP_Site>  (360) 
nan

>  <Peripheral>  (360) 
nan

>  <Num_H_Atoms_ProtBoundConf>  (360) 
nan

>  <Num_Resolved_Atoms>  (360) 
nan

>  <Num_Not_Resolved_Atoms>  (360) 
nan

$$$$
CHEMBL1933148
     RDKit          3D

  0  0  0  0  0  0  0  0  0  0999 V3000
M  V30 BEGIN CTAB
M  V30 COUNTS 41 44 0 0 0
M  V30 BEGIN ATOM
M  V30 1 C 2.480167 -7.561026 1.036553 0
M  V30 2 N 2.623793 -6.180511 1.460729 0
M  V30 3 C 1.786875 -5.163558 1.181597 0
M  V30 4 C 2.350985 -4.050376 1.804975 0
M  V30 5 N 1.643067 -2.797151 1.663966 0
M  V30 6 C 2.113382 -2.120836 0.503696 0
M  V30 7 O 3.000149 -2.661098 -0.175367 0
M  V30 8 C 1.597668 -0.822083 0.080482 0
M  V30 9 C 2.152218 -0.284580 -1.072524 0
M  V30 10 C 1.721809 0.956307 -1.556116 0
M  V30 11 C 0.736245 1.612810 -0.846947 0
M  V30 12 C 0.104660 2.825904 -1.051216 0
M  V30 13 C -0.830546 3.067758 -0.061400 0
M  V30 14 N -0.758278 1.990168 0.742439 0
M  V30 15 C 0.162008 1.107417 0.304439 0
M  V30 16 C 0.624380 -0.121565 0.737423 0
M  V30 17 C -1.545137 1.752163 1.942394 0
M  V30 18 C -2.965627 2.146063 1.639198 0
M  V30 19 C -3.267089 3.601064 1.902911 0
M  V30 20 N -2.865622 4.456143 0.808814 0
M  V30 21 C -1.684608 4.252095 0.041642 0
M  V30 22 O -1.265079 5.184080 -0.668541 0
M  V30 23 C 3.524705 -4.438201 2.447700 0
M  V30 24 N 3.634865 -5.755097 2.198169 0
M  V30 25 H 2.995692 -8.263925 1.723786 0
M  V30 26 H 1.400616 -7.821776 1.008741 0
M  V30 27 H 2.830026 -7.658023 -0.015740 0
M  V30 28 H 0.889039 -5.283011 0.589245 0
M  V30 29 H 0.897242 -2.365847 2.254219 0
M  V30 30 H 2.925724 -0.781563 -1.644316 0
M  V30 31 H 2.166602 1.358984 -2.457272 0
M  V30 32 H 0.299387 3.520463 -1.876615 0
M  V30 33 H 0.196734 -0.548521 1.636905 0
M  V30 34 H -1.130111 2.355683 2.780735 0
M  V30 35 H -1.457953 0.701188 2.281735 0
M  V30 36 H -3.210597 1.888090 0.587856 0
M  V30 37 H -3.679094 1.557613 2.270448 0
M  V30 38 H -4.368976 3.687253 2.001644 0
M  V30 39 H -2.839993 3.901469 2.880425 0
M  V30 40 H -3.439811 5.285543 0.523555 0
M  V30 41 H 4.003317 -3.625561 2.944714 0
M  V30 END ATOM
M  V30 BEGIN BOND
M  V30 1 1 1 2
M  V30 2 1 2 3
M  V30 3 2 3 4
M  V30 4 1 4 5
M  V30 5 1 5 6
M  V30 6 2 6 7
M  V30 7 1 6 8
M  V30 8 2 8 9
M  V30 9 1 9 10
M  V30 10 2 10 11
M  V30 11 1 11 12
M  V30 12 2 12 13
M  V30 13 1 13 14
M  V30 14 1 14 15
M  V30 15 2 15 16
M  V30 16 1 14 17
M  V30 17 1 17 18
M  V30 18 1 18 19
M  V30 19 1 19 20
M  V30 20 1 20 21
M  V30 21 2 21 22
M  V30 22 1 4 23
M  V30 23 2 23 24
M  V30 24 1 24 2
M  V30 25 1 16 8
M  V30 26 1 15 11
M  V30 27 1 21 13
M  V30 28 1 1 25
M  V30 29 1 1 26
M  V30 30 1 1 27
M  V30 31 1 3 28
M  V30 32 1 5 29
M  V30 33 1 9 30
M  V30 34 1 10 31
M  V30 35 1 12 32
M  V30 36 1 16 33
M  V30 37 1 17 34
M  V30 38 1 17 35
M  V30 39 1 18 36
M  V30 40 1 18 37
M  V30 41 1 19 38
M  V30 42 1 19 39
M  V30 43 1 20 40
M  V30 44 1 23 41
M  V30 END BOND
M  V30 END CTAB
M  END
>  <Dataset>  (361) 
ChEMBL_Kinases

>  <Ligand_Instance>  (361) 
nan

>  <PDB_ID>  (361) 
nan

>  <Standardized_SMILES>  (361) 
Cn1cc(NC(=O)c2ccc3cc4n(c3c2)CCCNC4=O)cn1

>  <Name>  (361) 
nan

>  <Pocket>  (361) 
nan

>  <ATP_Site>  (361) 
nan

>  <Peripheral>  (361) 
nan

>  <Num_H_Atoms_ProtBoundConf>  (361) 
nan

>  <Num_Resolved_Atoms>  (361) 
nan

>  <Num_Not_Resolved_Atoms>  (361) 
nan

$$$$
CHEMBL1933149
     RDKit          3D

  0  0  0  0  0  0  0  0  0  0999 V3000
M  V30 BEGIN CTAB
M  V30 COUNTS 57 61 0 0 0
M  V30 BEGIN ATOM
M  V30 1 O -2.093946 -0.365222 3.104002 0
M  V30 2 C -1.693116 -1.063119 2.136468 0
M  V30 3 N -0.457118 -0.827502 1.470693 0
M  V30 4 C 0.470996 0.202700 1.799062 0
M  V30 5 C 1.527057 0.157557 2.683216 0
M  V30 6 N 2.107350 1.356286 2.655962 0
M  V30 7 N 1.488817 2.170799 1.807636 0
M  V30 8 C 1.860111 3.560995 1.528854 0
M  V30 9 C 2.842378 3.656391 0.395866 0
M  V30 10 C 4.119638 2.928317 0.651612 0
M  V30 11 C 4.995763 3.636439 1.644974 0
M  V30 12 C 5.353694 4.996096 1.121979 0
M  V30 13 C 4.525793 5.453594 -0.032731 0
M  V30 14 C 3.058544 5.134669 0.126831 0
M  V30 15 C 0.459079 1.473088 1.256562 0
M  V30 16 C -2.581837 -2.148138 1.726401 0
M  V30 17 C -3.767971 -2.331744 2.406502 0
M  V30 18 C -4.679551 -3.344461 2.083211 0
M  V30 19 C -4.393493 -4.204367 1.041606 0
M  V30 20 C -5.008587 -5.289829 0.433213 0
M  V30 21 C -4.192204 -5.746041 -0.600304 0
M  V30 22 N -3.100014 -4.957973 -0.625780 0
M  V30 23 C -3.209645 -4.034428 0.349890 0
M  V30 24 C -2.332717 -3.028008 0.692142 0
M  V30 25 C -1.980264 -5.080604 -1.555108 0
M  V30 26 C -2.418344 -5.468228 -2.930653 0
M  V30 27 C -2.495859 -6.965206 -3.140000 0
M  V30 28 N -3.801006 -7.395768 -2.618264 0
M  V30 29 C -4.497705 -6.885322 -1.484923 0
M  V30 30 O -5.547478 -7.487749 -1.167370 0
M  V30 31 H -0.139812 -1.412767 0.672929 0
M  V30 32 H 1.749456 -0.745997 3.244337 0
M  V30 33 H 0.975017 4.174931 1.259622 0
M  V30 34 H 2.319496 4.013565 2.424724 0
M  V30 35 H 2.413155 3.225632 -0.544685 0
M  V30 36 H 4.683776 2.877442 -0.298345 0
M  V30 37 H 3.876586 1.904549 0.972967 0
M  V30 38 H 5.942958 3.025632 1.703494 0
M  V30 39 H 4.574241 3.673729 2.668761 0
M  V30 40 H 6.427751 5.037333 0.780708 0
M  V30 41 H 5.295009 5.750138 1.953398 0
M  V30 42 H 4.589597 6.563667 -0.095426 0
M  V30 43 H 4.904448 5.020543 -0.992224 0
M  V30 44 H 2.686829 5.771245 0.970719 0
M  V30 45 H 2.547406 5.481839 -0.801045 0
M  V30 46 H -0.203559 1.907265 0.531588 0
M  V30 47 H -4.073080 -1.700756 3.239715 0
M  V30 48 H -5.608065 -3.486548 2.617195 0
M  V30 49 H -5.948977 -5.695376 0.720093 0
M  V30 50 H -1.416248 -2.910047 0.143458 0
M  V30 51 H -1.332778 -4.203378 -1.553474 0
M  V30 52 H -1.374769 -5.938962 -1.162917 0
M  V30 53 H -1.651157 -5.025819 -3.629482 0
M  V30 54 H -3.379780 -5.020448 -3.242451 0
M  V30 55 H -1.724901 -7.473528 -2.519240 0
M  V30 56 H -2.362300 -7.258896 -4.183839 0
M  V30 57 H -4.266653 -8.171962 -3.151038 0
M  V30 END ATOM
M  V30 BEGIN BOND
M  V30 1 2 1 2
M  V30 2 1 2 3
M  V30 3 1 3 4
M  V30 4 1 4 5
M  V30 5 2 5 6
M  V30 6 1 6 7
M  V30 7 1 7 8
M  V30 8 1 8 9
M  V30 9 1 9 10
M  V30 10 1 10 11
M  V30 11 1 11 12
M  V30 12 1 12 13
M  V30 13 1 13 14
M  V30 14 1 7 15
M  V30 15 1 2 16
M  V30 16 2 16 17
M  V30 17 1 17 18
M  V30 18 2 18 19
M  V30 19 1 19 20
M  V30 20 2 20 21
M  V30 21 1 21 22
M  V30 22 1 22 23
M  V30 23 2 23 24
M  V30 24 1 22 25
M  V30 25 1 25 26
M  V30 26 1 26 27
M  V30 27 1 27 28
M  V30 28 1 28 29
M  V30 29 2 29 30
M  V30 30 2 15 4
M  V30 31 1 24 16
M  V30 32 1 14 9
M  V30 33 1 23 19
M  V30 34 1 29 21
M  V30 35 1 3 31
M  V30 36 1 5 32
M  V30 37 1 8 33
M  V30 38 1 8 34
M  V30 39 1 9 35
M  V30 40 1 10 36
M  V30 41 1 10 37
M  V30 42 1 11 38
M  V30 43 1 11 39
M  V30 44 1 12 40
M  V30 45 1 12 41
M  V30 46 1 13 42
M  V30 47 1 13 43
M  V30 48 1 14 44
M  V30 49 1 14 45
M  V30 50 1 15 46
M  V30 51 1 17 47
M  V30 52 1 18 48
M  V30 53 1 20 49
M  V30 54 1 24 50
M  V30 55 1 25 51
M  V30 56 1 25 52
M  V30 57 1 26 53
M  V30 58 1 26 54
M  V30 59 1 27 55
M  V30 60 1 27 56
M  V30 61 1 28 57
M  V30 END BOND
M  V30 END CTAB
M  END
>  <Dataset>  (362) 
ChEMBL_Kinases

>  <Ligand_Instance>  (362) 
nan

>  <PDB_ID>  (362) 
nan

>  <Standardized_SMILES>  (362) 
O=C(Nc1cnn(CC2CCCCC2)c1)c1ccc2cc3n(c2c1)CCCNC3=O

>  <Name>  (362) 
nan

>  <Pocket>  (362) 
nan

>  <ATP_Site>  (362) 
nan

>  <Peripheral>  (362) 
nan

>  <Num_H_Atoms_ProtBoundConf>  (362) 
nan

>  <Num_Resolved_Atoms>  (362) 
nan

>  <Num_Not_Resolved_Atoms>  (362) 
nan

$$$$
CHEMBL1933162
     RDKit          3D

  0  0  0  0  0  0  0  0  0  0999 V3000
M  V30 BEGIN CTAB
M  V30 COUNTS 59 63 0 0 0
M  V30 BEGIN ATOM
M  V30 1 C 3.523299 -3.487883 7.584344 0
M  V30 2 C 3.372433 -2.917888 6.212764 0
M  V30 3 C 3.447364 -1.557502 5.993287 0
M  V30 4 C 3.313556 -0.987557 4.741914 0
M  V30 5 C 3.095006 -1.833628 3.671511 0
M  V30 6 C 2.925564 -1.426028 2.258820 0
M  V30 7 O 2.724231 -2.208300 1.275709 0
M  V30 8 N 2.970138 -0.055818 1.819354 0
M  V30 9 C 2.765297 -0.073358 0.392233 0
M  V30 10 C 1.520065 0.006969 -0.197941 0
M  V30 11 C 1.482501 -0.021903 -1.558010 0
M  V30 12 C 0.204042 0.058521 -2.257353 0
M  V30 13 C 0.015118 0.040762 -3.624068 0
M  V30 14 C -1.342421 0.138711 -3.826040 0
M  V30 15 C -2.005835 0.217294 -2.618573 0
M  V30 16 N -1.014316 0.163797 -1.700139 0
M  V30 17 C -3.475058 0.334226 -2.421037 0
M  V30 18 C -3.847824 1.793806 -2.399736 0
M  V30 19 C -4.134152 2.347331 -1.045427 0
M  V30 20 N -5.013220 1.445798 -0.327700 0
M  V30 21 C -4.166749 0.290278 0.009407 0
M  V30 22 C -3.969283 -0.461200 -1.261305 0
M  V30 23 C -4.119150 -0.294409 -3.662204 0
M  V30 24 N -3.580005 0.281211 -4.873708 0
M  V30 25 C -2.153839 0.170464 -5.043548 0
M  V30 26 O -1.641742 0.104487 -6.208957 0
M  V30 27 C 2.649277 -0.127056 -2.286851 0
M  V30 28 C 3.889557 -0.206666 -1.682703 0
M  V30 29 N 3.904835 -0.176817 -0.352071 0
M  V30 30 C 3.014471 -3.202184 3.856049 0
M  V30 31 C 3.153543 -3.742813 5.128318 0
M  V30 32 C 3.061869 -5.230575 5.299909 0
M  V30 33 H 3.815688 -2.649629 8.269480 0
M  V30 34 H 4.308298 -4.269887 7.621630 0
M  V30 35 H 2.541837 -3.837881 7.968437 0
M  V30 36 H 3.618077 -0.861498 6.810765 0
M  V30 37 H 3.360786 0.053553 4.503691 0
M  V30 38 H 3.133961 0.688451 2.559756 0
M  V30 39 H 0.647612 0.087558 0.435227 0
M  V30 40 H 0.776971 -0.034533 -4.376796 0
M  V30 41 H -1.134077 0.197257 -0.660610 0
M  V30 42 H -3.025225 2.383546 -2.854197 0
M  V30 43 H -4.731332 2.012172 -3.045045 0
M  V30 44 H -3.214522 2.479187 -0.457986 0
M  V30 45 H -4.712571 3.287020 -1.182052 0
M  V30 46 H -5.442614 1.873245 0.505784 0
M  V30 47 H -3.228545 0.734206 0.378389 0
M  V30 48 H -4.651933 -0.383326 0.729360 0
M  V30 49 H -4.920672 -0.989559 -1.487585 0
M  V30 50 H -3.222894 -1.273209 -1.078855 0
M  V30 51 H -3.861647 -1.372743 -3.629498 0
M  V30 52 H -5.223393 -0.208682 -3.614511 0
M  V30 53 H -4.131983 0.761614 -5.621437 0
M  V30 54 H 2.605271 -0.148962 -3.366830 0
M  V30 55 H 4.790770 -0.288453 -2.270280 0
M  V30 56 H 2.842146 -3.915553 3.037465 0
M  V30 57 H 3.330173 -5.512324 6.316778 0
M  V30 58 H 2.021710 -5.495507 5.011150 0
M  V30 59 H 3.808407 -5.713070 4.611068 0
M  V30 END ATOM
M  V30 BEGIN BOND
M  V30 1 1 1 2
M  V30 2 2 2 3
M  V30 3 1 3 4
M  V30 4 2 4 5
M  V30 5 1 5 6
M  V30 6 2 6 7
M  V30 7 1 6 8
M  V30 8 1 8 9
M  V30 9 2 9 10
M  V30 10 1 10 11
M  V30 11 1 11 12
M  V30 12 2 12 13
M  V30 13 1 13 14
M  V30 14 2 14 15
M  V30 15 1 15 16
M  V30 16 1 15 17
M  V30 17 1 17 18
M  V30 18 1 18 19
M  V30 19 1 19 20
M  V30 20 1 20 21
M  V30 21 1 21 22
M  V30 22 1 17 23
M  V30 23 1 23 24
M  V30 24 1 24 25
M  V30 25 2 25 26
M  V30 26 2 11 27
M  V30 27 1 27 28
M  V30 28 2 28 29
M  V30 29 1 5 30
M  V30 30 2 30 31
M  V30 31 1 31 32
M  V30 32 1 31 2
M  V30 33 1 29 9
M  V30 34 1 16 12
M  V30 35 1 22 17
M  V30 36 1 25 14
M  V30 37 1 1 33
M  V30 38 1 1 34
M  V30 39 1 1 35
M  V30 40 1 3 36
M  V30 41 1 4 37
M  V30 42 1 8 38
M  V30 43 1 10 39
M  V30 44 1 13 40
M  V30 45 1 16 41
M  V30 46 1 18 42
M  V30 47 1 18 43
M  V30 48 1 19 44
M  V30 49 1 19 45
M  V30 50 1 20 46
M  V30 51 1 21 47
M  V30 52 1 21 48
M  V30 53 1 22 49
M  V30 54 1 22 50
M  V30 55 1 23 51
M  V30 56 1 23 52
M  V30 57 1 24 53
M  V30 58 1 27 54
M  V30 59 1 28 55
M  V30 60 1 30 56
M  V30 61 1 32 57
M  V30 62 1 32 58
M  V30 63 1 32 59
M  V30 END BOND
M  V30 END CTAB
M  END
>  <Dataset>  (363) 
ChEMBL_Kinases

>  <Ligand_Instance>  (363) 
nan

>  <PDB_ID>  (363) 
nan

>  <Standardized_SMILES>  (363) 
Cc1ccc(C(=O)Nc2cc(-c3cc4c([nH]3)C3(CCNCC3)CNC4=O)ccn2)cc1C

>  <Name>  (363) 
nan

>  <Pocket>  (363) 
nan

>  <ATP_Site>  (363) 
nan

>  <Peripheral>  (363) 
nan

>  <Num_H_Atoms_ProtBoundConf>  (363) 
nan

>  <Num_Resolved_Atoms>  (363) 
nan

>  <Num_Not_Resolved_Atoms>  (363) 
nan

$$$$
CHEMBL1933164
     RDKit          3D

  0  0  0  0  0  0  0  0  0  0999 V3000
M  V30 BEGIN CTAB
M  V30 COUNTS 59 64 0 0 0
M  V30 BEGIN ATOM
M  V30 1 O -0.893580 -4.271962 2.145576 0
M  V30 2 C -1.099613 -4.257356 0.904842 0
M  V30 3 N -0.065912 -3.664874 0.158944 0
M  V30 4 C 1.178893 -3.037893 0.204326 0
M  V30 5 C 1.292440 -1.661100 0.284223 0
M  V30 6 C 2.611508 -1.193496 0.323206 0
M  V30 7 C 2.821644 0.246007 0.398298 0
M  V30 8 C 4.053357 0.892966 0.433603 0
M  V30 9 C 3.899011 2.276884 0.498255 0
M  V30 10 C 2.509099 2.451569 0.501422 0
M  V30 11 N 1.947685 1.258205 0.443063 0
M  V30 12 C 1.966986 3.846340 0.567317 0
M  V30 13 C 1.895839 4.195025 2.042175 0
M  V30 14 C 0.725426 3.431871 2.623555 0
M  V30 15 N -0.457658 4.020419 2.024373 0
M  V30 16 C -0.553974 3.751136 0.614429 0
M  V30 17 C 0.685931 4.031028 -0.161126 0
M  V30 18 C 2.976609 4.822028 -0.042745 0
M  V30 19 N 4.268685 4.713764 0.603108 0
M  V30 20 C 4.837572 3.397367 0.549159 0
M  V30 21 O 6.087053 3.178379 0.544106 0
M  V30 22 C 3.698177 -2.038553 0.285101 0
M  V30 23 C 3.517965 -3.402614 0.205585 0
M  V30 24 N 2.261223 -3.878073 0.166539 0
M  V30 25 C -2.278194 -4.789194 0.240491 0
M  V30 26 C -2.624554 -4.700832 -1.088060 0
M  V30 27 C -3.770553 -5.261635 -1.607930 0
M  V30 28 C -4.637686 -5.954562 -0.783235 0
M  V30 29 C -5.750518 -6.479058 -1.398264 0
M  V30 30 C -6.617718 -7.180325 -0.553706 0
M  V30 31 C -6.330251 -7.305858 0.786185 0
M  V30 32 C -5.190316 -6.749028 1.327359 0
M  V30 33 C -4.276427 -6.033755 0.544363 0
M  V30 34 C -3.135937 -5.479478 1.081283 0
M  V30 35 H -0.192800 -3.634839 -0.898741 0
M  V30 36 H 0.461751 -1.007744 0.314539 0
M  V30 37 H 4.996136 0.343039 0.411861 0
M  V30 38 H 0.907938 1.052437 0.429677 0
M  V30 39 H 1.645900 5.273388 2.083241 0
M  V30 40 H 2.859679 3.945654 2.493306 0
M  V30 41 H 0.779927 2.344535 2.479050 0
M  V30 42 H 0.649651 3.626187 3.714865 0
M  V30 43 H -1.281921 3.579722 2.481684 0
M  V30 44 H -0.938771 2.722229 0.404791 0
M  V30 45 H -1.360128 4.425302 0.226346 0
M  V30 46 H 0.690467 3.346527 -1.055348 0
M  V30 47 H 0.636369 5.071937 -0.592449 0
M  V30 48 H 2.584623 5.841882 0.185983 0
M  V30 49 H 3.014519 4.735250 -1.139286 0
M  V30 50 H 4.846300 5.448997 1.099678 0
M  V30 51 H 4.715120 -1.675048 0.314594 0
M  V30 52 H 4.354499 -4.091697 0.174198 0
M  V30 53 H -1.943229 -4.158704 -1.720251 0
M  V30 54 H -3.923881 -5.113644 -2.687100 0
M  V30 55 H -5.921581 -6.347141 -2.457392 0
M  V30 56 H -7.497203 -7.598465 -1.025534 0
M  V30 57 H -7.046557 -7.862260 1.386479 0
M  V30 58 H -4.963728 -6.849588 2.386941 0
M  V30 59 H -2.956421 -5.606232 2.132594 0
M  V30 END ATOM
M  V30 BEGIN BOND
M  V30 1 2 1 2
M  V30 2 1 2 3
M  V30 3 1 3 4
M  V30 4 2 4 5
M  V30 5 1 5 6
M  V30 6 1 6 7
M  V30 7 2 7 8
M  V30 8 1 8 9
M  V30 9 2 9 10
M  V30 10 1 10 11
M  V30 11 1 10 12
M  V30 12 1 12 13
M  V30 13 1 13 14
M  V30 14 1 14 15
M  V30 15 1 15 16
M  V30 16 1 16 17
M  V30 17 1 12 18
M  V30 18 1 18 19
M  V30 19 1 19 20
M  V30 20 2 20 21
M  V30 21 2 6 22
M  V30 22 1 22 23
M  V30 23 2 23 24
M  V30 24 1 2 25
M  V30 25 2 25 26
M  V30 26 1 26 27
M  V30 27 2 27 28
M  V30 28 1 28 29
M  V30 29 2 29 30
M  V30 30 1 30 31
M  V30 31 2 31 32
M  V30 32 1 32 33
M  V30 33 2 33 34
M  V30 34 1 24 4
M  V30 35 1 34 25
M  V30 36 1 11 7
M  V30 37 1 17 12
M  V30 38 1 33 28
M  V30 39 1 20 9
M  V30 40 1 3 35
M  V30 41 1 5 36
M  V30 42 1 8 37
M  V30 43 1 11 38
M  V30 44 1 13 39
M  V30 45 1 13 40
M  V30 46 1 14 41
M  V30 47 1 14 42
M  V30 48 1 15 43
M  V30 49 1 16 44
M  V30 50 1 16 45
M  V30 51 1 17 46
M  V30 52 1 17 47
M  V30 53 1 18 48
M  V30 54 1 18 49
M  V30 55 1 19 50
M  V30 56 1 22 51
M  V30 57 1 23 52
M  V30 58 1 26 53
M  V30 59 1 27 54
M  V30 60 1 29 55
M  V30 61 1 30 56
M  V30 62 1 31 57
M  V30 63 1 32 58
M  V30 64 1 34 59
M  V30 END BOND
M  V30 END CTAB
M  END
>  <Dataset>  (364) 
ChEMBL_Kinases

>  <Ligand_Instance>  (364) 
nan

>  <PDB_ID>  (364) 
nan

>  <Standardized_SMILES>  (364) 
O=C(Nc1cc(-c2cc3c([nH]2)C2(CCNCC2)CNC3=O)ccn1)c1ccc2ccccc2c1

>  <Name>  (364) 
nan

>  <Pocket>  (364) 
nan

>  <ATP_Site>  (364) 
nan

>  <Peripheral>  (364) 
nan

>  <Num_H_Atoms_ProtBoundConf>  (364) 
nan

>  <Num_Resolved_Atoms>  (364) 
nan

>  <Num_Not_Resolved_Atoms>  (364) 
nan

$$$$
CHEMBL1933166
     RDKit          3D

  0  0  0  0  0  0  0  0  0  0999 V3000
M  V30 BEGIN CTAB
M  V30 COUNTS 59 64 0 0 0
M  V30 BEGIN ATOM
M  V30 1 O 1.374386 2.226399 6.260312 0
M  V30 2 C 1.875710 1.607485 5.286848 0
M  V30 3 N 3.266954 1.314995 5.153776 0
M  V30 4 C 3.616426 0.083832 4.444042 0
M  V30 5 C 3.013197 0.197286 3.059981 0
M  V30 6 C 3.685880 1.382163 2.402848 0
M  V30 7 C 4.954451 0.822748 1.759793 0
M  V30 8 N 4.492869 0.135357 0.561188 0
M  V30 9 C 3.589177 -0.930649 0.871599 0
M  V30 10 C 3.272143 -1.086373 2.334102 0
M  V30 11 C 1.557019 0.492392 3.187260 0
M  V30 12 N 0.572483 0.162875 2.319059 0
M  V30 13 C -0.614528 0.607562 2.786266 0
M  V30 14 C -1.949104 0.486370 2.195116 0
M  V30 15 C -3.091380 0.989955 2.782963 0
M  V30 16 C -4.294489 0.814097 2.131272 0
M  V30 17 N -4.396604 0.165058 0.934606 0
M  V30 18 C -3.262049 -0.329230 0.361142 0
M  V30 19 N -3.321940 -1.012890 -0.885562 0
M  V30 20 C -3.239264 -0.683364 -2.265181 0
M  V30 21 O -3.067013 0.479543 -2.725680 0
M  V30 22 C -3.369803 -1.815845 -3.195073 0
M  V30 23 C -4.604871 -2.046821 -3.795856 0
M  V30 24 C -4.740400 -3.113642 -4.676431 0
M  V30 25 C -3.692297 -3.961241 -4.983072 0
M  V30 26 C -2.469088 -3.706893 -4.368087 0
M  V30 27 C -1.367366 -4.520827 -4.630057 0
M  V30 28 C -0.148923 -4.261889 -4.013118 0
M  V30 29 C 0.011688 -3.206371 -3.132664 0
M  V30 30 C -1.082522 -2.408884 -2.880999 0
M  V30 31 C -2.303265 -2.646822 -3.482362 0
M  V30 32 C -2.010753 -0.185997 0.968088 0
M  V30 33 C -0.409953 1.254567 4.006928 0
M  V30 34 C 0.948475 1.163381 4.223955 0
M  V30 35 H 3.918899 2.012213 5.579316 0
M  V30 36 H 4.718525 -0.030545 4.367321 0
M  V30 37 H 3.152242 -0.767105 4.982407 0
M  V30 38 H 3.038769 1.820958 1.624916 0
M  V30 39 H 3.964208 2.153373 3.152547 0
M  V30 40 H 5.652364 1.620476 1.481972 0
M  V30 41 H 5.346658 0.048885 2.430237 0
M  V30 42 H 3.974337 0.840556 -0.043339 0
M  V30 43 H 2.667709 -0.898971 0.245672 0
M  V30 44 H 4.092947 -1.888324 0.548561 0
M  V30 45 H 2.333017 -1.708142 2.393632 0
M  V30 46 H 4.056977 -1.719663 2.834038 0
M  V30 47 H 0.642299 -0.352527 1.411061 0
M  V30 48 H -3.015915 1.503032 3.725065 0
M  V30 49 H -5.212294 1.212447 2.592688 0
M  V30 50 H -3.465888 -1.999300 -0.567689 0
M  V30 51 H -5.460779 -1.414005 -3.592015 0
M  V30 52 H -5.701237 -3.296193 -5.146492 0
M  V30 53 H -3.816689 -4.782202 -5.667407 0
M  V30 54 H -1.535090 -5.332910 -5.322606 0
M  V30 55 H 0.638158 -4.968091 -4.299491 0
M  V30 56 H 1.002144 -3.082317 -2.698022 0
M  V30 57 H -0.917748 -1.600468 -2.192747 0
M  V30 58 H -1.156015 -0.595492 0.470100 0
M  V30 59 H -1.043976 1.741052 4.702821 0
M  V30 END ATOM
M  V30 BEGIN BOND
M  V30 1 2 1 2
M  V30 2 1 2 3
M  V30 3 1 3 4
M  V30 4 1 4 5
M  V30 5 1 5 6
M  V30 6 1 6 7
M  V30 7 1 7 8
M  V30 8 1 8 9
M  V30 9 1 9 10
M  V30 10 1 5 11
M  V30 11 1 11 12
M  V30 12 1 12 13
M  V30 13 1 13 14
M  V30 14 2 14 15
M  V30 15 1 15 16
M  V30 16 2 16 17
M  V30 17 1 17 18
M  V30 18 1 18 19
M  V30 19 1 19 20
M  V30 20 2 20 21
M  V30 21 1 20 22
M  V30 22 2 22 23
M  V30 23 1 23 24
M  V30 24 2 24 25
M  V30 25 1 25 26
M  V30 26 2 26 27
M  V30 27 1 27 28
M  V30 28 2 28 29
M  V30 29 1 29 30
M  V30 30 2 30 31
M  V30 31 2 18 32
M  V30 32 2 13 33
M  V30 33 1 33 34
M  V30 34 1 34 2
M  V30 35 1 10 5
M  V30 36 2 34 11
M  V30 37 1 32 14
M  V30 38 1 31 22
M  V30 39 1 31 26
M  V30 40 1 3 35
M  V30 41 1 4 36
M  V30 42 1 4 37
M  V30 43 1 6 38
M  V30 44 1 6 39
M  V30 45 1 7 40
M  V30 46 1 7 41
M  V30 47 1 8 42
M  V30 48 1 9 43
M  V30 49 1 9 44
M  V30 50 1 10 45
M  V30 51 1 10 46
M  V30 52 1 12 47
M  V30 53 1 15 48
M  V30 54 1 16 49
M  V30 55 1 19 50
M  V30 56 1 23 51
M  V30 57 1 24 52
M  V30 58 1 25 53
M  V30 59 1 27 54
M  V30 60 1 28 55
M  V30 61 1 29 56
M  V30 62 1 30 57
M  V30 63 1 32 58
M  V30 64 1 33 59
M  V30 END BOND
M  V30 END CTAB
M  END
>  <Dataset>  (365) 
ChEMBL_Kinases

>  <Ligand_Instance>  (365) 
nan

>  <PDB_ID>  (365) 
nan

>  <Standardized_SMILES>  (365) 
O=C1NCC2(CCNCC2)c2[nH]c(-c3ccnc(NC(=O)c4cccc5ccccc45)c3)cc21

>  <Name>  (365) 
nan

>  <Pocket>  (365) 
nan

>  <ATP_Site>  (365) 
nan

>  <Peripheral>  (365) 
nan

>  <Num_H_Atoms_ProtBoundConf>  (365) 
nan

>  <Num_Resolved_Atoms>  (365) 
nan

>  <Num_Not_Resolved_Atoms>  (365) 
nan

$$$$
CHEMBL1933168
     RDKit          3D

  0  0  0  0  0  0  0  0  0  0999 V3000
M  V30 BEGIN CTAB
M  V30 COUNTS 53 57 0 0 0
M  V30 BEGIN ATOM
M  V30 1 O -1.833268 -5.059189 0.604968 0
M  V30 2 C -1.482900 -5.241983 -0.559850 0
M  V30 3 N -0.269504 -4.570903 -0.922382 0
M  V30 4 C 0.473479 -3.767847 -0.043806 0
M  V30 5 C 0.085682 -2.447326 -0.075946 0
M  V30 6 C 0.736025 -1.520484 0.751014 0
M  V30 7 C 0.364758 -0.094944 0.761300 0
M  V30 8 C -0.639166 0.421004 -0.033174 0
M  V30 9 C -0.645242 1.753058 0.291116 0
M  V30 10 C 0.315273 2.030981 1.242489 0
M  V30 11 N 0.930822 0.849492 1.515350 0
M  V30 12 C 0.632216 3.344893 1.863505 0
M  V30 13 C 0.750451 3.150290 3.380509 0
M  V30 14 C 2.035450 3.732401 3.925317 0
M  V30 15 N 3.162380 3.104731 3.266054 0
M  V30 16 C 3.145260 3.290890 1.843070 0
M  V30 17 C 1.904106 3.953329 1.331484 0
M  V30 18 C -0.472479 4.350386 1.657339 0
M  V30 19 N -1.171277 4.217797 0.413288 0
M  V30 20 C -1.424494 2.931188 -0.136049 0
M  V30 21 O -2.309435 2.706001 -1.005311 0
M  V30 22 C 1.748973 -2.003455 1.564821 0
M  V30 23 C 2.134176 -3.328743 1.593234 0
M  V30 24 N 1.467421 -4.177128 0.770608 0
M  V30 25 C -2.268423 -6.075628 -1.450687 0
M  V30 26 C -3.418197 -6.606735 -0.883112 0
M  V30 27 C -4.268157 -7.431671 -1.633031 0
M  V30 28 C -3.869699 -7.663412 -2.954539 0
M  V30 29 F -4.647518 -8.461697 -3.759592 0
M  V30 30 C -2.742068 -7.159953 -3.558030 0
M  V30 31 C -1.952734 -6.356908 -2.761763 0
M  V30 32 H 0.074780 -4.699162 -1.922518 0
M  V30 33 H -0.682346 -2.032794 -0.682178 0
M  V30 34 H -1.288867 -0.064774 -0.749347 0
M  V30 35 H 1.710788 0.673675 2.187469 0
M  V30 36 H -0.109752 3.529279 3.930732 0
M  V30 37 H 0.806317 2.054550 3.596745 0
M  V30 38 H 2.093921 4.818603 3.871400 0
M  V30 39 H 2.078011 3.410488 4.986064 0
M  V30 40 H 3.283393 2.118034 3.571372 0
M  V30 41 H 3.325728 2.357189 1.304438 0
M  V30 42 H 3.999920 3.989448 1.617204 0
M  V30 43 H 1.909105 5.018581 1.577249 0
M  V30 44 H 1.894914 3.822657 0.232480 0
M  V30 45 H -0.020190 5.384738 1.639350 0
M  V30 46 H -1.154646 4.375503 2.535075 0
M  V30 47 H -1.544817 4.972037 -0.185357 0
M  V30 48 H 2.250522 -1.289853 2.203527 0
M  V30 49 H 2.920512 -3.721368 2.219953 0
M  V30 50 H -3.726410 -6.430467 0.130620 0
M  V30 51 H -5.171958 -7.869892 -1.242078 0
M  V30 52 H -2.497050 -7.381948 -4.585482 0
M  V30 53 H -1.037723 -5.916941 -3.167312 0
M  V30 END ATOM
M  V30 BEGIN BOND
M  V30 1 2 1 2
M  V30 2 1 2 3
M  V30 3 1 3 4
M  V30 4 2 4 5
M  V30 5 1 5 6
M  V30 6 1 6 7
M  V30 7 2 7 8
M  V30 8 1 8 9
M  V30 9 2 9 10
M  V30 10 1 10 11
M  V30 11 1 10 12
M  V30 12 1 12 13
M  V30 13 1 13 14
M  V30 14 1 14 15
M  V30 15 1 15 16
M  V30 16 1 16 17
M  V30 17 1 12 18
M  V30 18 1 18 19
M  V30 19 1 19 20
M  V30 20 2 20 21
M  V30 21 2 6 22
M  V30 22 1 22 23
M  V30 23 2 23 24
M  V30 24 1 2 25
M  V30 25 2 25 26
M  V30 26 1 26 27
M  V30 27 2 27 28
M  V30 28 1 28 29
M  V30 29 1 28 30
M  V30 30 2 30 31
M  V30 31 1 24 4
M  V30 32 1 31 25
M  V30 33 1 11 7
M  V30 34 1 17 12
M  V30 35 1 20 9
M  V30 36 1 3 32
M  V30 37 1 5 33
M  V30 38 1 8 34
M  V30 39 1 11 35
M  V30 40 1 13 36
M  V30 41 1 13 37
M  V30 42 1 14 38
M  V30 43 1 14 39
M  V30 44 1 15 40
M  V30 45 1 16 41
M  V30 46 1 16 42
M  V30 47 1 17 43
M  V30 48 1 17 44
M  V30 49 1 18 45
M  V30 50 1 18 46
M  V30 51 1 19 47
M  V30 52 1 22 48
M  V30 53 1 23 49
M  V30 54 1 26 50
M  V30 55 1 27 51
M  V30 56 1 30 52
M  V30 57 1 31 53
M  V30 END BOND
M  V30 END CTAB
M  END
>  <Dataset>  (366) 
ChEMBL_Kinases

>  <Ligand_Instance>  (366) 
nan

>  <PDB_ID>  (366) 
nan

>  <Standardized_SMILES>  (366) 
O=C(Nc1cc(-c2cc3c([nH]2)C2(CCNCC2)CNC3=O)ccn1)c1ccc(F)cc1

>  <Name>  (366) 
nan

>  <Pocket>  (366) 
nan

>  <ATP_Site>  (366) 
nan

>  <Peripheral>  (366) 
nan

>  <Num_H_Atoms_ProtBoundConf>  (366) 
nan

>  <Num_Resolved_Atoms>  (366) 
nan

>  <Num_Not_Resolved_Atoms>  (366) 
nan

$$$$
CHEMBL1933169
     RDKit          3D

  0  0  0  0  0  0  0  0  0  0999 V3000
M  V30 BEGIN CTAB
M  V30 COUNTS 62 66 0 0 0
M  V30 BEGIN ATOM
M  V30 1 C 0.420714 2.510878 8.379110 0
M  V30 2 C 0.894245 1.972010 7.081233 0
M  V30 3 C 1.405593 0.692915 7.010028 0
M  V30 4 C 1.863635 0.143771 5.807518 0
M  V30 5 C 1.811652 0.886082 4.646159 0
M  V30 6 C 2.297361 0.282887 3.410647 0
M  V30 7 O 2.735936 -0.891255 3.498242 0
M  V30 8 N 2.275247 0.986530 2.174387 0
M  V30 9 C 2.723844 0.489814 0.917780 0
M  V30 10 C 1.922691 -0.188167 0.018811 0
M  V30 11 C 2.422367 -0.643979 -1.185515 0
M  V30 12 C 1.530648 -1.356974 -2.102178 0
M  V30 13 C 1.879306 -1.870409 -3.336058 0
M  V30 14 C 0.732914 -2.452146 -3.841620 0
M  V30 15 C -0.293500 -2.292064 -2.925563 0
M  V30 16 N 0.230707 -1.613612 -1.865394 0
M  V30 17 C -1.697082 -2.783457 -3.100297 0
M  V30 18 C -2.114060 -3.353889 -1.748101 0
M  V30 19 C -3.578964 -3.727246 -1.744295 0
M  V30 20 N -4.366304 -2.559096 -1.981504 0
M  V30 21 C -5.442696 -2.350116 -1.066358 0
M  V30 22 C -3.606877 -1.372272 -2.258421 0
M  V30 23 C -2.622535 -1.621527 -3.375032 0
M  V30 24 C -1.793957 -3.766466 -4.197946 0
M  V30 25 N -0.876174 -3.631296 -5.280511 0
M  V30 26 C 0.459711 -3.161968 -5.110399 0
M  V30 27 O 1.404556 -3.300154 -5.935158 0
M  V30 28 C 3.743323 -0.435186 -1.529384 0
M  V30 29 C 4.523527 0.248503 -0.606840 0
M  V30 30 N 4.010861 0.688849 0.573933 0
M  V30 31 C 1.295877 2.160931 4.747267 0
M  V30 32 C 0.840800 2.721683 5.913053 0
M  V30 33 C 0.299618 4.105856 5.929687 0
M  V30 34 H -0.670712 2.298687 8.528579 0
M  V30 35 H 0.993374 2.066426 9.229059 0
M  V30 36 H 0.531952 3.609185 8.474725 0
M  V30 37 H 1.441813 0.118639 7.928062 0
M  V30 38 H 2.248691 -0.871352 5.853031 0
M  V30 39 H 1.909935 1.961858 2.106583 0
M  V30 40 H 0.891476 -0.334195 0.321374 0
M  V30 41 H 2.829660 -1.848135 -3.841482 0
M  V30 42 H -0.298472 -1.336570 -1.002200 0
M  V30 43 H -1.464871 -4.201589 -1.453263 0
M  V30 44 H -1.941651 -2.545638 -1.007832 0
M  V30 45 H -3.807034 -4.253568 -0.795885 0
M  V30 46 H -3.714486 -4.480156 -2.558471 0
M  V30 47 H -5.154855 -1.756516 -0.170904 0
M  V30 48 H -5.791624 -3.349414 -0.730219 0
M  V30 49 H -6.289214 -1.873494 -1.589105 0
M  V30 50 H -4.339942 -0.625114 -2.656722 0
M  V30 51 H -3.108000 -0.918626 -1.396001 0
M  V30 52 H -3.148394 -1.804124 -4.330190 0
M  V30 53 H -2.044361 -0.667909 -3.521233 0
M  V30 54 H -2.824692 -3.670655 -4.649990 0
M  V30 55 H -1.755222 -4.825020 -3.845359 0
M  V30 56 H -1.143291 -3.874897 -6.273756 0
M  V30 57 H 4.171745 -0.785239 -2.480109 0
M  V30 58 H 5.570858 0.420861 -0.865816 0
M  V30 59 H 1.243210 2.763294 3.856668 0
M  V30 60 H -0.806835 4.118275 5.881795 0
M  V30 61 H 0.681814 4.705767 6.761464 0
M  V30 62 H 0.654965 4.617552 4.993624 0
M  V30 END ATOM
M  V30 BEGIN BOND
M  V30 1 1 1 2
M  V30 2 2 2 3
M  V30 3 1 3 4
M  V30 4 2 4 5
M  V30 5 1 5 6
M  V30 6 2 6 7
M  V30 7 1 6 8
M  V30 8 1 8 9
M  V30 9 2 9 10
M  V30 10 1 10 11
M  V30 11 1 11 12
M  V30 12 2 12 13
M  V30 13 1 13 14
M  V30 14 2 14 15
M  V30 15 1 15 16
M  V30 16 1 15 17
M  V30 17 1 17 18
M  V30 18 1 18 19
M  V30 19 1 19 20
M  V30 20 1 20 21
M  V30 21 1 20 22
M  V30 22 1 22 23
M  V30 23 1 17 24
M  V30 24 1 24 25
M  V30 25 1 25 26
M  V30 26 2 26 27
M  V30 27 2 11 28
M  V30 28 1 28 29
M  V30 29 2 29 30
M  V30 30 1 5 31
M  V30 31 2 31 32
M  V30 32 1 32 33
M  V30 33 1 32 2
M  V30 34 1 30 9
M  V30 35 1 16 12
M  V30 36 1 23 17
M  V30 37 1 26 14
M  V30 38 1 1 34
M  V30 39 1 1 35
M  V30 40 1 1 36
M  V30 41 1 3 37
M  V30 42 1 4 38
M  V30 43 1 8 39
M  V30 44 1 10 40
M  V30 45 1 13 41
M  V30 46 1 16 42
M  V30 47 1 18 43
M  V30 48 1 18 44
M  V30 49 1 19 45
M  V30 50 1 19 46
M  V30 51 1 21 47
M  V30 52 1 21 48
M  V30 53 1 21 49
M  V30 54 1 22 50
M  V30 55 1 22 51
M  V30 56 1 23 52
M  V30 57 1 23 53
M  V30 58 1 24 54
M  V30 59 1 24 55
M  V30 60 1 25 56
M  V30 61 1 28 57
M  V30 62 1 29 58
M  V30 63 1 31 59
M  V30 64 1 33 60
M  V30 65 1 33 61
M  V30 66 1 33 62
M  V30 END BOND
M  V30 END CTAB
M  END
>  <Dataset>  (367) 
ChEMBL_Kinases

>  <Ligand_Instance>  (367) 
nan

>  <PDB_ID>  (367) 
nan

>  <Standardized_SMILES>  (367) 
Cc1ccc(C(=O)Nc2cc(-c3cc4c([nH]3)C3(CCN(C)CC3)CNC4=O)ccn2)cc1C

>  <Name>  (367) 
nan

>  <Pocket>  (367) 
nan

>  <ATP_Site>  (367) 
nan

>  <Peripheral>  (367) 
nan

>  <Num_H_Atoms_ProtBoundConf>  (367) 
nan

>  <Num_Resolved_Atoms>  (367) 
nan

>  <Num_Not_Resolved_Atoms>  (367) 
nan

$$$$
CHEMBL1933180
     RDKit          3D

  0  0  0  0  0  0  0  0  0  0999 V3000
M  V30 BEGIN CTAB
M  V30 COUNTS 59 64 0 0 0
M  V30 BEGIN ATOM
M  V30 1 O 1.406557 2.223156 6.246185 0
M  V30 2 C 1.886186 1.588646 5.256770 0
M  V30 3 N 3.279431 1.242603 5.135455 0
M  V30 4 C 3.578678 -0.026615 4.447353 0
M  V30 5 C 3.088646 0.165514 3.020381 0
M  V30 6 C 3.823262 1.373399 2.501279 0
M  V30 7 C 4.895989 0.984096 1.491092 0
M  V30 8 C 4.135433 0.266636 0.390678 0
M  V30 9 N 3.666529 -0.976867 0.885219 0
M  V30 10 C 3.345580 -1.076871 2.260116 0
M  V30 11 C 1.626216 0.462677 3.090200 0
M  V30 12 N 0.637547 0.167802 2.227719 0
M  V30 13 C -0.552655 0.639091 2.678519 0
M  V30 14 C -1.885283 0.540084 2.079938 0
M  V30 15 C -3.003589 1.100362 2.661734 0
M  V30 16 C -4.228875 0.958580 2.040983 0
M  V30 17 N -4.352884 0.283238 0.876587 0
M  V30 18 C -3.252485 -0.277313 0.289303 0
M  V30 19 N -3.359140 -1.009900 -0.942037 0
M  V30 20 C -3.280702 -0.669958 -2.305190 0
M  V30 21 O -3.071241 0.537069 -2.577560 0
M  V30 22 C -3.473352 -1.876334 -3.138773 0
M  V30 23 C -4.695673 -2.167517 -3.725010 0
M  V30 24 C -4.846390 -3.309837 -4.506830 0
M  V30 25 C -3.803878 -4.161547 -4.711905 0
M  V30 26 C -2.584131 -3.842306 -4.108523 0
M  V30 27 C -1.523379 -4.724902 -4.328603 0
M  V30 28 C -0.277819 -4.487326 -3.769675 0
M  V30 29 C -0.067442 -3.351401 -2.974431 0
M  V30 30 C -1.136319 -2.494158 -2.774383 0
M  V30 31 C -2.383451 -2.714069 -3.320567 0
M  V30 32 C -1.998463 -0.163212 0.873140 0
M  V30 33 C -0.324779 1.267523 3.889992 0
M  V30 34 C 1.023755 1.152563 4.136570 0
M  V30 35 H 3.952137 1.944694 5.560753 0
M  V30 36 H 4.681911 -0.213307 4.465097 0
M  V30 37 H 2.995581 -0.820451 4.919210 0
M  V30 38 H 3.117356 2.053285 1.981937 0
M  V30 39 H 4.320704 1.963041 3.301017 0
M  V30 40 H 5.412108 1.889923 1.167423 0
M  V30 41 H 5.533948 0.238546 2.022448 0
M  V30 42 H 4.855285 0.074515 -0.456186 0
M  V30 43 H 3.326484 0.962146 0.031476 0
M  V30 44 H 3.059753 -1.513045 0.230104 0
M  V30 45 H 2.416340 -1.711494 2.326574 0
M  V30 46 H 4.132905 -1.693245 2.775844 0
M  V30 47 H 0.755615 -0.350645 1.331235 0
M  V30 48 H -2.912503 1.640675 3.586244 0
M  V30 49 H -5.131956 1.384190 2.461273 0
M  V30 50 H -3.530733 -1.962011 -0.502017 0
M  V30 51 H -5.546093 -1.507163 -3.579236 0
M  V30 52 H -5.776497 -3.570446 -4.974232 0
M  V30 53 H -3.909942 -5.051602 -5.320661 0
M  V30 54 H -1.642422 -5.613395 -4.938582 0
M  V30 55 H 0.530931 -5.178525 -3.947580 0
M  V30 56 H 0.911094 -3.164933 -2.540222 0
M  V30 57 H -1.030817 -1.609958 -2.174336 0
M  V30 58 H -1.121673 -0.591509 0.429340 0
M  V30 59 H -1.022529 1.762876 4.556899 0
M  V30 END ATOM
M  V30 BEGIN BOND
M  V30 1 2 1 2
M  V30 2 1 2 3
M  V30 3 1 3 4
M  V30 4 1 4 5
M  V30 5 1 5 6
M  V30 6 1 6 7
M  V30 7 1 7 8
M  V30 8 1 8 9
M  V30 9 1 9 10
M  V30 10 1 5 11
M  V30 11 1 11 12
M  V30 12 1 12 13
M  V30 13 1 13 14
M  V30 14 2 14 15
M  V30 15 1 15 16
M  V30 16 2 16 17
M  V30 17 1 17 18
M  V30 18 1 18 19
M  V30 19 1 19 20
M  V30 20 2 20 21
M  V30 21 1 20 22
M  V30 22 2 22 23
M  V30 23 1 23 24
M  V30 24 2 24 25
M  V30 25 1 25 26
M  V30 26 2 26 27
M  V30 27 1 27 28
M  V30 28 2 28 29
M  V30 29 1 29 30
M  V30 30 2 30 31
M  V30 31 2 18 32
M  V30 32 2 13 33
M  V30 33 1 33 34
M  V30 34 1 34 2
M  V30 35 1 10 5
M  V30 36 2 34 11
M  V30 37 1 32 14
M  V30 38 1 31 22
M  V30 39 1 31 26
M  V30 40 1 3 35
M  V30 41 1 4 36
M  V30 42 1 4 37
M  V30 43 1 6 38
M  V30 44 1 6 39
M  V30 45 1 7 40
M  V30 46 1 7 41
M  V30 47 1 8 42
M  V30 48 1 8 43
M  V30 49 1 9 44
M  V30 50 1 10 45
M  V30 51 1 10 46
M  V30 52 1 12 47
M  V30 53 1 15 48
M  V30 54 1 16 49
M  V30 55 1 19 50
M  V30 56 1 23 51
M  V30 57 1 24 52
M  V30 58 1 25 53
M  V30 59 1 27 54
M  V30 60 1 28 55
M  V30 61 1 29 56
M  V30 62 1 30 57
M  V30 63 1 32 58
M  V30 64 1 33 59
M  V30 END BOND
M  V30 END CTAB
M  END
>  <Dataset>  (368) 
ChEMBL_Kinases

>  <Ligand_Instance>  (368) 
nan

>  <PDB_ID>  (368) 
nan

>  <Standardized_SMILES>  (368) 
O=C1NCC2(CCCNC2)c2[nH]c(-c3ccnc(NC(=O)c4cccc5ccccc45)c3)cc21

>  <Name>  (368) 
nan

>  <Pocket>  (368) 
nan

>  <ATP_Site>  (368) 
nan

>  <Peripheral>  (368) 
nan

>  <Num_H_Atoms_ProtBoundConf>  (368) 
nan

>  <Num_Resolved_Atoms>  (368) 
nan

>  <Num_Not_Resolved_Atoms>  (368) 
nan

$$$$
CHEMBL1933171
     RDKit          3D

  0  0  0  0  0  0  0  0  0  0999 V3000
M  V30 BEGIN CTAB
M  V30 COUNTS 53 57 0 0 0
M  V30 BEGIN ATOM
M  V30 1 O -0.988541 -3.434608 1.253603 0
M  V30 2 C -0.878251 -4.538642 0.671966 0
M  V30 3 N -0.269026 -4.558517 -0.599708 0
M  V30 4 C 0.261452 -3.488375 -1.359823 0
M  V30 5 C 0.303235 -2.175465 -1.027626 0
M  V30 6 C 0.838051 -1.179953 -1.820742 0
M  V30 7 C 0.835323 0.213678 -1.370393 0
M  V30 8 C 1.344959 1.276224 -2.088876 0
M  V30 9 C 1.132074 2.403264 -1.287021 0
M  V30 10 C 0.511019 1.986963 -0.130880 0
M  V30 11 N 0.341241 0.654787 -0.203939 0
M  V30 12 C 0.169468 3.016243 0.907109 0
M  V30 13 C -1.107361 2.660369 1.640110 0
M  V30 14 C -1.092718 3.168021 3.065085 0
M  V30 15 N -0.058808 2.526870 3.822669 0
M  V30 16 C 1.149571 2.277725 3.085984 0
M  V30 17 C 1.310677 3.155410 1.889691 0
M  V30 18 C -0.043486 4.376854 0.291658 0
M  V30 19 N 1.119184 4.788993 -0.498410 0
M  V30 20 C 1.460833 3.824664 -1.515464 0
M  V30 21 O 2.028487 4.099327 -2.605975 0
M  V30 22 C 1.376919 -1.516717 -3.047467 0
M  V30 23 C 1.326748 -2.857332 -3.371084 0
M  V30 24 N 0.794082 -3.786143 -2.561126 0
M  V30 25 C -1.388262 -5.719082 1.354207 0
M  V30 26 C -1.350023 -7.005925 0.862445 0
M  V30 27 C -1.843113 -8.102833 1.535968 0
M  V30 28 C -2.415602 -7.941906 2.777488 0
M  V30 29 C -2.479419 -6.674211 3.316259 0
M  V30 30 F -3.043133 -6.492800 4.546138 0
M  V30 31 C -1.971061 -5.612197 2.599836 0
M  V30 32 H -0.229497 -5.527986 -0.991106 0
M  V30 33 H -0.092411 -1.855203 -0.103810 0
M  V30 34 H 1.814172 1.240087 -3.074310 0
M  V30 35 H -0.111105 0.081886 0.551989 0
M  V30 36 H -1.985977 3.067780 1.097861 0
M  V30 37 H -1.227422 1.559162 1.678523 0
M  V30 38 H -1.072010 4.277105 3.108884 0
M  V30 39 H -2.071598 2.854633 3.505195 0
M  V30 40 H -0.377099 1.613489 4.217018 0
M  V30 41 H 1.295317 1.221183 2.814204 0
M  V30 42 H 1.993301 2.530305 3.781713 0
M  V30 43 H 1.395825 4.217544 2.240500 0
M  V30 44 H 2.225472 2.888592 1.365840 0
M  V30 45 H -0.089215 5.099153 1.134968 0
M  V30 46 H -0.974600 4.475295 -0.277714 0
M  V30 47 H 1.739445 5.627308 -0.472672 0
M  V30 48 H 1.806996 -0.770562 -3.702613 0
M  V30 49 H 1.724003 -3.214773 -4.310381 0
M  V30 50 H -0.919313 -7.191935 -0.092336 0
M  V30 51 H -1.781712 -9.097869 1.089475 0
M  V30 52 H -2.793011 -8.821797 3.280045 0
M  V30 53 H -2.058014 -4.632067 3.094646 0
M  V30 END ATOM
M  V30 BEGIN BOND
M  V30 1 2 1 2
M  V30 2 1 2 3
M  V30 3 1 3 4
M  V30 4 2 4 5
M  V30 5 1 5 6
M  V30 6 1 6 7
M  V30 7 2 7 8
M  V30 8 1 8 9
M  V30 9 2 9 10
M  V30 10 1 10 11
M  V30 11 1 10 12
M  V30 12 1 12 13
M  V30 13 1 13 14
M  V30 14 1 14 15
M  V30 15 1 15 16
M  V30 16 1 16 17
M  V30 17 1 12 18
M  V30 18 1 18 19
M  V30 19 1 19 20
M  V30 20 2 20 21
M  V30 21 2 6 22
M  V30 22 1 22 23
M  V30 23 2 23 24
M  V30 24 1 2 25
M  V30 25 2 25 26
M  V30 26 1 26 27
M  V30 27 2 27 28
M  V30 28 1 28 29
M  V30 29 1 29 30
M  V30 30 2 29 31
M  V30 31 1 24 4
M  V30 32 1 31 25
M  V30 33 1 11 7
M  V30 34 1 17 12
M  V30 35 1 20 9
M  V30 36 1 3 32
M  V30 37 1 5 33
M  V30 38 1 8 34
M  V30 39 1 11 35
M  V30 40 1 13 36
M  V30 41 1 13 37
M  V30 42 1 14 38
M  V30 43 1 14 39
M  V30 44 1 15 40
M  V30 45 1 16 41
M  V30 46 1 16 42
M  V30 47 1 17 43
M  V30 48 1 17 44
M  V30 49 1 18 45
M  V30 50 1 18 46
M  V30 51 1 19 47
M  V30 52 1 22 48
M  V30 53 1 23 49
M  V30 54 1 26 50
M  V30 55 1 27 51
M  V30 56 1 28 52
M  V30 57 1 31 53
M  V30 END BOND
M  V30 END CTAB
M  END
>  <Dataset>  (369) 
ChEMBL_Kinases

>  <Ligand_Instance>  (369) 
nan

>  <PDB_ID>  (369) 
nan

>  <Standardized_SMILES>  (369) 
O=C(Nc1cc(-c2cc3c([nH]2)C2(CCNCC2)CNC3=O)ccn1)c1cccc(F)c1

>  <Name>  (369) 
nan

>  <Pocket>  (369) 
nan

>  <ATP_Site>  (369) 
nan

>  <Peripheral>  (369) 
nan

>  <Num_H_Atoms_ProtBoundConf>  (369) 
nan

>  <Num_Resolved_Atoms>  (369) 
nan

>  <Num_Not_Resolved_Atoms>  (369) 
nan

$$$$
CHEMBL1933172
     RDKit          3D

  0  0  0  0  0  0  0  0  0  0999 V3000
M  V30 BEGIN CTAB
M  V30 COUNTS 56 60 0 0 0
M  V30 BEGIN ATOM
M  V30 1 C 5.062352 0.088297 2.215486 0
M  V30 2 N 4.063856 -0.318139 1.259306 0
M  V30 3 C 2.812218 -0.702163 1.860430 0
M  V30 4 C 2.141906 0.467453 2.475037 0
M  V30 5 C 2.078588 1.713366 1.663504 0
M  V30 6 C 3.175589 1.893500 0.656397 0
M  V30 7 C 3.848137 0.648492 0.219001 0
M  V30 8 C 2.221193 2.862214 2.652640 0
M  V30 9 N 1.830179 4.135125 2.085203 0
M  V30 10 C 0.535062 4.241160 1.483246 0
M  V30 11 O -0.089889 5.310620 1.420547 0
M  V30 12 C -0.037244 2.996291 0.928313 0
M  V30 13 C -1.212297 2.690559 0.292263 0
M  V30 14 C -1.196239 1.360622 0.002547 0
M  V30 15 C -2.237235 0.589579 -0.672815 0
M  V30 16 C -3.389520 1.226752 -1.086949 0
M  V30 17 C -4.328714 0.435164 -1.717722 0
M  V30 18 N -4.140187 -0.883116 -1.921515 0
M  V30 19 C -3.007431 -1.510860 -1.514706 0
M  V30 20 N -2.849393 -2.912154 -1.751790 0
M  V30 21 C -3.322125 -3.785543 -0.733213 0
M  V30 22 O -3.831752 -3.228865 0.273334 0
M  V30 23 C -3.250483 -5.226019 -0.791502 0
M  V30 24 C -3.756192 -5.927578 0.283747 0
M  V30 25 C -3.714425 -7.304304 0.282579 0
M  V30 26 C -3.174616 -7.998928 -0.776994 0
M  V30 27 C -2.684339 -7.264029 -1.822777 0
M  V30 28 F -2.131511 -7.884116 -2.913480 0
M  V30 29 C -2.700244 -5.880474 -1.874823 0
M  V30 30 C -2.051809 -0.772373 -0.887874 0
M  V30 31 N -0.022452 0.890369 0.464416 0
M  V30 32 C 0.725902 1.858029 1.042384 0
M  V30 33 H 5.861650 -0.676909 2.293859 0
M  V30 34 H 4.558828 0.084010 3.210604 0
M  V30 35 H 5.453391 1.100054 2.049721 0
M  V30 36 H 2.217434 -1.268709 1.127319 0
M  V30 37 H 3.064673 -1.425563 2.663801 0
M  V30 38 H 2.600508 0.624472 3.492695 0
M  V30 39 H 1.083925 0.162809 2.713617 0
M  V30 40 H 2.720807 2.359511 -0.243006 0
M  V30 41 H 3.970795 2.612981 0.994768 0
M  V30 42 H 4.860889 0.906516 -0.183216 0
M  V30 43 H 3.295377 0.173176 -0.614941 0
M  V30 44 H 3.314740 2.936968 2.847067 0
M  V30 45 H 1.657839 2.672478 3.595937 0
M  V30 46 H 2.441222 4.979426 2.091235 0
M  V30 47 H -1.977940 3.409386 0.083164 0
M  V30 48 H -3.571106 2.297465 -0.935178 0
M  V30 49 H -5.242469 0.952394 -2.043451 0
M  V30 50 H -2.423379 -3.313759 -2.597093 0
M  V30 51 H -4.189779 -5.425094 1.138208 0
M  V30 52 H -4.096213 -7.931804 1.100326 0
M  V30 53 H -3.119726 -9.091650 -0.822298 0
M  V30 54 H -2.299744 -5.345914 -2.725089 0
M  V30 55 H -1.167759 -1.272959 -0.572772 0
M  V30 56 H 0.242656 -0.134081 0.363346 0
M  V30 END ATOM
M  V30 BEGIN BOND
M  V30 1 1 1 2
M  V30 2 1 2 3
M  V30 3 1 3 4
M  V30 4 1 4 5
M  V30 5 1 5 6
M  V30 6 1 6 7
M  V30 7 1 5 8
M  V30 8 1 8 9
M  V30 9 1 9 10
M  V30 10 2 10 11
M  V30 11 1 10 12
M  V30 12 1 12 13
M  V30 13 2 13 14
M  V30 14 1 14 15
M  V30 15 2 15 16
M  V30 16 1 16 17
M  V30 17 2 17 18
M  V30 18 1 18 19
M  V30 19 1 19 20
M  V30 20 1 20 21
M  V30 21 2 21 22
M  V30 22 1 21 23
M  V30 23 2 23 24
M  V30 24 1 24 25
M  V30 25 2 25 26
M  V30 26 1 26 27
M  V30 27 1 27 28
M  V30 28 2 27 29
M  V30 29 2 19 30
M  V30 30 1 14 31
M  V30 31 1 31 32
M  V30 32 1 7 2
M  V30 33 2 32 12
M  V30 34 1 32 5
M  V30 35 1 30 15
M  V30 36 1 29 23
M  V30 37 1 1 33
M  V30 38 1 1 34
M  V30 39 1 1 35
M  V30 40 1 3 36
M  V30 41 1 3 37
M  V30 42 1 4 38
M  V30 43 1 4 39
M  V30 44 1 6 40
M  V30 45 1 6 41
M  V30 46 1 7 42
M  V30 47 1 7 43
M  V30 48 1 8 44
M  V30 49 1 8 45
M  V30 50 1 9 46
M  V30 51 1 13 47
M  V30 52 1 16 48
M  V30 53 1 17 49
M  V30 54 1 20 50
M  V30 55 1 24 51
M  V30 56 1 25 52
M  V30 57 1 26 53
M  V30 58 1 29 54
M  V30 59 1 30 55
M  V30 60 1 31 56
M  V30 END BOND
M  V30 END CTAB
M  END
>  <Dataset>  (370) 
ChEMBL_Kinases

>  <Ligand_Instance>  (370) 
nan

>  <PDB_ID>  (370) 
nan

>  <Standardized_SMILES>  (370) 
CN1CCC2(CC1)CNC(=O)c1cc(-c3ccnc(NC(=O)c4cccc(F)c4)c3)[nH]c12

>  <Name>  (370) 
nan

>  <Pocket>  (370) 
nan

>  <ATP_Site>  (370) 
nan

>  <Peripheral>  (370) 
nan

>  <Num_H_Atoms_ProtBoundConf>  (370) 
nan

>  <Num_Resolved_Atoms>  (370) 
nan

>  <Num_Not_Resolved_Atoms>  (370) 
nan

$$$$
CHEMBL1933173
     RDKit          3D

  0  0  0  0  0  0  0  0  0  0999 V3000
M  V30 BEGIN CTAB
M  V30 COUNTS 57 61 0 0 0
M  V30 BEGIN ATOM
M  V30 1 O -1.975089 -3.988996 0.429782 0
M  V30 2 C -0.815801 -4.488535 0.269867 0
M  V30 3 N 0.139122 -4.056670 1.219187 0
M  V30 4 C -0.265548 -3.124556 2.246312 0
M  V30 5 C -0.128207 -1.797681 1.935790 0
M  V30 6 C -0.519389 -0.920581 2.928079 0
M  V30 7 C -0.411652 0.520815 2.693685 0
M  V30 8 C -0.762312 1.512622 3.587726 0
M  V30 9 C -0.492040 2.702200 2.943587 0
M  V30 10 C 0.015795 2.452401 1.676113 0
M  V30 11 N 0.044644 1.100018 1.573335 0
M  V30 12 C 0.420790 3.490241 0.693758 0
M  V30 13 C 1.883611 3.815379 0.754076 0
M  V30 14 C 2.791594 2.792194 0.177311 0
M  V30 15 N 2.253871 1.933766 -0.794128 0
M  V30 16 C 1.028501 2.226251 -1.404806 0
M  V30 17 C 0.096032 3.154550 -0.725554 0
M  V30 18 C -0.276792 4.795663 1.017913 0
M  V30 19 N -0.262373 5.120180 2.428371 0
M  V30 20 C -0.641596 4.102069 3.347246 0
M  V30 21 O -1.101544 4.300332 4.494556 0
M  V30 22 C -1.008812 -1.385948 4.133377 0
M  V30 23 C -1.127367 -2.747049 4.396426 0
M  V30 24 N -0.740315 -3.591451 3.415157 0
M  V30 25 C -0.489150 -5.430791 -0.802608 0
M  V30 26 C 0.753420 -5.980248 -0.991909 0
M  V30 27 C 0.895099 -6.862579 -2.064267 0
M  V30 28 C -0.124524 -7.199178 -2.918411 0
M  V30 29 C -1.361345 -6.649056 -2.725873 0
M  V30 30 O -2.463787 -6.920329 -3.530600 0
M  V30 31 C -2.788212 -6.165466 -4.688881 0
M  V30 32 F -3.017521 -4.835035 -4.413295 0
M  V30 33 F -1.774403 -6.255563 -5.639528 0
M  V30 34 F -3.927761 -6.739405 -5.230420 0
M  V30 35 C -1.527040 -5.770525 -1.668341 0
M  V30 36 H 1.120512 -4.401129 1.184345 0
M  V30 37 H 0.251815 -1.464204 0.999274 0
M  V30 38 H -1.162609 1.366216 4.578898 0
M  V30 39 H 0.369511 0.557998 0.753729 0
M  V30 40 H 2.006444 4.737175 0.123084 0
M  V30 41 H 2.166579 4.123584 1.782143 0
M  V30 42 H 3.727802 3.240367 -0.216636 0
M  V30 43 H 3.121324 2.146429 1.044716 0
M  V30 44 H 2.551213 0.940462 -0.772411 0
M  V30 45 H 0.486379 1.248125 -1.556598 0
M  V30 46 H 1.171922 2.593737 -2.462947 0
M  V30 47 H -0.960611 2.755364 -0.709114 0
M  V30 48 H -0.001343 4.121444 -1.290270 0
M  V30 49 H -1.343388 4.660231 0.734272 0
M  V30 50 H 0.115436 5.619259 0.393858 0
M  V30 51 H 0.003357 6.044947 2.853540 0
M  V30 52 H -1.300924 -0.665691 4.875884 0
M  V30 53 H -1.520740 -3.042620 5.367001 0
M  V30 54 H 1.549133 -5.713776 -0.320480 0
M  V30 55 H 1.894741 -7.273160 -2.176241 0
M  V30 56 H 0.019089 -7.888680 -3.742769 0
M  V30 57 H -2.523526 -5.328868 -1.515222 0
M  V30 END ATOM
M  V30 BEGIN BOND
M  V30 1 2 1 2
M  V30 2 1 2 3
M  V30 3 1 3 4
M  V30 4 2 4 5
M  V30 5 1 5 6
M  V30 6 1 6 7
M  V30 7 2 7 8
M  V30 8 1 8 9
M  V30 9 2 9 10
M  V30 10 1 10 11
M  V30 11 1 10 12
M  V30 12 1 12 13
M  V30 13 1 13 14
M  V30 14 1 14 15
M  V30 15 1 15 16
M  V30 16 1 16 17
M  V30 17 1 12 18
M  V30 18 1 18 19
M  V30 19 1 19 20
M  V30 20 2 20 21
M  V30 21 2 6 22
M  V30 22 1 22 23
M  V30 23 2 23 24
M  V30 24 1 2 25
M  V30 25 2 25 26
M  V30 26 1 26 27
M  V30 27 2 27 28
M  V30 28 1 28 29
M  V30 29 1 29 30
M  V30 30 1 30 31
M  V30 31 1 31 32
M  V30 32 1 31 33
M  V30 33 1 31 34
M  V30 34 2 29 35
M  V30 35 1 24 4
M  V30 36 1 35 25
M  V30 37 1 11 7
M  V30 38 1 17 12
M  V30 39 1 20 9
M  V30 40 1 3 36
M  V30 41 1 5 37
M  V30 42 1 8 38
M  V30 43 1 11 39
M  V30 44 1 13 40
M  V30 45 1 13 41
M  V30 46 1 14 42
M  V30 47 1 14 43
M  V30 48 1 15 44
M  V30 49 1 16 45
M  V30 50 1 16 46
M  V30 51 1 17 47
M  V30 52 1 17 48
M  V30 53 1 18 49
M  V30 54 1 18 50
M  V30 55 1 19 51
M  V30 56 1 22 52
M  V30 57 1 23 53
M  V30 58 1 26 54
M  V30 59 1 27 55
M  V30 60 1 28 56
M  V30 61 1 35 57
M  V30 END BOND
M  V30 END CTAB
M  END
>  <Dataset>  (371) 
ChEMBL_Kinases

>  <Ligand_Instance>  (371) 
nan

>  <PDB_ID>  (371) 
nan

>  <Standardized_SMILES>  (371) 
O=C(Nc1cc(-c2cc3c([nH]2)C2(CCNCC2)CNC3=O)ccn1)c1cccc(OC(F)(F)F)c1

>  <Name>  (371) 
nan

>  <Pocket>  (371) 
nan

>  <ATP_Site>  (371) 
nan

>  <Peripheral>  (371) 
nan

>  <Num_H_Atoms_ProtBoundConf>  (371) 
nan

>  <Num_Resolved_Atoms>  (371) 
nan

>  <Num_Not_Resolved_Atoms>  (371) 
nan

$$$$
CHEMBL1933174
     RDKit          3D

  0  0  0  0  0  0  0  0  0  0999 V3000
M  V30 BEGIN CTAB
M  V30 COUNTS 60 64 0 0 0
M  V30 BEGIN ATOM
M  V30 1 C 2.354153 -2.200547 3.516573 0
M  V30 2 N 3.768801 -2.162267 3.261867 0
M  V30 3 C 4.366702 -0.882498 3.632457 0
M  V30 4 C 3.703220 0.247237 2.885311 0
M  V30 5 C 3.752397 0.045047 1.389967 0
M  V30 6 C 3.579608 -1.371894 0.959919 0
M  V30 7 C 4.128392 -2.403702 1.883905 0
M  V30 8 C 5.081819 0.551043 0.864215 0
M  V30 9 N 5.224831 1.979719 1.121119 0
M  V30 10 C 4.159131 2.789235 0.584433 0
M  V30 11 O 4.296979 3.981231 0.224755 0
M  V30 12 C 2.822362 2.226564 0.433451 0
M  V30 13 C 1.634520 2.716474 -0.028292 0
M  V30 14 C 0.723564 1.682505 0.084086 0
M  V30 15 C -0.681678 1.785140 -0.304332 0
M  V30 16 C -1.206754 2.950472 -0.822299 0
M  V30 17 C -2.515045 3.142824 -1.215928 0
M  V30 18 N -3.327463 2.059096 -1.062314 0
M  V30 19 C -2.849593 0.899940 -0.558298 0
M  V30 20 N -3.747209 -0.220243 -0.414075 0
M  V30 21 C -3.716734 -0.985458 -1.612999 0
M  V30 22 O -2.951179 -0.551496 -2.511076 0
M  V30 23 C -4.492144 -2.197236 -1.851280 0
M  V30 24 C -4.318263 -2.790696 -3.084424 0
M  V30 25 C -5.038894 -3.949971 -3.355095 0
M  V30 26 C -5.895472 -4.476850 -2.411213 0
M  V30 27 C -6.044255 -3.861159 -1.195624 0
M  V30 28 O -6.935201 -4.455935 -0.283405 0
M  V30 29 C -6.349658 -5.429515 0.593012 0
M  V30 30 F -5.349256 -4.879605 1.365398 0
M  V30 31 F -7.367980 -5.922682 1.371268 0
M  V30 32 F -5.767131 -6.419517 -0.184864 0
M  V30 33 C -5.337896 -2.694529 -0.885239 0
M  V30 34 C -1.536404 0.712921 -0.165202 0
M  V30 35 N 1.354879 0.616898 0.595957 0
M  V30 36 C 2.653169 0.909533 0.826602 0
M  V30 37 H 2.051928 -3.074962 4.145839 0
M  V30 38 H 1.752170 -2.290164 2.582544 0
M  V30 39 H 2.006054 -1.302427 4.093001 0
M  V30 40 H 4.193496 -0.738379 4.705880 0
M  V30 41 H 5.425880 -0.926422 3.355157 0
M  V30 42 H 4.263487 1.179155 3.113034 0
M  V30 43 H 2.664346 0.412447 3.182821 0
M  V30 44 H 2.511201 -1.625481 0.727677 0
M  V30 45 H 4.102223 -1.494233 -0.025990 0
M  V30 46 H 3.668152 -3.384872 1.599638 0
M  V30 47 H 5.232992 -2.494795 1.855963 0
M  V30 48 H 5.893416 -0.032164 1.342198 0
M  V30 49 H 5.159134 0.395977 -0.225016 0
M  V30 50 H 5.972426 2.501673 1.628684 0
M  V30 51 H 1.433893 3.718312 -0.410427 0
M  V30 52 H -0.540923 3.802560 -0.936248 0
M  V30 53 H -2.841812 4.095890 -1.613651 0
M  V30 54 H -4.366828 -0.544780 0.352498 0
M  V30 55 H -3.657427 -2.412752 -3.855044 0
M  V30 56 H -4.901274 -4.424894 -4.338846 0
M  V30 57 H -6.407086 -5.382254 -2.725863 0
M  V30 58 H -5.470194 -2.235676 0.063888 0
M  V30 59 H -1.196932 -0.233838 0.233631 0
M  V30 60 H 0.832036 -0.292964 0.765165 0
M  V30 END ATOM
M  V30 BEGIN BOND
M  V30 1 1 1 2
M  V30 2 1 2 3
M  V30 3 1 3 4
M  V30 4 1 4 5
M  V30 5 1 5 6
M  V30 6 1 6 7
M  V30 7 1 5 8
M  V30 8 1 8 9
M  V30 9 1 9 10
M  V30 10 2 10 11
M  V30 11 1 10 12
M  V30 12 1 12 13
M  V30 13 2 13 14
M  V30 14 1 14 15
M  V30 15 2 15 16
M  V30 16 1 16 17
M  V30 17 2 17 18
M  V30 18 1 18 19
M  V30 19 1 19 20
M  V30 20 1 20 21
M  V30 21 2 21 22
M  V30 22 1 21 23
M  V30 23 2 23 24
M  V30 24 1 24 25
M  V30 25 2 25 26
M  V30 26 1 26 27
M  V30 27 1 27 28
M  V30 28 1 28 29
M  V30 29 1 29 30
M  V30 30 1 29 31
M  V30 31 1 29 32
M  V30 32 2 27 33
M  V30 33 2 19 34
M  V30 34 1 14 35
M  V30 35 1 35 36
M  V30 36 1 7 2
M  V30 37 2 36 12
M  V30 38 1 36 5
M  V30 39 1 34 15
M  V30 40 1 33 23
M  V30 41 1 1 37
M  V30 42 1 1 38
M  V30 43 1 1 39
M  V30 44 1 3 40
M  V30 45 1 3 41
M  V30 46 1 4 42
M  V30 47 1 4 43
M  V30 48 1 6 44
M  V30 49 1 6 45
M  V30 50 1 7 46
M  V30 51 1 7 47
M  V30 52 1 8 48
M  V30 53 1 8 49
M  V30 54 1 9 50
M  V30 55 1 13 51
M  V30 56 1 16 52
M  V30 57 1 17 53
M  V30 58 1 20 54
M  V30 59 1 24 55
M  V30 60 1 25 56
M  V30 61 1 26 57
M  V30 62 1 33 58
M  V30 63 1 34 59
M  V30 64 1 35 60
M  V30 END BOND
M  V30 END CTAB
M  END
>  <Dataset>  (372) 
ChEMBL_Kinases

>  <Ligand_Instance>  (372) 
nan

>  <PDB_ID>  (372) 
nan

>  <Standardized_SMILES>  (372) 
CN1CCC2(CC1)CNC(=O)c1cc(-c3ccnc(NC(=O)c4cccc(OC(F)(F)F)c4)c3)[nH]c12

>  <Name>  (372) 
nan

>  <Pocket>  (372) 
nan

>  <ATP_Site>  (372) 
nan

>  <Peripheral>  (372) 
nan

>  <Num_H_Atoms_ProtBoundConf>  (372) 
nan

>  <Num_Resolved_Atoms>  (372) 
nan

>  <Num_Not_Resolved_Atoms>  (372) 
nan

$$$$
CHEMBL1933175
     RDKit          3D

  0  0  0  0  0  0  0  0  0  0999 V3000
M  V30 BEGIN CTAB
M  V30 COUNTS 56 60 0 0 0
M  V30 BEGIN ATOM
M  V30 1 O -1.710887 -3.814680 -0.301247 0
M  V30 2 C -2.111264 -3.809761 0.896931 0
M  V30 3 N -1.101669 -3.694131 1.874703 0
M  V30 4 C 0.166115 -3.610310 1.185108 0
M  V30 5 C 0.640593 -2.364981 0.833538 0
M  V30 6 C 1.852085 -2.324358 0.177609 0
M  V30 7 C 2.408966 -1.020069 -0.222900 0
M  V30 8 C 3.612559 -0.847491 -0.884738 0
M  V30 9 C 3.762903 0.511716 -1.070420 0
M  V30 10 C 2.653769 1.150116 -0.521931 0
M  V30 11 N 1.859706 0.168192 -0.018439 0
M  V30 12 C 2.370895 2.610548 -0.481961 0
M  V30 13 C 2.711391 3.229335 0.848863 0
M  V30 14 C 1.675572 2.953856 1.907187 0
M  V30 15 N 0.328281 3.122945 1.448639 0
M  V30 16 C 0.242399 3.784597 0.168199 0
M  V30 17 C 0.917648 2.893043 -0.848633 0
M  V30 18 C 3.203953 3.329158 -1.524122 0
M  V30 19 N 4.536007 2.784962 -1.662076 0
M  V30 20 C 4.784891 1.384399 -1.688325 0
M  V30 21 O 5.770187 0.814211 -2.175339 0
M  V30 22 C 2.535142 -3.489845 -0.100696 0
M  V30 23 C 2.019090 -4.713604 0.271613 0
M  V30 24 N 0.820177 -4.762104 0.921371 0
M  V30 25 C -3.558849 -3.921957 1.169024 0
M  V30 26 C -4.360298 -4.024766 0.049761 0
M  V30 27 C -5.731701 -4.131421 0.295490 0
M  V30 28 C -6.263368 -4.134354 1.589239 0
M  V30 29 C -7.740282 -4.256007 1.641688 0
M  V30 30 F -8.353878 -3.033060 1.347369 0
M  V30 31 F -8.151412 -5.189950 0.708650 0
M  V30 32 F -8.131044 -4.660795 2.905274 0
M  V30 33 C -5.392199 -4.027450 2.654659 0
M  V30 34 C -4.031974 -3.920657 2.442332 0
M  V30 35 H -1.406893 -3.687564 2.876276 0
M  V30 36 H 0.055942 -1.466441 1.079374 0
M  V30 37 H 4.320325 -1.586619 -1.209198 0
M  V30 38 H 0.930934 0.276726 0.473670 0
M  V30 39 H 3.677027 2.868571 1.199699 0
M  V30 40 H 2.725114 4.327679 0.686778 0
M  V30 41 H 1.791018 1.985583 2.414657 0
M  V30 42 H 1.823880 3.734910 2.706962 0
M  V30 43 H -0.237254 2.255895 1.399568 0
M  V30 44 H 0.634586 4.799556 0.136761 0
M  V30 45 H -0.845857 3.767894 -0.112600 0
M  V30 46 H 0.386185 1.915902 -0.784134 0
M  V30 47 H 0.811210 3.238871 -1.888356 0
M  V30 48 H 3.319134 4.416937 -1.256598 0
M  V30 49 H 2.654923 3.235074 -2.503362 0
M  V30 50 H 5.395643 3.392416 -1.750755 0
M  V30 51 H 3.487257 -3.473102 -0.615024 0
M  V30 52 H 2.501073 -5.676262 0.086034 0
M  V30 53 H -3.999603 -4.027778 -0.983952 0
M  V30 54 H -6.368143 -4.213262 -0.599494 0
M  V30 55 H -5.870921 -4.036310 3.625504 0
M  V30 56 H -3.395577 -3.839870 3.304613 0
M  V30 END ATOM
M  V30 BEGIN BOND
M  V30 1 2 1 2
M  V30 2 1 2 3
M  V30 3 1 3 4
M  V30 4 2 4 5
M  V30 5 1 5 6
M  V30 6 1 6 7
M  V30 7 2 7 8
M  V30 8 1 8 9
M  V30 9 2 9 10
M  V30 10 1 10 11
M  V30 11 1 10 12
M  V30 12 1 12 13
M  V30 13 1 13 14
M  V30 14 1 14 15
M  V30 15 1 15 16
M  V30 16 1 16 17
M  V30 17 1 12 18
M  V30 18 1 18 19
M  V30 19 1 19 20
M  V30 20 2 20 21
M  V30 21 2 6 22
M  V30 22 1 22 23
M  V30 23 2 23 24
M  V30 24 1 2 25
M  V30 25 2 25 26
M  V30 26 1 26 27
M  V30 27 2 27 28
M  V30 28 1 28 29
M  V30 29 1 29 30
M  V30 30 1 29 31
M  V30 31 1 29 32
M  V30 32 1 28 33
M  V30 33 2 33 34
M  V30 34 1 24 4
M  V30 35 1 34 25
M  V30 36 1 11 7
M  V30 37 1 17 12
M  V30 38 1 20 9
M  V30 39 1 3 35
M  V30 40 1 5 36
M  V30 41 1 8 37
M  V30 42 1 11 38
M  V30 43 1 13 39
M  V30 44 1 13 40
M  V30 45 1 14 41
M  V30 46 1 14 42
M  V30 47 1 15 43
M  V30 48 1 16 44
M  V30 49 1 16 45
M  V30 50 1 17 46
M  V30 51 1 17 47
M  V30 52 1 18 48
M  V30 53 1 18 49
M  V30 54 1 19 50
M  V30 55 1 22 51
M  V30 56 1 23 52
M  V30 57 1 26 53
M  V30 58 1 27 54
M  V30 59 1 33 55
M  V30 60 1 34 56
M  V30 END BOND
M  V30 END CTAB
M  END
>  <Dataset>  (373) 
ChEMBL_Kinases

>  <Ligand_Instance>  (373) 
nan

>  <PDB_ID>  (373) 
nan

>  <Standardized_SMILES>  (373) 
O=C(Nc1cc(-c2cc3c([nH]2)C2(CCNCC2)CNC3=O)ccn1)c1ccc(C(F)(F)F)cc1

>  <Name>  (373) 
nan

>  <Pocket>  (373) 
nan

>  <ATP_Site>  (373) 
nan

>  <Peripheral>  (373) 
nan

>  <Num_H_Atoms_ProtBoundConf>  (373) 
nan

>  <Num_Resolved_Atoms>  (373) 
nan

>  <Num_Not_Resolved_Atoms>  (373) 
nan

$$$$
CHEMBL1933176
     RDKit          3D

  0  0  0  0  0  0  0  0  0  0999 V3000
M  V30 BEGIN CTAB
M  V30 COUNTS 52 56 0 0 0
M  V30 BEGIN ATOM
M  V30 1 O 0.100637 -3.911167 0.291082 0
M  V30 2 C -0.622472 -4.743991 -0.296985 0
M  V30 3 N -1.755371 -4.296613 -0.986014 0
M  V30 4 C -2.281378 -2.992244 -1.160543 0
M  V30 5 C -1.739207 -1.837547 -0.649269 0
M  V30 6 C -2.267489 -0.577470 -0.831208 0
M  V30 7 C -1.624866 0.597145 -0.250911 0
M  V30 8 C -2.079003 1.892694 -0.379320 0
M  V30 9 C -1.164585 2.647613 0.324917 0
M  V30 10 C -0.167514 1.836209 0.876226 0
M  V30 11 N -0.500855 0.573337 0.488632 0
M  V30 12 C 0.939390 2.393975 1.681529 0
M  V30 13 C 2.128508 2.585864 0.768589 0
M  V30 14 C 3.325218 3.134302 1.494993 0
M  V30 15 N 3.336914 2.984832 2.890963 0
M  V30 16 C 2.546321 2.006545 3.508991 0
M  V30 17 C 1.390946 1.453297 2.761997 0
M  V30 18 C 0.487128 3.674930 2.303581 0
M  V30 19 N -0.043546 4.608133 1.325415 0
M  V30 20 C -1.127464 4.109598 0.543157 0
M  V30 21 O -2.023475 4.871478 0.052065 0
M  V30 22 C -3.421481 -0.452371 -1.576993 0
M  V30 23 C -3.919220 -1.642706 -2.063633 0
M  V30 24 N -3.400113 -2.863328 -1.882526 0
M  V30 25 C -0.219114 -6.142164 -0.215915 0
M  V30 26 C 0.889761 -6.545961 0.462995 0
M  V30 27 C 1.238175 -7.880812 0.516155 0
M  V30 28 C 0.462745 -8.831138 -0.122035 0
M  V30 29 C -0.656839 -8.406229 -0.805218 0
M  V30 30 N -0.958649 -7.098550 -0.831199 0
M  V30 31 H -2.265661 -5.104465 -1.430180 0
M  V30 32 H -0.838138 -1.877968 -0.059347 0
M  V30 33 H -2.957601 2.185284 -0.921089 0
M  V30 34 H 0.065271 -0.239815 0.754961 0
M  V30 35 H 2.406899 1.586798 0.371406 0
M  V30 36 H 1.803842 3.197354 -0.097604 0
M  V30 37 H 3.311929 4.241881 1.277966 0
M  V30 38 H 4.291298 2.776149 1.056643 0
M  V30 39 H 3.617998 3.800023 3.464931 0
M  V30 40 H 3.196703 1.145744 3.843082 0
M  V30 41 H 2.177334 2.430890 4.485528 0
M  V30 42 H 0.519964 1.272045 3.451022 0
M  V30 43 H 1.612144 0.439864 2.316766 0
M  V30 44 H 1.275748 4.174685 2.901360 0
M  V30 45 H -0.319454 3.425545 3.018398 0
M  V30 46 H 0.274004 5.602695 1.125620 0
M  V30 47 H -3.895815 0.499737 -1.764128 0
M  V30 48 H -4.830093 -1.595689 -2.659152 0
M  V30 49 H 1.497756 -5.811738 0.961937 0
M  V30 50 H 2.128703 -8.186926 1.063785 0
M  V30 51 H 0.713856 -9.884143 -0.095775 0
M  V30 52 H -1.295447 -9.122152 -1.321958 0
M  V30 END ATOM
M  V30 BEGIN BOND
M  V30 1 2 1 2
M  V30 2 1 2 3
M  V30 3 1 3 4
M  V30 4 2 4 5
M  V30 5 1 5 6
M  V30 6 1 6 7
M  V30 7 2 7 8
M  V30 8 1 8 9
M  V30 9 2 9 10
M  V30 10 1 10 11
M  V30 11 1 10 12
M  V30 12 1 12 13
M  V30 13 1 13 14
M  V30 14 1 14 15
M  V30 15 1 15 16
M  V30 16 1 16 17
M  V30 17 1 12 18
M  V30 18 1 18 19
M  V30 19 1 19 20
M  V30 20 2 20 21
M  V30 21 2 6 22
M  V30 22 1 22 23
M  V30 23 2 23 24
M  V30 24 1 2 25
M  V30 25 2 25 26
M  V30 26 1 26 27
M  V30 27 2 27 28
M  V30 28 1 28 29
M  V30 29 2 29 30
M  V30 30 1 24 4
M  V30 31 1 30 25
M  V30 32 1 11 7
M  V30 33 1 17 12
M  V30 34 1 20 9
M  V30 35 1 3 31
M  V30 36 1 5 32
M  V30 37 1 8 33
M  V30 38 1 11 34
M  V30 39 1 13 35
M  V30 40 1 13 36
M  V30 41 1 14 37
M  V30 42 1 14 38
M  V30 43 1 15 39
M  V30 44 1 16 40
M  V30 45 1 16 41
M  V30 46 1 17 42
M  V30 47 1 17 43
M  V30 48 1 18 44
M  V30 49 1 18 45
M  V30 50 1 19 46
M  V30 51 1 22 47
M  V30 52 1 23 48
M  V30 53 1 26 49
M  V30 54 1 27 50
M  V30 55 1 28 51
M  V30 56 1 29 52
M  V30 END BOND
M  V30 END CTAB
M  END
>  <Dataset>  (374) 
ChEMBL_Kinases

>  <Ligand_Instance>  (374) 
nan

>  <PDB_ID>  (374) 
nan

>  <Standardized_SMILES>  (374) 
O=C(Nc1cc(-c2cc3c([nH]2)C2(CCNCC2)CNC3=O)ccn1)c1ccccn1

>  <Name>  (374) 
nan

>  <Pocket>  (374) 
nan

>  <ATP_Site>  (374) 
nan

>  <Peripheral>  (374) 
nan

>  <Num_H_Atoms_ProtBoundConf>  (374) 
nan

>  <Num_Resolved_Atoms>  (374) 
nan

>  <Num_Not_Resolved_Atoms>  (374) 
nan

$$$$
CHEMBL1933178
     RDKit          3D

  0  0  0  0  0  0  0  0  0  0999 V3000
M  V30 BEGIN CTAB
M  V30 COUNTS 59 63 0 0 0
M  V30 BEGIN ATOM
M  V30 1 C 3.552811 -3.708768 7.520978 0
M  V30 2 C 3.408658 -3.135080 6.151014 0
M  V30 3 C 3.505949 -1.766647 5.979491 0
M  V30 4 C 3.380738 -1.180413 4.734484 0
M  V30 5 C 3.152977 -2.004865 3.650535 0
M  V30 6 C 2.993105 -1.555411 2.247798 0
M  V30 7 O 2.782782 -2.320808 1.247806 0
M  V30 8 N 3.058639 -0.181108 1.851303 0
M  V30 9 C 2.858856 -0.141832 0.423487 0
M  V30 10 C 1.619637 -0.020595 -0.175714 0
M  V30 11 C 1.565893 0.004829 -1.541186 0
M  V30 12 C 0.280567 0.131778 -2.220282 0
M  V30 13 C 0.067104 0.171849 -3.587878 0
M  V30 14 C -1.273817 0.296988 -3.798688 0
M  V30 15 C -1.910431 0.336406 -2.575068 0
M  V30 16 N -0.936062 0.233879 -1.655817 0
M  V30 17 C -3.384677 0.466871 -2.285544 0
M  V30 18 C -3.759385 1.914607 -2.238046 0
M  V30 19 C -4.572531 2.354464 -1.081409 0
M  V30 20 C -5.244578 1.236418 -0.317835 0
M  V30 21 N -4.132564 0.355415 0.074497 0
M  V30 22 C -3.788318 -0.361784 -1.121335 0
M  V30 23 C -4.079110 -0.142838 -3.499103 0
M  V30 24 N -3.595170 0.520722 -4.696922 0
M  V30 25 C -2.187297 0.396899 -4.943469 0
M  V30 26 O -1.681510 0.368570 -6.105306 0
M  V30 27 C 2.716296 -0.087972 -2.297030 0
M  V30 28 C 3.960765 -0.209955 -1.680083 0
M  V30 29 N 3.963065 -0.230375 -0.337106 0
M  V30 30 C 3.052266 -3.381307 3.803004 0
M  V30 31 C 3.177767 -3.964476 5.048103 0
M  V30 32 C 3.072428 -5.448999 5.235423 0
M  V30 33 H 2.889698 -3.148016 8.217613 0
M  V30 34 H 3.137618 -4.744121 7.497616 0
M  V30 35 H 4.617452 -3.700632 7.832469 0
M  V30 36 H 3.682365 -1.071966 6.784057 0
M  V30 37 H 3.444136 -0.121960 4.519056 0
M  V30 38 H 3.230012 0.543092 2.602896 0
M  V30 39 H 0.743563 0.049041 0.466151 0
M  V30 40 H 0.804492 0.116834 -4.384002 0
M  V30 41 H -1.033976 0.226731 -0.598514 0
M  V30 42 H -2.818805 2.539394 -2.257700 0
M  V30 43 H -4.285303 2.245082 -3.182119 0
M  V30 44 H -3.946419 2.899835 -0.347161 0
M  V30 45 H -5.360295 3.090777 -1.392862 0
M  V30 46 H -5.882298 0.649872 -0.990274 0
M  V30 47 H -5.761034 1.681077 0.540108 0
M  V30 48 H -3.342025 0.966345 0.369160 0
M  V30 49 H -4.657434 -1.047301 -1.332484 0
M  V30 50 H -2.951764 -1.065576 -0.889335 0
M  V30 51 H -3.796897 -1.221874 -3.501748 0
M  V30 52 H -5.182534 -0.073578 -3.406011 0
M  V30 53 H -4.129262 1.086733 -5.421806 0
M  V30 54 H 2.684807 -0.068703 -3.382073 0
M  V30 55 H 4.906538 -0.287604 -2.213161 0
M  V30 56 H 2.872400 -4.075998 2.973874 0
M  V30 57 H 3.874275 -5.827527 5.901114 0
M  V30 58 H 2.050309 -5.706451 5.567012 0
M  V30 59 H 3.254400 -5.894900 4.227571 0
M  V30 END ATOM
M  V30 BEGIN BOND
M  V30 1 1 1 2
M  V30 2 2 2 3
M  V30 3 1 3 4
M  V30 4 2 4 5
M  V30 5 1 5 6
M  V30 6 2 6 7
M  V30 7 1 6 8
M  V30 8 1 8 9
M  V30 9 2 9 10
M  V30 10 1 10 11
M  V30 11 1 11 12
M  V30 12 2 12 13
M  V30 13 1 13 14
M  V30 14 2 14 15
M  V30 15 1 15 16
M  V30 16 1 15 17
M  V30 17 1 17 18
M  V30 18 1 18 19
M  V30 19 1 19 20
M  V30 20 1 20 21
M  V30 21 1 21 22
M  V30 22 1 17 23
M  V30 23 1 23 24
M  V30 24 1 24 25
M  V30 25 2 25 26
M  V30 26 2 11 27
M  V30 27 1 27 28
M  V30 28 2 28 29
M  V30 29 1 5 30
M  V30 30 2 30 31
M  V30 31 1 31 32
M  V30 32 1 31 2
M  V30 33 1 29 9
M  V30 34 1 16 12
M  V30 35 1 22 17
M  V30 36 1 25 14
M  V30 37 1 1 33
M  V30 38 1 1 34
M  V30 39 1 1 35
M  V30 40 1 3 36
M  V30 41 1 4 37
M  V30 42 1 8 38
M  V30 43 1 10 39
M  V30 44 1 13 40
M  V30 45 1 16 41
M  V30 46 1 18 42
M  V30 47 1 18 43
M  V30 48 1 19 44
M  V30 49 1 19 45
M  V30 50 1 20 46
M  V30 51 1 20 47
M  V30 52 1 21 48
M  V30 53 1 22 49
M  V30 54 1 22 50
M  V30 55 1 23 51
M  V30 56 1 23 52
M  V30 57 1 24 53
M  V30 58 1 27 54
M  V30 59 1 28 55
M  V30 60 1 30 56
M  V30 61 1 32 57
M  V30 62 1 32 58
M  V30 63 1 32 59
M  V30 END BOND
M  V30 END CTAB
M  END
>  <Dataset>  (375) 
ChEMBL_Kinases

>  <Ligand_Instance>  (375) 
nan

>  <PDB_ID>  (375) 
nan

>  <Standardized_SMILES>  (375) 
Cc1ccc(C(=O)Nc2cc(-c3cc4c([nH]3)C3(CCCNC3)CNC4=O)ccn2)cc1C

>  <Name>  (375) 
nan

>  <Pocket>  (375) 
nan

>  <ATP_Site>  (375) 
nan

>  <Peripheral>  (375) 
nan

>  <Num_H_Atoms_ProtBoundConf>  (375) 
nan

>  <Num_Resolved_Atoms>  (375) 
nan

>  <Num_Not_Resolved_Atoms>  (375) 
nan

$$$$
CHEMBL1933179
     RDKit          3D

  0  0  0  0  0  0  0  0  0  0999 V3000
M  V30 BEGIN CTAB
M  V30 COUNTS 59 64 0 0 0
M  V30 BEGIN ATOM
M  V30 1 O -0.957762 -3.623321 -1.823288 0
M  V30 2 C -1.086339 -4.055996 -0.647582 0
M  V30 3 N 0.054734 -3.822945 0.168836 0
M  V30 4 C 1.292038 -3.185434 -0.145962 0
M  V30 5 C 1.503833 -1.831146 0.014726 0
M  V30 6 C 2.713736 -1.248828 -0.300259 0
M  V30 7 C 2.884151 0.196337 -0.109599 0
M  V30 8 C 4.038037 0.899968 -0.385134 0
M  V30 9 C 3.746997 2.207898 -0.059489 0
M  V30 10 C 2.441553 2.323811 0.409567 0
M  V30 11 N 1.986956 1.059402 0.347834 0
M  V30 12 C 1.851577 3.624948 0.838434 0
M  V30 13 C 2.154773 3.925299 2.283921 0
M  V30 14 C 1.100755 3.395830 3.229678 0
M  V30 15 C -0.249056 3.915069 2.772937 0
M  V30 16 N -0.507812 3.280188 1.501853 0
M  V30 17 C 0.405440 3.678987 0.478026 0
M  V30 18 C 2.535542 4.739144 0.038258 0
M  V30 19 N 3.968165 4.649268 0.282288 0
M  V30 20 C 4.586180 3.418987 -0.140849 0
M  V30 21 O 5.794874 3.412110 -0.557689 0
M  V30 22 C 3.750718 -2.016212 -0.788472 0
M  V30 23 C 3.501070 -3.375872 -0.937083 0
M  V30 24 N 2.312049 -3.952061 -0.628226 0
M  V30 25 C -2.235271 -4.740656 -0.065969 0
M  V30 26 C -2.387601 -5.217837 1.219140 0
M  V30 27 C -3.564130 -5.841095 1.571152 0
M  V30 28 C -4.600342 -6.004912 0.677215 0
M  V30 29 C -5.765327 -6.641777 1.087296 0
M  V30 30 C -6.797757 -6.801839 0.186546 0
M  V30 31 C -6.670575 -6.333953 -1.103668 0
M  V30 32 C -5.501092 -5.705985 -1.479815 0
M  V30 33 C -4.444755 -5.527014 -0.605756 0
M  V30 34 C -3.283739 -4.905890 -0.972156 0
M  V30 35 H 0.145859 -4.104295 1.169728 0
M  V30 36 H 0.663698 -1.271758 0.399488 0
M  V30 37 H 4.974819 0.521933 -0.772533 0
M  V30 38 H 1.032485 0.754039 0.623342 0
M  V30 39 H 3.154898 3.543911 2.515168 0
M  V30 40 H 2.122373 5.037181 2.402876 0
M  V30 41 H 1.346464 3.785619 4.237953 0
M  V30 42 H 1.053533 2.297089 3.202668 0
M  V30 43 H -1.035276 3.566241 3.475939 0
M  V30 44 H -0.296141 4.997023 2.647695 0
M  V30 45 H -0.598698 2.260865 1.528519 0
M  V30 46 H 0.252283 2.948982 -0.370157 0
M  V30 47 H 0.116803 4.663913 0.014278 0
M  V30 48 H 2.177132 5.718717 0.385539 0
M  V30 49 H 2.289512 4.543581 -1.023357 0
M  V30 50 H 4.589513 5.379677 0.728999 0
M  V30 51 H 4.714966 -1.594363 -1.046763 0
M  V30 52 H 4.304533 -3.990840 -1.318897 0
M  V30 53 H -1.529171 -5.048705 1.855219 0
M  V30 54 H -3.606226 -6.189064 2.602018 0
M  V30 55 H -5.865199 -7.007681 2.095897 0
M  V30 56 H -7.688130 -7.301777 0.541211 0
M  V30 57 H -7.530341 -6.504396 -1.737631 0
M  V30 58 H -5.435743 -5.351612 -2.498965 0
M  V30 59 H -3.256698 -4.563689 -2.005398 0
M  V30 END ATOM
M  V30 BEGIN BOND
M  V30 1 2 1 2
M  V30 2 1 2 3
M  V30 3 1 3 4
M  V30 4 2 4 5
M  V30 5 1 5 6
M  V30 6 1 6 7
M  V30 7 2 7 8
M  V30 8 1 8 9
M  V30 9 2 9 10
M  V30 10 1 10 11
M  V30 11 1 10 12
M  V30 12 1 12 13
M  V30 13 1 13 14
M  V30 14 1 14 15
M  V30 15 1 15 16
M  V30 16 1 16 17
M  V30 17 1 12 18
M  V30 18 1 18 19
M  V30 19 1 19 20
M  V30 20 2 20 21
M  V30 21 2 6 22
M  V30 22 1 22 23
M  V30 23 2 23 24
M  V30 24 1 2 25
M  V30 25 2 25 26
M  V30 26 1 26 27
M  V30 27 2 27 28
M  V30 28 1 28 29
M  V30 29 2 29 30
M  V30 30 1 30 31
M  V30 31 2 31 32
M  V30 32 1 32 33
M  V30 33 2 33 34
M  V30 34 1 24 4
M  V30 35 1 34 25
M  V30 36 1 11 7
M  V30 37 1 17 12
M  V30 38 1 33 28
M  V30 39 1 20 9
M  V30 40 1 3 35
M  V30 41 1 5 36
M  V30 42 1 8 37
M  V30 43 1 11 38
M  V30 44 1 13 39
M  V30 45 1 13 40
M  V30 46 1 14 41
M  V30 47 1 14 42
M  V30 48 1 15 43
M  V30 49 1 15 44
M  V30 50 1 16 45
M  V30 51 1 17 46
M  V30 52 1 17 47
M  V30 53 1 18 48
M  V30 54 1 18 49
M  V30 55 1 19 50
M  V30 56 1 22 51
M  V30 57 1 23 52
M  V30 58 1 26 53
M  V30 59 1 27 54
M  V30 60 1 29 55
M  V30 61 1 30 56
M  V30 62 1 31 57
M  V30 63 1 32 58
M  V30 64 1 34 59
M  V30 END BOND
M  V30 END CTAB
M  END
>  <Dataset>  (376) 
ChEMBL_Kinases

>  <Ligand_Instance>  (376) 
nan

>  <PDB_ID>  (376) 
nan

>  <Standardized_SMILES>  (376) 
O=C(Nc1cc(-c2cc3c([nH]2)C2(CCCNC2)CNC3=O)ccn1)c1ccc2ccccc2c1

>  <Name>  (376) 
nan

>  <Pocket>  (376) 
nan

>  <ATP_Site>  (376) 
nan

>  <Peripheral>  (376) 
nan

>  <Num_H_Atoms_ProtBoundConf>  (376) 
nan

>  <Num_Resolved_Atoms>  (376) 
nan

>  <Num_Not_Resolved_Atoms>  (376) 
nan

$$$$
CHEMBL1933170
     RDKit          3D

  0  0  0  0  0  0  0  0  0  0999 V3000
M  V30 BEGIN CTAB
M  V30 COUNTS 62 67 0 0 0
M  V30 BEGIN ATOM
M  V30 1 C 1.990742 0.069551 6.330514 0
M  V30 2 N 1.392059 0.949756 5.346680 0
M  V30 3 C 2.213937 2.110558 5.084006 0
M  V30 4 C 2.083189 2.602479 3.657212 0
M  V30 5 C 2.744695 1.586480 2.760016 0
M  V30 6 C 2.342554 0.212153 3.234701 0
M  V30 7 C 1.092644 0.252878 4.111561 0
M  V30 8 C 4.235567 1.801162 2.827865 0
M  V30 9 N 4.507481 3.095510 2.229266 0
M  V30 10 C 4.069745 3.321490 0.893465 0
M  V30 11 O 4.661983 4.092070 0.074624 0
M  V30 12 C 2.859308 2.629377 0.413205 0
M  V30 13 C 2.126933 2.568738 -0.754764 0
M  V30 14 C 1.082316 1.699947 -0.508413 0
M  V30 15 C 0.055248 1.346044 -1.489872 0
M  V30 16 C 0.068252 1.879611 -2.768564 0
M  V30 17 C -0.907991 1.538356 -3.691455 0
M  V30 18 N -1.861231 0.670293 -3.287264 0
M  V30 19 C -1.874086 0.153055 -2.048070 0
M  V30 20 N -2.987795 -0.746611 -1.856896 0
M  V30 21 C -2.540939 -2.054666 -2.229788 0
M  V30 22 O -1.322906 -2.041415 -2.611271 0
M  V30 23 C -3.392302 -3.256140 -2.174730 0
M  V30 24 C -4.695866 -3.226718 -1.757977 0
M  V30 25 C -5.445251 -4.386507 -1.727737 0
M  V30 26 C -4.816645 -5.548489 -2.132914 0
M  V30 27 C -5.510100 -6.738894 -2.125849 0
M  V30 28 C -4.976318 -7.954311 -2.510640 0
M  V30 29 C -3.648931 -7.947247 -2.928424 0
M  V30 30 C -2.909056 -6.778350 -2.953991 0
M  V30 31 C -3.503872 -5.596166 -2.555806 0
M  V30 32 C -2.751878 -4.420197 -2.583985 0
M  V30 33 C -0.937016 0.459350 -1.110281 0
M  V30 34 N 1.201858 1.268707 0.760474 0
M  V30 35 C 2.284318 1.817430 1.364593 0
M  V30 36 H 3.106118 0.045710 6.238845 0
M  V30 37 H 1.758519 0.388777 7.367052 0
M  V30 38 H 1.643014 -0.978341 6.216688 0
M  V30 39 H 1.819163 2.920364 5.764896 0
M  V30 40 H 3.253242 1.951655 5.399953 0
M  V30 41 H 1.002534 2.714780 3.447612 0
M  V30 42 H 2.540439 3.606272 3.613183 0
M  V30 43 H 2.101396 -0.490917 2.413049 0
M  V30 44 H 3.161431 -0.252882 3.815995 0
M  V30 45 H 0.845171 -0.781196 4.359256 0
M  V30 46 H 0.272075 0.743148 3.580784 0
M  V30 47 H 4.640740 1.710382 3.842758 0
M  V30 48 H 4.705101 1.021853 2.158809 0
M  V30 49 H 5.005406 3.904392 2.686987 0
M  V30 50 H 2.394976 3.124110 -1.630272 0
M  V30 51 H 0.842034 2.575809 -3.076141 0
M  V30 52 H -0.920906 1.940397 -4.695687 0
M  V30 53 H -3.973897 -0.636344 -1.526607 0
M  V30 54 H -5.141797 -2.304319 -1.453070 0
M  V30 55 H -6.466206 -4.364035 -1.401473 0
M  V30 56 H -6.551622 -6.748498 -1.798833 0
M  V30 57 H -5.520741 -8.878614 -2.503273 0
M  V30 58 H -3.124980 -8.836971 -3.252278 0
M  V30 59 H -1.883972 -6.782224 -3.278297 0
M  V30 60 H -1.736924 -4.446488 -2.908942 0
M  V30 61 H -1.023725 0.002193 -0.150431 0
M  V30 62 H 0.521581 0.599467 1.173651 0
M  V30 END ATOM
M  V30 BEGIN BOND
M  V30 1 1 1 2
M  V30 2 1 2 3
M  V30 3 1 3 4
M  V30 4 1 4 5
M  V30 5 1 5 6
M  V30 6 1 6 7
M  V30 7 1 5 8
M  V30 8 1 8 9
M  V30 9 1 9 10
M  V30 10 2 10 11
M  V30 11 1 10 12
M  V30 12 1 12 13
M  V30 13 2 13 14
M  V30 14 1 14 15
M  V30 15 2 15 16
M  V30 16 1 16 17
M  V30 17 2 17 18
M  V30 18 1 18 19
M  V30 19 1 19 20
M  V30 20 1 20 21
M  V30 21 2 21 22
M  V30 22 1 21 23
M  V30 23 2 23 24
M  V30 24 1 24 25
M  V30 25 2 25 26
M  V30 26 1 26 27
M  V30 27 2 27 28
M  V30 28 1 28 29
M  V30 29 2 29 30
M  V30 30 1 30 31
M  V30 31 2 31 32
M  V30 32 2 19 33
M  V30 33 1 14 34
M  V30 34 1 34 35
M  V30 35 1 7 2
M  V30 36 2 35 12
M  V30 37 1 35 5
M  V30 38 1 33 15
M  V30 39 1 32 23
M  V30 40 1 31 26
M  V30 41 1 1 36
M  V30 42 1 1 37
M  V30 43 1 1 38
M  V30 44 1 3 39
M  V30 45 1 3 40
M  V30 46 1 4 41
M  V30 47 1 4 42
M  V30 48 1 6 43
M  V30 49 1 6 44
M  V30 50 1 7 45
M  V30 51 1 7 46
M  V30 52 1 8 47
M  V30 53 1 8 48
M  V30 54 1 9 49
M  V30 55 1 13 50
M  V30 56 1 16 51
M  V30 57 1 17 52
M  V30 58 1 20 53
M  V30 59 1 24 54
M  V30 60 1 25 55
M  V30 61 1 27 56
M  V30 62 1 28 57
M  V30 63 1 29 58
M  V30 64 1 30 59
M  V30 65 1 32 60
M  V30 66 1 33 61
M  V30 67 1 34 62
M  V30 END BOND
M  V30 END CTAB
M  END
>  <Dataset>  (377) 
ChEMBL_Kinases

>  <Ligand_Instance>  (377) 
nan

>  <PDB_ID>  (377) 
nan

>  <Standardized_SMILES>  (377) 
CN1CCC2(CC1)CNC(=O)c1cc(-c3ccnc(NC(=O)c4ccc5ccccc5c4)c3)[nH]c12

>  <Name>  (377) 
nan

>  <Pocket>  (377) 
nan

>  <ATP_Site>  (377) 
nan

>  <Peripheral>  (377) 
nan

>  <Num_H_Atoms_ProtBoundConf>  (377) 
nan

>  <Num_Resolved_Atoms>  (377) 
nan

>  <Num_Not_Resolved_Atoms>  (377) 
nan

$$$$
CHEMBL1923180
     RDKit          3D

  0  0  0  0  0  0  0  0  0  0999 V3000
M  V30 BEGIN CTAB
M  V30 COUNTS 43 46 0 0 0
M  V30 BEGIN ATOM
M  V30 1 C -1.804039 -6.969592 -2.209252 0
M  V30 2 O -1.721380 -5.823690 -3.065863 0
M  V30 3 C -0.740335 -4.851370 -2.833022 0
M  V30 4 C 0.141698 -5.014760 -1.768251 0
M  V30 5 C 1.095689 -4.058401 -1.549599 0
M  V30 6 C 1.239506 -2.917142 -2.335898 0
M  V30 7 C 2.314722 -1.999978 -1.949039 0
M  V30 8 N 1.938863 -0.944079 -1.068185 0
M  V30 9 C 1.671613 -1.007408 0.324957 0
M  V30 10 O 1.754974 -2.116560 0.904190 0
M  V30 11 C 1.305139 0.191050 1.087483 0
M  V30 12 C 1.227791 1.453458 0.541779 0
M  V30 13 C 0.878019 2.327444 1.546686 0
M  V30 14 C 0.645858 3.691818 1.714978 0
M  V30 15 C 0.317205 4.082194 3.033774 0
M  V30 16 C 0.216503 3.197802 4.136251 0
M  V30 17 C -0.115946 4.179180 5.115829 0
M  V30 18 C -0.431038 5.114199 6.040756 0
M  V30 19 N -0.647367 4.856874 7.352193 0
M  V30 20 N -0.485684 3.525026 7.514609 0
M  V30 21 C -0.184319 3.183267 6.213676 0
M  V30 22 N 0.457839 1.916415 3.858691 0
M  V30 23 C 0.773369 1.494572 2.629345 0
M  V30 24 N 1.020464 0.200984 2.401902 0
M  V30 25 C 0.343745 -2.804574 -3.374170 0
M  V30 26 C -0.635303 -3.737912 -3.639112 0
M  V30 27 H -0.868191 -7.583366 -2.298836 0
M  V30 28 H -2.698115 -7.561151 -2.490728 0
M  V30 29 H -1.901686 -6.614229 -1.180888 0
M  V30 30 H 0.010969 -5.913235 -1.168717 0
M  V30 31 H 1.720016 -4.303865 -0.703101 0
M  V30 32 H 2.703340 -1.549663 -2.894631 0
M  V30 33 H 3.204188 -2.542762 -1.533686 0
M  V30 34 H 1.835656 0.033344 -1.476184 0
M  V30 35 H 1.397839 1.787259 -0.490963 0
M  V30 36 H 0.769801 4.190078 0.766321 0
M  V30 37 H 0.195418 5.180694 2.863932 0
M  V30 38 H -0.406059 5.951282 5.284514 0
M  V30 39 H -0.669223 3.443722 8.522812 0
M  V30 40 H -0.082039 2.078043 6.520103 0
M  V30 41 H 1.023474 -0.646072 2.996270 0
M  V30 42 H 0.476980 -1.899787 -3.980534 0
M  V30 43 H -1.314986 -3.598492 -4.471600 0
M  V30 END ATOM
M  V30 BEGIN BOND
M  V30 1 1 1 2
M  V30 2 1 2 3
M  V30 3 2 3 4
M  V30 4 1 4 5
M  V30 5 2 5 6
M  V30 6 1 6 7
M  V30 7 1 7 8
M  V30 8 1 8 9
M  V30 9 2 9 10
M  V30 10 1 9 11
M  V30 11 2 11 12
M  V30 12 1 12 13
M  V30 13 2 13 14
M  V30 14 1 14 15
M  V30 15 2 15 16
M  V30 16 1 16 17
M  V30 17 1 17 18
M  V30 18 2 18 19
M  V30 19 1 19 20
M  V30 20 1 20 21
M  V30 21 1 16 22
M  V30 22 2 22 23
M  V30 23 1 23 24
M  V30 24 1 6 25
M  V30 25 2 25 26
M  V30 26 1 26 3
M  V30 27 1 24 11
M  V30 28 1 23 13
M  V30 29 2 21 17
M  V30 30 1 1 27
M  V30 31 1 1 28
M  V30 32 1 1 29
M  V30 33 1 4 30
M  V30 34 1 5 31
M  V30 35 1 7 32
M  V30 36 1 7 33
M  V30 37 1 8 34
M  V30 38 1 12 35
M  V30 39 1 14 36
M  V30 40 1 15 37
M  V30 41 1 18 38
M  V30 42 1 20 39
M  V30 43 1 21 40
M  V30 44 1 24 41
M  V30 45 1 25 42
M  V30 46 1 26 43
M  V30 END BOND
M  V30 END CTAB
M  END
>  <Dataset>  (378) 
ChEMBL_Kinases

>  <Ligand_Instance>  (378) 
nan

>  <PDB_ID>  (378) 
nan

>  <Standardized_SMILES>  (378) 
COc1ccc(CNC(=O)c2cc3ccc(-c4cn[nH]c4)nc3[nH]2)cc1

>  <Name>  (378) 
nan

>  <Pocket>  (378) 
nan

>  <ATP_Site>  (378) 
nan

>  <Peripheral>  (378) 
nan

>  <Num_H_Atoms_ProtBoundConf>  (378) 
nan

>  <Num_Resolved_Atoms>  (378) 
nan

>  <Num_Not_Resolved_Atoms>  (378) 
nan

$$$$
CHEMBL1923179
     RDKit          3D

  0  0  0  0  0  0  0  0  0  0999 V3000
M  V30 BEGIN CTAB
M  V30 COUNTS 43 46 0 0 0
M  V30 BEGIN ATOM
M  V30 1 C 5.272953 -0.218900 1.925679 0
M  V30 2 O 4.470422 0.441992 0.971631 0
M  V30 3 C 4.680287 0.217028 -0.367153 0
M  V30 4 C 5.615581 -0.607870 -0.945429 0
M  V30 5 C 5.770416 -0.785568 -2.300672 0
M  V30 6 C 4.939518 -0.096547 -3.125506 0
M  V30 7 C 3.983409 0.744985 -2.581457 0
M  V30 8 C 3.814664 0.935336 -1.204670 0
M  V30 9 C 2.768567 1.850867 -0.661098 0
M  V30 10 N 1.701723 0.982052 -0.169232 0
M  V30 11 C 0.619538 1.693649 0.396056 0
M  V30 12 O 0.611309 2.964402 0.452231 0
M  V30 13 C -0.534624 0.980515 0.939277 0
M  V30 14 C -1.637216 1.547188 1.548465 0
M  V30 15 C -2.510700 0.519570 1.925386 0
M  V30 16 C -3.734565 0.560454 2.561942 0
M  V30 17 C -4.364987 -0.642741 2.803099 0
M  V30 18 C -3.760728 -1.814960 2.407163 0
M  V30 19 C -4.383145 -3.116811 2.637523 0
M  V30 20 C -3.842724 -4.332674 2.269530 0
M  V30 21 N -4.708432 -5.290209 2.654226 0
M  V30 22 N -5.763635 -4.769145 3.242333 0
M  V30 23 C -5.584323 -3.438841 3.242342 0
M  V30 24 N -2.547565 -1.844870 1.777023 0
M  V30 25 C -1.894220 -0.669928 1.522072 0
M  V30 26 N -0.719124 -0.359349 0.938264 0
M  V30 27 H 6.318751 -0.387311 1.600726 0
M  V30 28 H 5.331659 0.339190 2.883214 0
M  V30 29 H 4.829773 -1.217046 2.209686 0
M  V30 30 H 6.266607 -1.147917 -0.275295 0
M  V30 31 H 6.523033 -1.447131 -2.701998 0
M  V30 32 H 4.975779 -0.163588 -4.224572 0
M  V30 33 H 3.322880 1.291773 -3.270703 0
M  V30 34 H 3.162421 2.523048 0.108139 0
M  V30 35 H 2.362662 2.405746 -1.544850 0
M  V30 36 H 1.720638 -0.071517 -0.222785 0
M  V30 37 H -1.756289 2.618788 1.686650 0
M  V30 38 H -4.172243 1.521616 2.856974 0
M  V30 39 H -5.341559 -0.658668 3.307858 0
M  V30 40 H -2.918313 -4.529860 1.772388 0
M  V30 41 H -6.625550 -5.190806 3.663169 0
M  V30 42 H -6.230121 -2.647892 3.635489 0
M  V30 43 H -0.057561 -1.067431 0.545677 0
M  V30 END ATOM
M  V30 BEGIN BOND
M  V30 1 1 1 2
M  V30 2 1 2 3
M  V30 3 2 3 4
M  V30 4 1 4 5
M  V30 5 2 5 6
M  V30 6 1 6 7
M  V30 7 2 7 8
M  V30 8 1 8 9
M  V30 9 1 9 10
M  V30 10 1 10 11
M  V30 11 2 11 12
M  V30 12 1 11 13
M  V30 13 2 13 14
M  V30 14 1 14 15
M  V30 15 2 15 16
M  V30 16 1 16 17
M  V30 17 2 17 18
M  V30 18 1 18 19
M  V30 19 1 19 20
M  V30 20 2 20 21
M  V30 21 1 21 22
M  V30 22 1 22 23
M  V30 23 1 18 24
M  V30 24 2 24 25
M  V30 25 1 25 26
M  V30 26 1 8 3
M  V30 27 1 26 13
M  V30 28 1 25 15
M  V30 29 2 23 19
M  V30 30 1 1 27
M  V30 31 1 1 28
M  V30 32 1 1 29
M  V30 33 1 4 30
M  V30 34 1 5 31
M  V30 35 1 6 32
M  V30 36 1 7 33
M  V30 37 1 9 34
M  V30 38 1 9 35
M  V30 39 1 10 36
M  V30 40 1 14 37
M  V30 41 1 16 38
M  V30 42 1 17 39
M  V30 43 1 20 40
M  V30 44 1 22 41
M  V30 45 1 23 42
M  V30 46 1 26 43
M  V30 END BOND
M  V30 END CTAB
M  END
>  <Dataset>  (379) 
ChEMBL_Kinases

>  <Ligand_Instance>  (379) 
nan

>  <PDB_ID>  (379) 
nan

>  <Standardized_SMILES>  (379) 
COc1ccccc1CNC(=O)c1cc2ccc(-c3cn[nH]c3)nc2[nH]1

>  <Name>  (379) 
nan

>  <Pocket>  (379) 
nan

>  <ATP_Site>  (379) 
nan

>  <Peripheral>  (379) 
nan

>  <Num_H_Atoms_ProtBoundConf>  (379) 
nan

>  <Num_Resolved_Atoms>  (379) 
nan

>  <Num_Not_Resolved_Atoms>  (379) 
nan

$$$$
CHEMBL1923178
     RDKit          3D

  0  0  0  0  0  0  0  0  0  0999 V3000
M  V30 BEGIN CTAB
M  V30 COUNTS 48 51 0 0 0
M  V30 BEGIN ATOM
M  V30 1 C 1.748357 -1.945978 -5.173228 0
M  V30 2 O 1.554437 -0.869906 -4.281304 0
M  V30 3 C 2.213527 -0.820035 -3.036072 0
M  V30 4 C 3.073874 -1.833237 -2.655646 0
M  V30 5 C 3.733768 -1.812232 -1.441215 0
M  V30 6 C 3.545981 -0.761740 -0.566051 0
M  V30 7 O 4.111580 -0.561879 0.683982 0
M  V30 8 C 5.009553 -1.542141 1.166014 0
M  V30 9 C 2.665962 0.238019 -0.997246 0
M  V30 10 C 2.382069 1.426917 -0.116439 0
M  V30 11 N 1.474497 0.988306 0.919431 0
M  V30 12 C 0.969272 1.840451 1.956112 0
M  V30 13 O 1.361058 3.052970 1.936833 0
M  V30 14 C 0.041189 1.269064 2.965005 0
M  V30 15 C 0.184915 1.212411 4.336681 0
M  V30 16 N -0.911246 0.597997 4.854709 0
M  V30 17 C -1.750787 0.260658 3.854728 0
M  V30 18 C -2.980789 -0.367435 3.787960 0
M  V30 19 C -3.658507 -0.604718 2.609485 0
M  V30 20 C -4.957094 -1.272267 2.569986 0
M  V30 21 C -5.999620 -1.081743 1.657980 0
M  V30 22 N -7.035901 -1.901566 1.973134 0
M  V30 23 N -6.686602 -2.603182 3.050812 0
M  V30 24 C -5.445857 -2.240510 3.422828 0
M  V30 25 C -3.080460 -0.192138 1.409188 0
M  V30 26 C -1.848463 0.438812 1.455286 0
M  V30 27 C -1.183025 0.668803 2.643106 0
M  V30 28 C 2.006521 0.239513 -2.184654 0
M  V30 29 H 2.854136 -2.110457 -5.255214 0
M  V30 30 H 1.246198 -2.836298 -4.715314 0
M  V30 31 H 1.320030 -1.703363 -6.144464 0
M  V30 32 H 3.239491 -2.670036 -3.324056 0
M  V30 33 H 4.402907 -2.564393 -1.102966 0
M  V30 34 H 5.712985 -1.068717 1.898722 0
M  V30 35 H 4.466995 -2.376710 1.678865 0
M  V30 36 H 5.644235 -1.993320 0.396438 0
M  V30 37 H 3.351339 1.690157 0.380308 0
M  V30 38 H 2.048673 2.296132 -0.671709 0
M  V30 39 H 1.130545 -0.017816 0.959020 0
M  V30 40 H 1.033212 1.596367 4.893032 0
M  V30 41 H -1.117417 0.396033 5.856850 0
M  V30 42 H -3.455073 -0.698243 4.696171 0
M  V30 43 H -5.976265 -0.380739 0.823570 0
M  V30 44 H -7.198982 -3.339008 3.607548 0
M  V30 45 H -4.838157 -2.601283 4.256256 0
M  V30 46 H -3.579458 -0.357987 0.453408 0
M  V30 47 H -1.422322 0.748715 0.510723 0
M  V30 48 H 1.342745 1.000539 -2.503866 0
M  V30 END ATOM
M  V30 BEGIN BOND
M  V30 1 1 1 2
M  V30 2 1 2 3
M  V30 3 2 3 4
M  V30 4 1 4 5
M  V30 5 2 5 6
M  V30 6 1 6 7
M  V30 7 1 7 8
M  V30 8 1 6 9
M  V30 9 1 9 10
M  V30 10 1 10 11
M  V30 11 1 11 12
M  V30 12 2 12 13
M  V30 13 1 12 14
M  V30 14 2 14 15
M  V30 15 1 15 16
M  V30 16 1 16 17
M  V30 17 2 17 18
M  V30 18 1 18 19
M  V30 19 1 19 20
M  V30 20 1 20 21
M  V30 21 2 21 22
M  V30 22 1 22 23
M  V30 23 1 23 24
M  V30 24 2 19 25
M  V30 25 1 25 26
M  V30 26 2 26 27
M  V30 27 2 9 28
M  V30 28 1 28 3
M  V30 29 1 27 14
M  V30 30 1 27 17
M  V30 31 2 24 20
M  V30 32 1 1 29
M  V30 33 1 1 30
M  V30 34 1 1 31
M  V30 35 1 4 32
M  V30 36 1 5 33
M  V30 37 1 8 34
M  V30 38 1 8 35
M  V30 39 1 8 36
M  V30 40 1 10 37
M  V30 41 1 10 38
M  V30 42 1 11 39
M  V30 43 1 15 40
M  V30 44 1 16 41
M  V30 45 1 18 42
M  V30 46 1 21 43
M  V30 47 1 23 44
M  V30 48 1 24 45
M  V30 49 1 25 46
M  V30 50 1 26 47
M  V30 51 1 28 48
M  V30 END BOND
M  V30 END CTAB
M  END
>  <Dataset>  (380) 
ChEMBL_Kinases

>  <Ligand_Instance>  (380) 
nan

>  <PDB_ID>  (380) 
nan

>  <Standardized_SMILES>  (380) 
COc1ccc(OC)c(CNC(=O)c2c[nH]c3cc(-c4cn[nH]c4)ccc23)c1

>  <Name>  (380) 
nan

>  <Pocket>  (380) 
nan

>  <ATP_Site>  (380) 
nan

>  <Peripheral>  (380) 
nan

>  <Num_H_Atoms_ProtBoundConf>  (380) 
nan

>  <Num_Resolved_Atoms>  (380) 
nan

>  <Num_Not_Resolved_Atoms>  (380) 
nan

$$$$
CHEMBL1923177
     RDKit          3D

  0  0  0  0  0  0  0  0  0  0999 V3000
M  V30 BEGIN CTAB
M  V30 COUNTS 40 43 0 0 0
M  V30 BEGIN ATOM
M  V30 1 O 2.720720 -1.588675 0.336094 0
M  V30 2 C 1.464991 -1.557725 0.203066 0
M  V30 3 N 0.846096 -2.799580 -0.202475 0
M  V30 4 C 1.506496 -4.038641 -0.462468 0
M  V30 5 C 2.504523 -3.924618 -1.584428 0
M  V30 6 C 1.865396 -3.513794 -2.808814 0
M  V30 7 C 0.724928 -3.176858 -3.391126 0
M  V30 8 C 0.459483 -2.817016 -4.670119 0
M  V30 9 C 1.682847 -2.840340 -5.420649 0
M  V30 10 S 2.986095 -3.349394 -4.255722 0
M  V30 11 C 0.584296 -0.386173 0.420195 0
M  V30 12 C -0.094881 0.286529 -0.578036 0
M  V30 13 N -0.804404 1.291441 -0.016666 0
M  V30 14 C -0.577788 1.253106 1.308500 0
M  V30 15 C -1.068480 2.064449 2.341142 0
M  V30 16 C -0.705189 1.849580 3.661805 0
M  V30 17 C -1.229560 2.692719 4.756988 0
M  V30 18 C -1.446527 2.263517 6.044693 0
M  V30 19 N -1.921600 3.356447 6.647749 0
M  V30 20 N -1.992872 4.371429 5.811778 0
M  V30 21 C -1.556245 4.002945 4.561402 0
M  V30 22 C 0.159440 0.804214 3.913969 0
M  V30 23 C 0.668949 -0.021275 2.935314 0
M  V30 24 C 0.294033 0.211760 1.640657 0
M  V30 25 H -0.214159 -2.738750 -0.299428 0
M  V30 26 H 0.745659 -4.784449 -0.780964 0
M  V30 27 H 1.964254 -4.485559 0.451472 0
M  V30 28 H 3.247627 -3.125320 -1.314864 0
M  V30 29 H 3.049740 -4.889110 -1.697669 0
M  V30 30 H -0.052830 -3.237937 -2.607604 0
M  V30 31 H -0.521384 -2.562160 -5.020537 0
M  V30 32 H 1.552967 -2.539326 -6.560818 0
M  V30 33 H -0.077863 0.068731 -1.633248 0
M  V30 34 H -1.437076 2.003483 -0.489530 0
M  V30 35 H -1.732823 2.854773 2.095625 0
M  V30 36 H -1.276871 1.283724 6.472292 0
M  V30 37 H -2.340785 5.339500 6.064539 0
M  V30 38 H -1.535485 4.691816 3.734393 0
M  V30 39 H 0.417817 0.672373 4.947933 0
M  V30 40 H 1.343942 -0.834283 3.151388 0
M  V30 END ATOM
M  V30 BEGIN BOND
M  V30 1 2 1 2
M  V30 2 1 2 3
M  V30 3 1 3 4
M  V30 4 1 4 5
M  V30 5 1 5 6
M  V30 6 2 6 7
M  V30 7 1 7 8
M  V30 8 2 8 9
M  V30 9 1 9 10
M  V30 10 1 2 11
M  V30 11 2 11 12
M  V30 12 1 12 13
M  V30 13 1 13 14
M  V30 14 2 14 15
M  V30 15 1 15 16
M  V30 16 1 16 17
M  V30 17 1 17 18
M  V30 18 2 18 19
M  V30 19 1 19 20
M  V30 20 1 20 21
M  V30 21 2 16 22
M  V30 22 1 22 23
M  V30 23 2 23 24
M  V30 24 1 10 6
M  V30 25 1 24 11
M  V30 26 1 24 14
M  V30 27 2 21 17
M  V30 28 1 3 25
M  V30 29 1 4 26
M  V30 30 1 4 27
M  V30 31 1 5 28
M  V30 32 1 5 29
M  V30 33 1 7 30
M  V30 34 1 8 31
M  V30 35 1 9 32
M  V30 36 1 12 33
M  V30 37 1 13 34
M  V30 38 1 15 35
M  V30 39 1 18 36
M  V30 40 1 20 37
M  V30 41 1 21 38
M  V30 42 1 22 39
M  V30 43 1 23 40
M  V30 END BOND
M  V30 END CTAB
M  END
>  <Dataset>  (381) 
ChEMBL_Kinases

>  <Ligand_Instance>  (381) 
nan

>  <PDB_ID>  (381) 
nan

>  <Standardized_SMILES>  (381) 
O=C(NCCc1cccs1)c1c[nH]c2cc(-c3cn[nH]c3)ccc12

>  <Name>  (381) 
nan

>  <Pocket>  (381) 
nan

>  <ATP_Site>  (381) 
nan

>  <Peripheral>  (381) 
nan

>  <Num_H_Atoms_ProtBoundConf>  (381) 
nan

>  <Num_Resolved_Atoms>  (381) 
nan

>  <Num_Not_Resolved_Atoms>  (381) 
nan

$$$$
CHEMBL1923176
     RDKit          3D

  0  0  0  0  0  0  0  0  0  0999 V3000
M  V30 BEGIN CTAB
M  V30 COUNTS 47 50 0 0 0
M  V30 BEGIN ATOM
M  V30 1 C 0.131612 -3.380736 -0.936583 0
M  V30 2 O 0.674837 -3.207976 -2.233937 0
M  V30 3 C 1.704537 -2.344843 -2.518463 0
M  V30 4 C 2.277601 -2.136528 -3.771398 0
M  V30 5 C 3.311021 -1.241995 -3.945883 0
M  V30 6 C 3.827998 -0.507975 -2.880587 0
M  V30 7 C 3.317420 -0.656151 -1.613823 0
M  V30 8 C 3.777751 0.055158 -0.392929 0
M  V30 9 C 3.078641 1.372198 -0.190554 0
M  V30 10 N 1.661201 1.290984 -0.052262 0
M  V30 11 C 0.936904 0.591873 0.949943 0
M  V30 12 O 1.585828 -0.046299 1.841608 0
M  V30 13 C -0.518900 0.553254 1.029801 0
M  V30 14 C -1.221483 0.722586 2.207268 0
M  V30 15 N -2.549789 0.635794 1.963067 0
M  V30 16 C -2.755707 0.409949 0.636965 0
M  V30 17 C -3.889156 0.243035 -0.134315 0
M  V30 18 C -3.768739 0.022640 -1.499290 0
M  V30 19 C -4.904515 -0.165454 -2.394744 0
M  V30 20 C -4.878714 -0.956838 -3.545015 0
M  V30 21 N -6.099210 -0.914640 -4.147953 0
M  V30 22 N -6.877145 -0.126513 -3.411736 0
M  V30 23 C -6.191248 0.343100 -2.347217 0
M  V30 24 C -2.483383 -0.023261 -2.051947 0
M  V30 25 C -1.325735 0.141516 -1.297457 0
M  V30 26 C -1.495939 0.361472 0.074079 0
M  V30 27 C 2.274922 -1.576885 -1.512400 0
M  V30 28 H -0.625746 -4.180993 -0.949020 0
M  V30 29 H -0.306934 -2.461308 -0.532177 0
M  V30 30 H 0.944510 -3.679668 -0.242373 0
M  V30 31 H 1.868213 -2.711219 -4.590437 0
M  V30 32 H 3.750574 -1.090794 -4.946674 0
M  V30 33 H 4.640544 0.200427 -2.995102 0
M  V30 34 H 3.689298 -0.627021 0.477285 0
M  V30 35 H 4.863953 0.264533 -0.557344 0
M  V30 36 H 3.330452 2.027128 -1.022730 0
M  V30 37 H 3.556347 1.847784 0.715419 0
M  V30 38 H 1.015602 1.782195 -0.735003 0
M  V30 39 H -0.850588 0.903915 3.228409 0
M  V30 40 H -3.316511 0.721018 2.643025 0
M  V30 41 H -4.878385 0.279977 0.301881 0
M  V30 42 H -4.014396 -1.528323 -3.916600 0
M  V30 43 H -7.869952 0.053913 -3.686583 0
M  V30 44 H -6.553972 0.992673 -1.588468 0
M  V30 45 H -2.401420 -0.196534 -3.122737 0
M  V30 46 H -0.361746 0.100304 -1.750006 0
M  V30 47 H 1.847715 -1.720138 -0.515595 0
M  V30 END ATOM
M  V30 BEGIN BOND
M  V30 1 1 1 2
M  V30 2 1 2 3
M  V30 3 2 3 4
M  V30 4 1 4 5
M  V30 5 2 5 6
M  V30 6 1 6 7
M  V30 7 1 7 8
M  V30 8 1 8 9
M  V30 9 1 9 10
M  V30 10 1 10 11
M  V30 11 2 11 12
M  V30 12 1 11 13
M  V30 13 2 13 14
M  V30 14 1 14 15
M  V30 15 1 15 16
M  V30 16 2 16 17
M  V30 17 1 17 18
M  V30 18 1 18 19
M  V30 19 1 19 20
M  V30 20 2 20 21
M  V30 21 1 21 22
M  V30 22 1 22 23
M  V30 23 2 18 24
M  V30 24 1 24 25
M  V30 25 2 25 26
M  V30 26 2 7 27
M  V30 27 1 27 3
M  V30 28 1 26 13
M  V30 29 1 26 16
M  V30 30 2 23 19
M  V30 31 1 1 28
M  V30 32 1 1 29
M  V30 33 1 1 30
M  V30 34 1 4 31
M  V30 35 1 5 32
M  V30 36 1 6 33
M  V30 37 1 8 34
M  V30 38 1 8 35
M  V30 39 1 9 36
M  V30 40 1 9 37
M  V30 41 1 10 38
M  V30 42 1 14 39
M  V30 43 1 15 40
M  V30 44 1 17 41
M  V30 45 1 20 42
M  V30 46 1 22 43
M  V30 47 1 23 44
M  V30 48 1 24 45
M  V30 49 1 25 46
M  V30 50 1 27 47
M  V30 END BOND
M  V30 END CTAB
M  END
>  <Dataset>  (382) 
ChEMBL_Kinases

>  <Ligand_Instance>  (382) 
nan

>  <PDB_ID>  (382) 
nan

>  <Standardized_SMILES>  (382) 
COc1cccc(CCNC(=O)c2c[nH]c3cc(-c4cn[nH]c4)ccc23)c1

>  <Name>  (382) 
nan

>  <Pocket>  (382) 
nan

>  <ATP_Site>  (382) 
nan

>  <Peripheral>  (382) 
nan

>  <Num_H_Atoms_ProtBoundConf>  (382) 
nan

>  <Num_Resolved_Atoms>  (382) 
nan

>  <Num_Not_Resolved_Atoms>  (382) 
nan

$$$$
CHEMBL1923175
     RDKit          3D

  0  0  0  0  0  0  0  0  0  0999 V3000
M  V30 BEGIN CTAB
M  V30 COUNTS 46 49 0 0 0
M  V30 BEGIN ATOM
M  V30 1 O 0.668255 -2.464372 4.173610 0
M  V30 2 C 0.753839 -1.549300 3.306059 0
M  V30 3 N 1.391967 -1.940666 2.075565 0
M  V30 4 C 1.922466 -3.252426 1.764359 0
M  V30 5 C 2.529584 -3.336083 0.383951 0
M  V30 6 C 1.450103 -3.005464 -0.619024 0
M  V30 7 C 2.037700 -3.216946 -1.998658 0
M  V30 8 C 3.074384 -2.095334 -2.160679 0
M  V30 9 C 4.208595 -2.443819 -1.198492 0
M  V30 10 C 3.696194 -2.432748 0.200481 0
M  V30 11 C 0.290364 -0.141388 3.382508 0
M  V30 12 C 0.655169 0.925624 4.181576 0
M  V30 13 N -0.101358 1.979360 3.813684 0
M  V30 14 C -0.923118 1.610401 2.816312 0
M  V30 15 C -1.868104 2.383474 2.142700 0
M  V30 16 C -2.609394 1.786288 1.139362 0
M  V30 17 C -3.612342 2.563387 0.408847 0
M  V30 18 C -4.033314 2.433268 -0.920600 0
M  V30 19 N -4.967620 3.323507 -1.225110 0
M  V30 20 N -5.187119 4.043759 -0.148743 0
M  V30 21 C -4.388704 3.621902 0.872230 0
M  V30 22 C -2.401401 0.441034 0.823998 0
M  V30 23 C -1.466069 -0.334284 1.486892 0
M  V30 24 C -0.718635 0.268201 2.498514 0
M  V30 25 H 1.498024 -1.216957 1.304174 0
M  V30 26 H 2.563461 -3.680679 2.543958 0
M  V30 27 H 1.017029 -3.925860 1.739854 0
M  V30 28 H 2.815862 -4.384975 0.200554 0
M  V30 29 H 0.552264 -3.635302 -0.453828 0
M  V30 30 H 1.194119 -1.913926 -0.587488 0
M  V30 31 H 1.281970 -3.158730 -2.809982 0
M  V30 32 H 2.570301 -4.184970 -2.016781 0
M  V30 33 H 3.412656 -2.025988 -3.192075 0
M  V30 34 H 2.614541 -1.159334 -1.769406 0
M  V30 35 H 4.936070 -1.581898 -1.280344 0
M  V30 36 H 4.705544 -3.367459 -1.521102 0
M  V30 37 H 4.548772 -2.741024 0.865760 0
M  V30 38 H 3.382789 -1.390925 0.442051 0
M  V30 39 H 1.434522 0.769383 4.925934 0
M  V30 40 H 0.022953 2.893862 4.305057 0
M  V30 41 H -2.054972 3.425650 2.360960 0
M  V30 42 H -3.631031 1.681694 -1.616784 0
M  V30 43 H -5.834807 4.841309 0.044126 0
M  V30 44 H -4.294768 3.972843 1.892918 0
M  V30 45 H -2.972682 -0.052367 0.037885 0
M  V30 46 H -1.275762 -1.378192 1.273117 0
M  V30 END ATOM
M  V30 BEGIN BOND
M  V30 1 2 1 2
M  V30 2 1 2 3
M  V30 3 1 3 4
M  V30 4 1 4 5
M  V30 5 1 5 6
M  V30 6 1 6 7
M  V30 7 1 7 8
M  V30 8 1 8 9
M  V30 9 1 9 10
M  V30 10 1 2 11
M  V30 11 2 11 12
M  V30 12 1 12 13
M  V30 13 1 13 14
M  V30 14 2 14 15
M  V30 15 1 15 16
M  V30 16 1 16 17
M  V30 17 1 17 18
M  V30 18 2 18 19
M  V30 19 1 19 20
M  V30 20 1 20 21
M  V30 21 2 16 22
M  V30 22 1 22 23
M  V30 23 2 23 24
M  V30 24 1 10 5
M  V30 25 1 24 11
M  V30 26 1 24 14
M  V30 27 2 21 17
M  V30 28 1 3 25
M  V30 29 1 4 26
M  V30 30 1 4 27
M  V30 31 1 5 28
M  V30 32 1 6 29
M  V30 33 1 6 30
M  V30 34 1 7 31
M  V30 35 1 7 32
M  V30 36 1 8 33
M  V30 37 1 8 34
M  V30 38 1 9 35
M  V30 39 1 9 36
M  V30 40 1 10 37
M  V30 41 1 10 38
M  V30 42 1 12 39
M  V30 43 1 13 40
M  V30 44 1 15 41
M  V30 45 1 18 42
M  V30 46 1 20 43
M  V30 47 1 21 44
M  V30 48 1 22 45
M  V30 49 1 23 46
M  V30 END BOND
M  V30 END CTAB
M  END
>  <Dataset>  (383) 
ChEMBL_Kinases

>  <Ligand_Instance>  (383) 
nan

>  <PDB_ID>  (383) 
nan

>  <Standardized_SMILES>  (383) 
O=C(NCC1CCCCC1)c1c[nH]c2cc(-c3cn[nH]c3)ccc12

>  <Name>  (383) 
nan

>  <Pocket>  (383) 
nan

>  <ATP_Site>  (383) 
nan

>  <Peripheral>  (383) 
nan

>  <Num_H_Atoms_ProtBoundConf>  (383) 
nan

>  <Num_Resolved_Atoms>  (383) 
nan

>  <Num_Not_Resolved_Atoms>  (383) 
nan

$$$$
CHEMBL1923174
     RDKit          3D

  0  0  0  0  0  0  0  0  0  0999 V3000
M  V30 BEGIN CTAB
M  V30 COUNTS 47 50 0 0 0
M  V30 BEGIN ATOM
M  V30 1 C 2.331415 -3.665394 0.081613 0
M  V30 2 O 2.820236 -2.979610 -1.050331 0
M  V30 3 C 3.067940 -1.611552 -1.081247 0
M  V30 4 C 3.542144 -1.130277 -2.277027 0
M  V30 5 C 3.830861 0.214507 -2.445748 0
M  V30 6 C 3.620804 1.060650 -1.352897 0
M  V30 7 C 3.140496 0.570161 -0.143356 0
M  V30 8 C 2.908348 1.447961 1.034375 0 CFG=2
M  V30 9 C 4.056750 1.179626 2.016557 0
M  V30 10 N 1.629684 1.157884 1.668699 0
M  V30 11 C 0.684637 2.219609 1.917277 0
M  V30 12 O 0.977120 3.417773 1.576716 0
M  V30 13 C -0.552477 1.725808 2.567893 0
M  V30 14 C -1.150757 2.021046 3.784165 0
M  V30 15 N -2.273456 1.284652 3.889098 0
M  V30 16 C -2.423337 0.516127 2.772047 0
M  V30 17 C -3.435707 -0.378836 2.477343 0
M  V30 18 C -3.377060 -1.058018 1.261139 0
M  V30 19 C -4.403729 -2.026511 0.860341 0
M  V30 20 C -5.759704 -2.106885 1.114878 0
M  V30 21 N -6.208259 -3.202248 0.500125 0
M  V30 22 N -5.249353 -3.848938 -0.139914 0
M  V30 23 C -4.129988 -3.142783 0.068349 0
M  V30 24 C -2.314400 -0.799778 0.421270 0
M  V30 25 C -1.308089 0.094735 0.722477 0
M  V30 26 C -1.348339 0.778053 1.923700 0
M  V30 27 C 2.859154 -0.771004 0.004888 0
M  V30 28 H 2.530372 -4.758041 -0.079116 0
M  V30 29 H 2.897102 -3.370735 0.994133 0
M  V30 30 H 1.252403 -3.456821 0.218625 0
M  V30 31 H 3.725152 -1.733473 -3.157512 0
M  V30 32 H 4.207827 0.609105 -3.389833 0
M  V30 33 H 3.838593 2.108505 -1.462202 0
M  V30 34 H 2.985371 2.522479 0.810219 0
M  V30 35 H 4.193895 2.026248 2.720523 0
M  V30 36 H 4.938648 0.953537 1.409599 0
M  V30 37 H 3.766322 0.247558 2.561281 0
M  V30 38 H 1.464530 0.157558 1.917301 0
M  V30 39 H -0.666012 2.744158 4.422774 0
M  V30 40 H -2.861083 1.375252 4.747698 0
M  V30 41 H -4.255939 -0.559571 3.157100 0
M  V30 42 H -6.273959 -1.371895 1.712148 0
M  V30 43 H -5.350277 -4.744207 -0.702522 0
M  V30 44 H -3.134272 -3.393371 -0.320959 0
M  V30 45 H -2.219217 -1.297853 -0.533096 0
M  V30 46 H -0.476157 0.290316 0.053345 0
M  V30 47 H 2.491853 -1.259779 0.869660 0
M  V30 END ATOM
M  V30 BEGIN BOND
M  V30 1 1 1 2
M  V30 2 1 2 3
M  V30 3 2 3 4
M  V30 4 1 4 5
M  V30 5 2 5 6
M  V30 6 1 6 7
M  V30 7 1 7 8
M  V30 8 1 8 9
M  V30 9 1 8 10
M  V30 10 1 10 11
M  V30 11 2 11 12
M  V30 12 1 11 13
M  V30 13 2 13 14
M  V30 14 1 14 15
M  V30 15 1 15 16
M  V30 16 2 16 17
M  V30 17 1 17 18
M  V30 18 1 18 19
M  V30 19 1 19 20
M  V30 20 2 20 21
M  V30 21 1 21 22
M  V30 22 1 22 23
M  V30 23 2 18 24
M  V30 24 1 24 25
M  V30 25 2 25 26
M  V30 26 2 7 27
M  V30 27 1 27 3
M  V30 28 1 26 13
M  V30 29 1 26 16
M  V30 30 2 23 19
M  V30 31 1 1 28
M  V30 32 1 1 29
M  V30 33 1 1 30
M  V30 34 1 4 31
M  V30 35 1 5 32
M  V30 36 1 6 33
M  V30 37 1 8 34 CFG=3
M  V30 38 1 9 35
M  V30 39 1 9 36
M  V30 40 1 9 37
M  V30 41 1 10 38
M  V30 42 1 14 39
M  V30 43 1 15 40
M  V30 44 1 17 41
M  V30 45 1 20 42
M  V30 46 1 22 43
M  V30 47 1 23 44
M  V30 48 1 24 45
M  V30 49 1 25 46
M  V30 50 1 27 47
M  V30 END BOND
M  V30 END CTAB
M  END
>  <Dataset>  (384) 
ChEMBL_Kinases

>  <Ligand_Instance>  (384) 
nan

>  <PDB_ID>  (384) 
nan

>  <Standardized_SMILES>  (384) 
COc1cccc([C@H](C)NC(=O)c2c[nH]c3cc(-c4cn[nH]c4)ccc23)c1

>  <Name>  (384) 
nan

>  <Pocket>  (384) 
nan

>  <ATP_Site>  (384) 
nan

>  <Peripheral>  (384) 
nan

>  <Num_H_Atoms_ProtBoundConf>  (384) 
nan

>  <Num_Resolved_Atoms>  (384) 
nan

>  <Num_Not_Resolved_Atoms>  (384) 
nan

$$$$
CHEMBL1923172
     RDKit          3D

  0  0  0  0  0  0  0  0  0  0999 V3000
M  V30 BEGIN CTAB
M  V30 COUNTS 40 43 0 0 0
M  V30 BEGIN ATOM
M  V30 1 O 1.925267 2.194629 1.626012 0
M  V30 2 C 1.534999 1.021064 1.868929 0
M  V30 3 N 2.503439 -0.002319 1.961372 0
M  V30 4 C 3.929305 0.170110 1.796808 0
M  V30 5 C 4.372930 0.340680 0.394711 0
M  V30 6 C 4.515102 1.511904 -0.312779 0
M  V30 7 C 4.934137 1.571476 -1.619822 0
M  V30 8 C 5.231334 0.368663 -2.263424 0
M  V30 9 F 5.635338 0.460429 -3.545519 0
M  V30 10 C 5.092266 -0.816428 -1.570921 0
M  V30 11 F 5.403184 -1.925983 -2.257336 0
M  V30 12 C 4.672312 -0.866981 -0.256997 0
M  V30 13 C 0.089128 0.900059 2.022136 0
M  V30 14 C -0.711142 1.798612 2.734762 0
M  V30 15 N -1.980185 1.432674 2.687092 0
M  V30 16 C -2.060726 0.303944 1.954158 0
M  V30 17 C -3.154189 -0.451697 1.630727 0
M  V30 18 C -2.972019 -1.608657 0.852744 0
M  V30 19 C -4.146823 -2.400674 0.511522 0
M  V30 20 C -4.448628 -3.195702 -0.594213 0
M  V30 21 N -5.673494 -3.714068 -0.428780 0
M  V30 22 N -6.180946 -3.297946 0.717547 0
M  V30 23 C -5.275985 -2.488307 1.328845 0
M  V30 24 C -1.690716 -1.956376 0.429463 0
M  V30 25 C -0.595249 -1.167701 0.774851 0
M  V30 26 C -0.794517 -0.040540 1.536504 0
M  V30 27 H 2.103617 -0.968832 2.157562 0
M  V30 28 H 4.493762 -0.664512 2.263465 0
M  V30 29 H 4.220522 1.134455 2.311473 0
M  V30 30 H 4.271624 2.405716 0.238819 0
M  V30 31 H 4.992638 2.565572 -2.058446 0
M  V30 32 H 4.610668 -1.846145 0.164748 0
M  V30 33 H -0.290988 2.677582 3.243140 0
M  V30 34 H -2.751780 1.994210 3.170772 0
M  V30 35 H -4.131271 -0.149553 1.984582 0
M  V30 36 H -3.701266 -3.283400 -1.391617 0
M  V30 37 H -7.128320 -3.563216 1.074592 0
M  V30 38 H -5.432145 -2.009876 2.284430 0
M  V30 39 H -1.599197 -2.845169 -0.162927 0
M  V30 40 H 0.391492 -1.436141 0.446843 0
M  V30 END ATOM
M  V30 BEGIN BOND
M  V30 1 2 1 2
M  V30 2 1 2 3
M  V30 3 1 3 4
M  V30 4 1 4 5
M  V30 5 2 5 6
M  V30 6 1 6 7
M  V30 7 2 7 8
M  V30 8 1 8 9
M  V30 9 1 8 10
M  V30 10 1 10 11
M  V30 11 2 10 12
M  V30 12 1 2 13
M  V30 13 2 13 14
M  V30 14 1 14 15
M  V30 15 1 15 16
M  V30 16 2 16 17
M  V30 17 1 17 18
M  V30 18 1 18 19
M  V30 19 1 19 20
M  V30 20 2 20 21
M  V30 21 1 21 22
M  V30 22 1 22 23
M  V30 23 2 18 24
M  V30 24 1 24 25
M  V30 25 2 25 26
M  V30 26 1 12 5
M  V30 27 1 26 13
M  V30 28 1 26 16
M  V30 29 2 23 19
M  V30 30 1 3 27
M  V30 31 1 4 28
M  V30 32 1 4 29
M  V30 33 1 6 30
M  V30 34 1 7 31
M  V30 35 1 12 32
M  V30 36 1 14 33
M  V30 37 1 15 34
M  V30 38 1 17 35
M  V30 39 1 20 36
M  V30 40 1 22 37
M  V30 41 1 23 38
M  V30 42 1 24 39
M  V30 43 1 25 40
M  V30 END BOND
M  V30 END CTAB
M  END
>  <Dataset>  (385) 
ChEMBL_Kinases

>  <Ligand_Instance>  (385) 
nan

>  <PDB_ID>  (385) 
nan

>  <Standardized_SMILES>  (385) 
O=C(NCc1ccc(F)c(F)c1)c1c[nH]c2cc(-c3cn[nH]c3)ccc12

>  <Name>  (385) 
nan

>  <Pocket>  (385) 
nan

>  <ATP_Site>  (385) 
nan

>  <Peripheral>  (385) 
nan

>  <Num_H_Atoms_ProtBoundConf>  (385) 
nan

>  <Num_Resolved_Atoms>  (385) 
nan

>  <Num_Not_Resolved_Atoms>  (385) 
nan

$$$$
CHEMBL1923171
     RDKit          3D

  0  0  0  0  0  0  0  0  0  0999 V3000
M  V30 BEGIN CTAB
M  V30 COUNTS 44 47 0 0 0
M  V30 BEGIN ATOM
M  V30 1 O 1.908863 0.309956 4.062984 0
M  V30 2 C 1.432817 -0.582109 3.273467 0
M  V30 3 N 2.443194 -1.003345 2.387296 0
M  V30 4 C 3.830712 -0.784933 2.052161 0
M  V30 5 C 3.907578 0.527671 1.329425 0
M  V30 6 C 4.324532 1.681970 2.004847 0
M  V30 7 C 4.403749 2.915371 1.433603 0
M  V30 8 C 4.048853 3.025702 0.108792 0
M  V30 9 C 3.632035 1.885034 -0.571327 0
M  V30 10 O 3.305159 2.173122 -1.904801 0
M  V30 11 C 1.942677 2.546066 -2.144217 0
M  V30 12 F 1.140675 1.496527 -1.727409 0
M  V30 13 F 1.752328 2.879008 -3.447206 0
M  V30 14 F 1.655598 3.693214 -1.385268 0
M  V30 15 C 3.553794 0.643375 0.005742 0
M  V30 16 C 0.072752 -1.159182 3.199632 0
M  V30 17 C -0.687667 -1.613579 4.287584 0
M  V30 18 N -1.862042 -2.059682 3.736142 0
M  V30 19 C -1.804173 -1.880462 2.404430 0
M  V30 20 C -2.824732 -2.225611 1.519783 0
M  V30 21 C -2.645524 -1.997738 0.163096 0
M  V30 22 C -3.574681 -2.277266 -0.918241 0
M  V30 23 C -3.803953 -1.670332 -2.136165 0
M  V30 24 N -4.797500 -2.358887 -2.721819 0
M  V30 25 N -5.206303 -3.353650 -1.959081 0
M  V30 26 C -4.463893 -3.340426 -0.812536 0
M  V30 27 C -1.425003 -1.423281 -0.223056 0
M  V30 28 C -0.427023 -1.088310 0.674859 0
M  V30 29 C -0.606627 -1.316279 2.010468 0
M  V30 30 H 2.085178 -1.759810 1.714885 0
M  V30 31 H 4.307256 -1.593310 1.505174 0
M  V30 32 H 4.422735 -0.647460 3.016377 0
M  V30 33 H 4.603164 1.587824 3.044366 0
M  V30 34 H 4.741407 3.763128 2.026431 0
M  V30 35 H 4.119413 4.011297 -0.323830 0
M  V30 36 H 3.222703 -0.193632 -0.582741 0
M  V30 37 H -0.346281 -1.586295 5.330388 0
M  V30 38 H -2.601255 -2.451546 4.358141 0
M  V30 39 H -3.768216 -2.660673 1.754952 0
M  V30 40 H -3.229982 -0.811263 -2.446973 0
M  V30 41 H -5.986404 -3.992561 -2.282171 0
M  V30 42 H -4.691715 -4.119712 -0.063271 0
M  V30 43 H -1.210993 -1.217753 -1.241930 0
M  V30 44 H 0.504683 -0.640996 0.364602 0
M  V30 END ATOM
M  V30 BEGIN BOND
M  V30 1 2 1 2
M  V30 2 1 2 3
M  V30 3 1 3 4
M  V30 4 1 4 5
M  V30 5 2 5 6
M  V30 6 1 6 7
M  V30 7 2 7 8
M  V30 8 1 8 9
M  V30 9 1 9 10
M  V30 10 1 10 11
M  V30 11 1 11 12
M  V30 12 1 11 13
M  V30 13 1 11 14
M  V30 14 2 9 15
M  V30 15 1 2 16
M  V30 16 2 16 17
M  V30 17 1 17 18
M  V30 18 1 18 19
M  V30 19 2 19 20
M  V30 20 1 20 21
M  V30 21 1 21 22
M  V30 22 1 22 23
M  V30 23 2 23 24
M  V30 24 1 24 25
M  V30 25 1 25 26
M  V30 26 2 21 27
M  V30 27 1 27 28
M  V30 28 2 28 29
M  V30 29 1 15 5
M  V30 30 1 29 16
M  V30 31 1 29 19
M  V30 32 2 26 22
M  V30 33 1 3 30
M  V30 34 1 4 31
M  V30 35 1 4 32
M  V30 36 1 6 33
M  V30 37 1 7 34
M  V30 38 1 8 35
M  V30 39 1 15 36
M  V30 40 1 17 37
M  V30 41 1 18 38
M  V30 42 1 20 39
M  V30 43 1 23 40
M  V30 44 1 25 41
M  V30 45 1 26 42
M  V30 46 1 27 43
M  V30 47 1 28 44
M  V30 END BOND
M  V30 END CTAB
M  END
>  <Dataset>  (386) 
ChEMBL_Kinases

>  <Ligand_Instance>  (386) 
nan

>  <PDB_ID>  (386) 
nan

>  <Standardized_SMILES>  (386) 
O=C(NCc1cccc(OC(F)(F)F)c1)c1c[nH]c2cc(-c3cn[nH]c3)ccc12

>  <Name>  (386) 
nan

>  <Pocket>  (386) 
nan

>  <ATP_Site>  (386) 
nan

>  <Peripheral>  (386) 
nan

>  <Num_H_Atoms_ProtBoundConf>  (386) 
nan

>  <Num_Resolved_Atoms>  (386) 
nan

>  <Num_Not_Resolved_Atoms>  (386) 
nan

$$$$
CHEMBL1923170
     RDKit          3D

  0  0  0  0  0  0  0  0  0  0999 V3000
M  V30 BEGIN CTAB
M  V30 COUNTS 44 47 0 0 0
M  V30 BEGIN ATOM
M  V30 1 C -0.864699 -6.076907 1.553451 0
M  V30 2 O -1.400349 -4.949840 0.949210 0
M  V30 3 C -0.851721 -4.144050 -0.016644 0
M  V30 4 C 0.423923 -4.335162 -0.574459 0
M  V30 5 C 0.905299 -3.465735 -1.550477 0
M  V30 6 C 0.173686 -2.413080 -1.999066 0
M  V30 7 C 0.437600 -1.318781 -2.990568 0
M  V30 8 N 0.855733 -0.111891 -2.283931 0
M  V30 9 C 2.141497 0.202153 -1.764334 0
M  V30 10 O 3.095941 -0.621658 -1.925209 0
M  V30 11 C 2.190148 1.509502 -1.065537 0
M  V30 12 C 2.647996 2.805690 -1.208758 0
M  V30 13 N 2.314386 3.496561 -0.105473 0
M  V30 14 C 1.650418 2.726117 0.776760 0
M  V30 15 C 1.114944 2.965655 2.030481 0
M  V30 16 C 0.470350 1.957369 2.745928 0
M  V30 17 C -0.093343 2.174762 4.072966 0
M  V30 18 C -0.169287 1.196500 5.075493 0
M  V30 19 N -0.742023 1.737900 6.175907 0
M  V30 20 N -1.035471 3.032063 5.908905 0
M  V30 21 C -0.647078 3.296436 4.648722 0
M  V30 22 C 0.348807 0.687794 2.218187 0
M  V30 23 C 0.899680 0.512747 0.969291 0
M  V30 24 C 1.563199 1.466290 0.184212 0
M  V30 25 C -1.103011 -2.240938 -1.428798 0
M  V30 26 C -1.597939 -3.085227 -0.463211 0
M  V30 27 H 0.177754 -6.320015 1.272974 0
M  V30 28 H -1.478063 -6.987780 1.290407 0
M  V30 29 H -0.978885 -5.985556 2.652614 0
M  V30 30 H 1.050001 -5.147450 -0.260607 0
M  V30 31 H 1.862489 -3.523501 -2.030802 0
M  V30 32 H -0.451979 -1.149209 -3.591396 0
M  V30 33 H 1.252183 -1.669919 -3.672706 0
M  V30 34 H 0.055440 0.576657 -2.172307 0
M  V30 35 H 3.156210 2.978345 -2.142317 0
M  V30 36 H 2.578325 4.498900 -0.023207 0
M  V30 37 H 1.206538 3.951770 2.450829 0
M  V30 38 H 0.202430 0.166459 4.909209 0
M  V30 39 H -1.482141 3.686146 6.579694 0
M  V30 40 H -0.732222 4.234596 4.118837 0
M  V30 41 H -0.131116 -0.111257 2.719037 0
M  V30 42 H 0.777892 -0.511787 0.569926 0
M  V30 43 H -1.792485 -1.435649 -1.697492 0
M  V30 44 H -2.603173 -2.925840 -0.028153 0
M  V30 END ATOM
M  V30 BEGIN BOND
M  V30 1 1 1 2
M  V30 2 1 2 3
M  V30 3 2 3 4
M  V30 4 1 4 5
M  V30 5 2 5 6
M  V30 6 1 6 7
M  V30 7 1 7 8
M  V30 8 1 8 9
M  V30 9 2 9 10
M  V30 10 1 9 11
M  V30 11 2 11 12
M  V30 12 1 12 13
M  V30 13 1 13 14
M  V30 14 2 14 15
M  V30 15 1 15 16
M  V30 16 1 16 17
M  V30 17 1 17 18
M  V30 18 2 18 19
M  V30 19 1 19 20
M  V30 20 1 20 21
M  V30 21 2 16 22
M  V30 22 1 22 23
M  V30 23 2 23 24
M  V30 24 1 6 25
M  V30 25 2 25 26
M  V30 26 1 26 3
M  V30 27 1 24 11
M  V30 28 1 24 14
M  V30 29 2 21 17
M  V30 30 1 1 27
M  V30 31 1 1 28
M  V30 32 1 1 29
M  V30 33 1 4 30
M  V30 34 1 5 31
M  V30 35 1 7 32
M  V30 36 1 7 33
M  V30 37 1 8 34
M  V30 38 1 12 35
M  V30 39 1 13 36
M  V30 40 1 15 37
M  V30 41 1 18 38
M  V30 42 1 20 39
M  V30 43 1 21 40
M  V30 44 1 22 41
M  V30 45 1 23 42
M  V30 46 1 25 43
M  V30 47 1 26 44
M  V30 END BOND
M  V30 END CTAB
M  END
>  <Dataset>  (387) 
ChEMBL_Kinases

>  <Ligand_Instance>  (387) 
nan

>  <PDB_ID>  (387) 
nan

>  <Standardized_SMILES>  (387) 
COc1ccc(CNC(=O)c2c[nH]c3cc(-c4cn[nH]c4)ccc23)cc1

>  <Name>  (387) 
nan

>  <Pocket>  (387) 
nan

>  <ATP_Site>  (387) 
nan

>  <Peripheral>  (387) 
nan

>  <Num_H_Atoms_ProtBoundConf>  (387) 
nan

>  <Num_Resolved_Atoms>  (387) 
nan

>  <Num_Not_Resolved_Atoms>  (387) 
nan

$$$$
CHEMBL1923169
     RDKit          3D

  0  0  0  0  0  0  0  0  0  0999 V3000
M  V30 BEGIN CTAB
M  V30 COUNTS 44 47 0 0 0
M  V30 BEGIN ATOM
M  V30 1 C 3.340643 -1.611976 2.455786 0
M  V30 2 O 3.301004 -0.772670 1.351978 0
M  V30 3 C 2.957465 -1.200037 0.085507 0
M  V30 4 C 2.614222 -2.481094 -0.275048 0
M  V30 5 C 2.268510 -2.892102 -1.546201 0
M  V30 6 C 2.257175 -1.956912 -2.557844 0
M  V30 7 C 2.595478 -0.631285 -2.261063 0
M  V30 8 C 2.927946 -0.316589 -0.966454 0
M  V30 9 C 3.256492 1.147476 -0.788308 0
M  V30 10 N 2.211022 1.810099 0.032646 0
M  V30 11 C 1.457935 2.932263 0.589061 0
M  V30 12 O 2.012081 3.897272 0.040894 0
M  V30 13 C 0.394699 2.486878 1.530126 0
M  V30 14 C 0.191999 2.977513 2.791944 0
M  V30 15 N -0.810082 2.215638 3.300573 0
M  V30 16 C -1.203596 1.300549 2.399995 0
M  V30 17 C -2.120766 0.275175 2.384167 0
M  V30 18 C -2.276675 -0.547874 1.294007 0
M  V30 19 C -3.176441 -1.690717 1.181057 0
M  V30 20 C -3.882266 -2.286392 0.160535 0
M  V30 21 N -4.529931 -3.339994 0.676521 0
M  V30 22 N -4.276825 -3.455993 1.989187 0
M  V30 23 C -3.431950 -2.434035 2.323669 0
M  V30 24 C -1.519297 -0.405121 0.115950 0
M  V30 25 C -0.586184 0.639048 0.120994 0
M  V30 26 C -0.469298 1.434582 1.252609 0
M  V30 27 H 3.474068 -2.690101 2.254262 0
M  V30 28 H 4.135100 -1.329626 3.193321 0
M  V30 29 H 2.357594 -1.543371 3.008678 0
M  V30 30 H 2.614212 -3.246752 0.491310 0
M  V30 31 H 2.006096 -3.943438 -1.747796 0
M  V30 32 H 1.993990 -2.260110 -3.562686 0
M  V30 33 H 2.574057 0.059217 -3.086094 0
M  V30 34 H 4.219704 1.195829 -0.236033 0
M  V30 35 H 3.304110 1.682056 -1.740973 0
M  V30 36 H 1.882242 0.895150 0.482152 0
M  V30 37 H 0.715296 3.813197 3.277491 0
M  V30 38 H -1.239213 2.321123 4.276806 0
M  V30 39 H -2.750305 0.092673 3.235224 0
M  V30 40 H -3.792633 -1.822643 -0.808618 0
M  V30 41 H -4.809122 -4.293212 2.320724 0
M  V30 42 H -3.173717 -2.466076 3.366582 0
M  V30 43 H -1.611159 -1.022026 -0.761399 0
M  V30 44 H -0.005797 0.793587 -0.767651 0
M  V30 END ATOM
M  V30 BEGIN BOND
M  V30 1 1 1 2
M  V30 2 1 2 3
M  V30 3 2 3 4
M  V30 4 1 4 5
M  V30 5 2 5 6
M  V30 6 1 6 7
M  V30 7 2 7 8
M  V30 8 1 8 9
M  V30 9 1 9 10
M  V30 10 1 10 11
M  V30 11 2 11 12
M  V30 12 1 11 13
M  V30 13 2 13 14
M  V30 14 1 14 15
M  V30 15 1 15 16
M  V30 16 2 16 17
M  V30 17 1 17 18
M  V30 18 1 18 19
M  V30 19 1 19 20
M  V30 20 2 20 21
M  V30 21 1 21 22
M  V30 22 1 22 23
M  V30 23 2 18 24
M  V30 24 1 24 25
M  V30 25 2 25 26
M  V30 26 1 8 3
M  V30 27 1 26 13
M  V30 28 1 26 16
M  V30 29 2 23 19
M  V30 30 1 1 27
M  V30 31 1 1 28
M  V30 32 1 1 29
M  V30 33 1 4 30
M  V30 34 1 5 31
M  V30 35 1 6 32
M  V30 36 1 7 33
M  V30 37 1 9 34
M  V30 38 1 9 35
M  V30 39 1 10 36
M  V30 40 1 14 37
M  V30 41 1 15 38
M  V30 42 1 17 39
M  V30 43 1 20 40
M  V30 44 1 22 41
M  V30 45 1 23 42
M  V30 46 1 24 43
M  V30 47 1 25 44
M  V30 END BOND
M  V30 END CTAB
M  END
>  <Dataset>  (388) 
ChEMBL_Kinases

>  <Ligand_Instance>  (388) 
nan

>  <PDB_ID>  (388) 
nan

>  <Standardized_SMILES>  (388) 
COc1ccccc1CNC(=O)c1c[nH]c2cc(-c3cn[nH]c3)ccc12

>  <Name>  (388) 
nan

>  <Pocket>  (388) 
nan

>  <ATP_Site>  (388) 
nan

>  <Peripheral>  (388) 
nan

>  <Num_H_Atoms_ProtBoundConf>  (388) 
nan

>  <Num_Resolved_Atoms>  (388) 
nan

>  <Num_Not_Resolved_Atoms>  (388) 
nan

$$$$
CHEMBL1923168
     RDKit          3D

  0  0  0  0  0  0  0  0  0  0999 V3000
M  V30 BEGIN CTAB
M  V30 COUNTS 45 48 0 0 0
M  V30 BEGIN ATOM
M  V30 1 C 3.040695 -5.457310 -0.141736 0
M  V30 2 O 3.326456 -4.093376 -0.139310 0
M  V30 3 C 2.969554 -3.162457 -1.077118 0
M  V30 4 C 2.245715 -3.383327 -2.228785 0
M  V30 5 C 1.979495 -2.317393 -3.058217 0
M  V30 6 C 2.392670 -1.030616 -2.811387 0
M  V30 7 C 3.119344 -0.788406 -1.662360 0
M  V30 8 C 3.619564 0.576412 -1.288374 0
M  V30 9 N 2.630321 1.225124 -0.456461 0
M  V30 10 C 1.410204 1.822478 -0.862993 0
M  V30 11 O 1.071583 1.835969 -2.073386 0
M  V30 12 C 0.495541 2.444399 0.092169 0
M  V30 13 C 0.152023 3.725417 0.488581 0
M  V30 14 N -0.792597 3.659581 1.446763 0
M  V30 15 C -1.078273 2.366048 1.690014 0
M  V30 16 N -1.961960 1.852452 2.568729 0
M  V30 17 C -2.148991 0.515072 2.708659 0
M  V30 18 C -3.114387 -0.005808 3.668475 0
M  V30 19 C -3.357282 -1.348405 3.865520 0
M  V30 20 C -4.290268 -1.772869 4.793909 0
M  V30 21 N -5.004506 -0.889847 5.549157 0
M  V30 22 C -4.747501 0.420401 5.337138 0
M  V30 23 C -3.835544 0.891919 4.431234 0
M  V30 24 C -1.383195 -0.297929 1.900979 0
M  V30 25 C -0.479010 0.228583 1.001482 0
M  V30 26 C -0.291740 1.586917 0.861664 0
M  V30 27 C 3.394436 -1.858654 -0.816649 0
M  V30 28 H 3.981329 -6.050982 0.047862 0
M  V30 29 H 2.655835 -5.850804 -1.116669 0
M  V30 30 H 2.284353 -5.748629 0.621067 0
M  V30 31 H 1.930276 -4.403207 -2.405891 0
M  V30 32 H 1.408298 -2.542894 -3.949849 0
M  V30 33 H 2.164067 -0.226547 -3.490423 0
M  V30 34 H 4.603840 0.528754 -0.831038 0
M  V30 35 H 3.747852 1.098071 -2.264580 0
M  V30 36 H 2.853194 1.252866 0.577951 0
M  V30 37 H 0.675664 4.532081 -0.015251 0
M  V30 38 H -1.180665 4.540030 1.873663 0
M  V30 39 H -2.813088 -2.078591 3.287112 0
M  V30 40 H -4.432444 -2.853256 4.897285 0
M  V30 41 H -5.324538 1.124749 5.945914 0
M  V30 42 H -3.706222 1.983359 4.342302 0
M  V30 43 H -1.468754 -1.374106 1.949304 0
M  V30 44 H 0.112905 -0.425245 0.375988 0
M  V30 45 H 3.974584 -1.623027 0.087703 0
M  V30 END ATOM
M  V30 BEGIN BOND
M  V30 1 1 1 2
M  V30 2 1 2 3
M  V30 3 2 3 4
M  V30 4 1 4 5
M  V30 5 2 5 6
M  V30 6 1 6 7
M  V30 7 1 7 8
M  V30 8 1 8 9
M  V30 9 1 9 10
M  V30 10 2 10 11
M  V30 11 1 10 12
M  V30 12 2 12 13
M  V30 13 1 13 14
M  V30 14 1 14 15
M  V30 15 2 15 16
M  V30 16 1 16 17
M  V30 17 1 17 18
M  V30 18 2 18 19
M  V30 19 1 19 20
M  V30 20 2 20 21
M  V30 21 1 21 22
M  V30 22 2 22 23
M  V30 23 2 17 24
M  V30 24 1 24 25
M  V30 25 2 25 26
M  V30 26 2 7 27
M  V30 27 1 27 3
M  V30 28 1 26 12
M  V30 29 1 26 15
M  V30 30 1 23 18
M  V30 31 1 1 28
M  V30 32 1 1 29
M  V30 33 1 1 30
M  V30 34 1 4 31
M  V30 35 1 5 32
M  V30 36 1 6 33
M  V30 37 1 8 34
M  V30 38 1 8 35
M  V30 39 1 9 36
M  V30 40 1 13 37
M  V30 41 1 14 38
M  V30 42 1 19 39
M  V30 43 1 20 40
M  V30 44 1 22 41
M  V30 45 1 23 42
M  V30 46 1 24 43
M  V30 47 1 25 44
M  V30 48 1 27 45
M  V30 END BOND
M  V30 END CTAB
M  END
>  <Dataset>  (389) 
ChEMBL_Kinases

>  <Ligand_Instance>  (389) 
nan

>  <PDB_ID>  (389) 
nan

>  <Standardized_SMILES>  (389) 
COc1cccc(CNC(=O)c2c[nH]c3nc(-c4ccncc4)ccc23)c1

>  <Name>  (389) 
nan

>  <Pocket>  (389) 
nan

>  <ATP_Site>  (389) 
nan

>  <Peripheral>  (389) 
nan

>  <Num_H_Atoms_ProtBoundConf>  (389) 
nan

>  <Num_Resolved_Atoms>  (389) 
nan

>  <Num_Not_Resolved_Atoms>  (389) 
nan

$$$$
CHEMBL1923167
     RDKit          3D

  0  0  0  0  0  0  0  0  0  0999 V3000
M  V30 BEGIN CTAB
M  V30 COUNTS 46 49 0 0 0
M  V30 BEGIN ATOM
M  V30 1 C 3.429918 -4.277348 0.502234 0
M  V30 2 O 2.946784 -4.139385 -0.833608 0
M  V30 3 C 2.903321 -2.867408 -1.420957 0
M  V30 4 C 2.404531 -2.943000 -2.726287 0
M  V30 5 C 2.319722 -1.721505 -3.403269 0
M  V30 6 C 2.707631 -0.521115 -2.816185 0
M  V30 7 C 3.192892 -0.519934 -1.524882 0
M  V30 8 C 3.624336 0.724321 -0.835252 0
M  V30 9 N 2.501389 1.276704 -0.104328 0
M  V30 10 C 1.404832 2.000619 -0.645813 0
M  V30 11 O 1.315141 2.232847 -1.855619 0
M  V30 12 C 0.386695 2.452469 0.330520 0
M  V30 13 C -0.009601 3.677113 0.860369 0
M  V30 14 N -1.010844 3.431609 1.731077 0
M  V30 15 C -1.270944 2.105974 1.779951 0
M  V30 16 C -2.218827 1.435042 2.539573 0
M  V30 17 C -2.325479 0.064019 2.442217 0
M  V30 18 C -3.281411 -0.761526 3.188399 0
M  V30 19 C -2.913851 -2.066182 3.535389 0
M  V30 20 C -3.707896 -2.929795 4.222306 0
M  V30 21 N -4.927458 -2.528049 4.603907 0
M  V30 22 C -5.292339 -1.275618 4.276459 0
M  V30 23 C -4.535603 -0.355289 3.583426 0
M  V30 24 C -1.466341 -0.607791 1.573777 0
M  V30 25 C -0.526081 0.070984 0.821705 0
M  V30 26 C -0.403491 1.449090 0.904559 0
M  V30 27 C 3.290218 -1.702478 -0.822306 0
M  V30 28 H 4.517808 -4.061998 0.533521 0
M  V30 29 H 3.257866 -5.323510 0.847893 0
M  V30 30 H 2.879410 -3.543583 1.151717 0
M  V30 31 H 2.089724 -3.834697 -3.239345 0
M  V30 32 H 1.941209 -1.666820 -4.433403 0
M  V30 33 H 2.623844 0.389536 -3.391567 0
M  V30 34 H 3.963524 1.493124 -1.595968 0
M  V30 35 H 4.479558 0.524591 -0.186915 0
M  V30 36 H 2.540518 1.102050 0.945288 0
M  V30 37 H 0.508609 4.558373 0.513415 0
M  V30 38 H -1.457180 4.219766 2.247617 0
M  V30 39 H -2.889673 1.941763 3.217339 0
M  V30 40 H -1.928749 -2.450866 3.253455 0
M  V30 41 H -3.384196 -3.926685 4.467048 0
M  V30 42 H -6.281351 -0.908519 4.567645 0
M  V30 43 H -4.837214 0.629358 3.332444 0
M  V30 44 H -1.469605 -1.674298 1.423140 0
M  V30 45 H 0.139549 -0.447059 0.148228 0
M  V30 46 H 3.657399 -1.771363 0.178990 0
M  V30 END ATOM
M  V30 BEGIN BOND
M  V30 1 1 1 2
M  V30 2 1 2 3
M  V30 3 2 3 4
M  V30 4 1 4 5
M  V30 5 2 5 6
M  V30 6 1 6 7
M  V30 7 1 7 8
M  V30 8 1 8 9
M  V30 9 1 9 10
M  V30 10 2 10 11
M  V30 11 1 10 12
M  V30 12 2 12 13
M  V30 13 1 13 14
M  V30 14 1 14 15
M  V30 15 2 15 16
M  V30 16 1 16 17
M  V30 17 1 17 18
M  V30 18 2 18 19
M  V30 19 1 19 20
M  V30 20 2 20 21
M  V30 21 1 21 22
M  V30 22 2 22 23
M  V30 23 2 17 24
M  V30 24 1 24 25
M  V30 25 2 25 26
M  V30 26 2 7 27
M  V30 27 1 27 3
M  V30 28 1 26 12
M  V30 29 1 26 15
M  V30 30 1 23 18
M  V30 31 1 1 28
M  V30 32 1 1 29
M  V30 33 1 1 30
M  V30 34 1 4 31
M  V30 35 1 5 32
M  V30 36 1 6 33
M  V30 37 1 8 34
M  V30 38 1 8 35
M  V30 39 1 9 36
M  V30 40 1 13 37
M  V30 41 1 14 38
M  V30 42 1 16 39
M  V30 43 1 19 40
M  V30 44 1 20 41
M  V30 45 1 22 42
M  V30 46 1 23 43
M  V30 47 1 24 44
M  V30 48 1 25 45
M  V30 49 1 27 46
M  V30 END BOND
M  V30 END CTAB
M  END
>  <Dataset>  (390) 
ChEMBL_Kinases

>  <Ligand_Instance>  (390) 
nan

>  <PDB_ID>  (390) 
nan

>  <Standardized_SMILES>  (390) 
COc1cccc(CNC(=O)c2c[nH]c3cc(-c4ccncc4)ccc23)c1

>  <Name>  (390) 
nan

>  <Pocket>  (390) 
nan

>  <ATP_Site>  (390) 
nan

>  <Peripheral>  (390) 
nan

>  <Num_H_Atoms_ProtBoundConf>  (390) 
nan

>  <Num_Resolved_Atoms>  (390) 
nan

>  <Num_Not_Resolved_Atoms>  (390) 
nan

$$$$
CHEMBL1923166
     RDKit          3D

  0  0  0  0  0  0  0  0  0  0999 V3000
M  V30 BEGIN CTAB
M  V30 COUNTS 45 48 0 0 0
M  V30 BEGIN ATOM
M  V30 1 C 5.762908 -4.720860 -1.747361 0
M  V30 2 O 5.279870 -3.796634 -0.808338 0
M  V30 3 C 5.194264 -2.430748 -0.985778 0
M  V30 4 C 5.532010 -1.648146 -2.052230 0
M  V30 5 C 5.350017 -0.282374 -1.988874 0
M  V30 6 C 4.831629 0.342118 -0.874030 0
M  V30 7 C 4.482270 -0.423430 0.216300 0
M  V30 8 C 3.921950 0.231673 1.426714 0
M  V30 9 N 2.491741 0.341642 1.418727 0
M  V30 10 C 1.677309 1.250531 0.699616 0
M  V30 11 O 2.213199 2.104210 -0.056104 0
M  V30 12 C 0.219811 1.206746 0.826570 0
M  V30 13 C -0.656834 2.034601 0.152641 0
M  V30 14 C -1.926840 1.673487 0.554391 0
M  V30 15 C -3.227453 2.058437 0.299855 0
M  V30 16 C -4.309932 1.438887 0.918547 0
M  V30 17 C -4.109465 0.410847 1.813636 0
M  V30 18 C -5.180754 -0.293286 2.509731 0
M  V30 19 C -4.831567 -1.302580 3.382746 0
M  V30 20 C -5.776757 -2.031691 4.091563 0
M  V30 21 N -7.092076 -1.746574 3.924372 0
M  V30 22 C -7.429222 -0.745766 3.058142 0
M  V30 23 C -6.514612 -0.002847 2.339056 0
M  V30 24 N -2.843287 0.028347 2.068050 0
M  V30 25 C -1.775536 0.624682 1.470825 0
M  V30 26 N -0.461153 0.361224 1.617598 0
M  V30 27 C 4.666616 -1.808360 0.152435 0
M  V30 28 H 6.612337 -5.294661 -1.276284 0
M  V30 29 H 6.195550 -4.213637 -2.612221 0
M  V30 30 H 4.958129 -5.440218 -2.001570 0
M  V30 31 H 5.927583 -2.206321 -2.880066 0
M  V30 32 H 5.630216 0.301461 -2.854006 0
M  V30 33 H 4.726835 1.418540 -0.918441 0
M  V30 34 H 4.335793 -0.252755 2.305984 0
M  V30 35 H 4.333885 1.277661 1.440393 0
M  V30 36 H 2.000681 -0.365247 2.044762 0
M  V30 37 H -0.445265 2.809002 -0.545376 0
M  V30 38 H -3.347778 2.861700 -0.402649 0
M  V30 39 H -5.317826 1.755217 0.705667 0
M  V30 40 H -3.786116 -1.586345 3.566446 0
M  V30 41 H -5.469335 -2.818081 4.769793 0
M  V30 42 H -8.490379 -0.572616 2.973531 0
M  V30 43 H -6.813333 0.768233 1.673702 0
M  V30 44 H -0.069940 -0.370128 2.237610 0
M  V30 45 H 4.359687 -2.318945 1.064072 0
M  V30 END ATOM
M  V30 BEGIN BOND
M  V30 1 1 1 2
M  V30 2 1 2 3
M  V30 3 2 3 4
M  V30 4 1 4 5
M  V30 5 2 5 6
M  V30 6 1 6 7
M  V30 7 1 7 8
M  V30 8 1 8 9
M  V30 9 1 9 10
M  V30 10 2 10 11
M  V30 11 1 10 12
M  V30 12 2 12 13
M  V30 13 1 13 14
M  V30 14 2 14 15
M  V30 15 1 15 16
M  V30 16 2 16 17
M  V30 17 1 17 18
M  V30 18 2 18 19
M  V30 19 1 19 20
M  V30 20 2 20 21
M  V30 21 1 21 22
M  V30 22 2 22 23
M  V30 23 1 17 24
M  V30 24 2 24 25
M  V30 25 1 25 26
M  V30 26 2 7 27
M  V30 27 1 27 3
M  V30 28 1 26 12
M  V30 29 1 25 14
M  V30 30 1 23 18
M  V30 31 1 1 28
M  V30 32 1 1 29
M  V30 33 1 1 30
M  V30 34 1 4 31
M  V30 35 1 5 32
M  V30 36 1 6 33
M  V30 37 1 8 34
M  V30 38 1 8 35
M  V30 39 1 9 36
M  V30 40 1 13 37
M  V30 41 1 15 38
M  V30 42 1 16 39
M  V30 43 1 19 40
M  V30 44 1 20 41
M  V30 45 1 22 42
M  V30 46 1 23 43
M  V30 47 1 26 44
M  V30 48 1 27 45
M  V30 END BOND
M  V30 END CTAB
M  END
>  <Dataset>  (391) 
ChEMBL_Kinases

>  <Ligand_Instance>  (391) 
nan

>  <PDB_ID>  (391) 
nan

>  <Standardized_SMILES>  (391) 
COc1cccc(CNC(=O)c2cc3ccc(-c4ccncc4)nc3[nH]2)c1

>  <Name>  (391) 
nan

>  <Pocket>  (391) 
nan

>  <ATP_Site>  (391) 
nan

>  <Peripheral>  (391) 
nan

>  <Num_H_Atoms_ProtBoundConf>  (391) 
nan

>  <Num_Resolved_Atoms>  (391) 
nan

>  <Num_Not_Resolved_Atoms>  (391) 
nan

$$$$
CHEMBL1923165
     RDKit          3D

  0  0  0  0  0  0  0  0  0  0999 V3000
M  V30 BEGIN CTAB
M  V30 COUNTS 46 49 0 0 0
M  V30 BEGIN ATOM
M  V30 1 C 6.613800 -2.235043 0.243009 0
M  V30 2 O 5.665705 -1.280143 -0.124518 0
M  V30 3 C 5.040832 -1.181638 -1.359316 0
M  V30 4 C 5.199659 -1.974087 -2.479886 0
M  V30 5 C 4.465364 -1.681461 -3.600161 0
M  V30 6 C 3.576666 -0.627671 -3.648413 0
M  V30 7 C 3.404147 0.180622 -2.529414 0
M  V30 8 C 2.443039 1.303256 -2.614531 0
M  V30 9 N 1.105266 0.981041 -2.224721 0
M  V30 10 C 0.131828 0.257775 -2.967047 0
M  V30 11 O 0.394900 -0.178219 -4.094106 0
M  V30 12 C -1.210511 -0.004660 -2.446074 0
M  V30 13 C -2.178077 -0.698496 -3.158877 0
M  V30 14 C -3.323290 -0.758790 -2.359540 0
M  V30 15 C -4.590726 -1.314223 -2.531391 0
M  V30 16 C -5.503587 -1.173125 -1.486224 0
M  V30 17 C -5.159765 -0.502413 -0.316158 0
M  V30 18 C -6.164562 -0.394191 0.737657 0
M  V30 19 C -7.464005 -0.885472 0.703579 0
M  V30 20 N -8.012579 -0.550439 1.892842 0
M  V30 21 N -7.114373 0.110124 2.628741 0
M  V30 22 C -5.942507 0.239315 1.963182 0
M  V30 23 C -4.732038 0.917937 2.488039 0
M  V30 24 N -3.915811 0.001864 -0.236253 0
M  V30 25 C -2.985873 -0.095978 -1.201919 0
M  V30 26 N -1.715760 0.359290 -1.250071 0
M  V30 27 C 4.142845 -0.112955 -1.400759 0
M  V30 28 H 6.589992 -2.376642 1.359607 0
M  V30 29 H 6.493303 -3.177685 -0.311193 0
M  V30 30 H 7.632125 -1.799111 0.040680 0
M  V30 31 H 5.913378 -2.769795 -2.347887 0
M  V30 32 H 4.657947 -2.365356 -4.440229 0
M  V30 33 H 3.069356 -0.512492 -4.589354 0
M  V30 34 H 2.440055 1.720644 -3.657637 0
M  V30 35 H 2.808647 2.137601 -1.988373 0
M  V30 36 H 0.747534 1.298211 -1.273342 0
M  V30 37 H -2.151244 -1.137296 -4.128320 0
M  V30 38 H -4.832452 -1.833661 -3.457295 0
M  V30 39 H -6.465322 -1.612692 -1.655420 0
M  V30 40 H -7.952181 -1.425417 -0.098199 0
M  V30 41 H -7.360221 0.451073 3.584869 0
M  V30 42 H -4.688309 0.709123 3.591808 0
M  V30 43 H -4.712489 2.003996 2.281596 0
M  V30 44 H -3.796743 0.469256 2.091901 0
M  V30 45 H -1.212588 0.891556 -0.509114 0
M  V30 46 H 3.940248 0.568519 -0.586321 0
M  V30 END ATOM
M  V30 BEGIN BOND
M  V30 1 1 1 2
M  V30 2 1 2 3
M  V30 3 2 3 4
M  V30 4 1 4 5
M  V30 5 2 5 6
M  V30 6 1 6 7
M  V30 7 1 7 8
M  V30 8 1 8 9
M  V30 9 1 9 10
M  V30 10 2 10 11
M  V30 11 1 10 12
M  V30 12 2 12 13
M  V30 13 1 13 14
M  V30 14 2 14 15
M  V30 15 1 15 16
M  V30 16 2 16 17
M  V30 17 1 17 18
M  V30 18 1 18 19
M  V30 19 2 19 20
M  V30 20 1 20 21
M  V30 21 1 21 22
M  V30 22 1 22 23
M  V30 23 1 17 24
M  V30 24 2 24 25
M  V30 25 1 25 26
M  V30 26 2 7 27
M  V30 27 1 27 3
M  V30 28 1 26 12
M  V30 29 1 25 14
M  V30 30 2 22 18
M  V30 31 1 1 28
M  V30 32 1 1 29
M  V30 33 1 1 30
M  V30 34 1 4 31
M  V30 35 1 5 32
M  V30 36 1 6 33
M  V30 37 1 8 34
M  V30 38 1 8 35
M  V30 39 1 9 36
M  V30 40 1 13 37
M  V30 41 1 15 38
M  V30 42 1 16 39
M  V30 43 1 19 40
M  V30 44 1 21 41
M  V30 45 1 23 42
M  V30 46 1 23 43
M  V30 47 1 23 44
M  V30 48 1 26 45
M  V30 49 1 27 46
M  V30 END BOND
M  V30 END CTAB
M  END
>  <Dataset>  (392) 
ChEMBL_Kinases

>  <Ligand_Instance>  (392) 
nan

>  <PDB_ID>  (392) 
nan

>  <Standardized_SMILES>  (392) 
COc1cccc(CNC(=O)c2cc3ccc(-c4cn[nH]c4C)nc3[nH]2)c1

>  <Name>  (392) 
nan

>  <Pocket>  (392) 
nan

>  <ATP_Site>  (392) 
nan

>  <Peripheral>  (392) 
nan

>  <Num_H_Atoms_ProtBoundConf>  (392) 
nan

>  <Num_Resolved_Atoms>  (392) 
nan

>  <Num_Not_Resolved_Atoms>  (392) 
nan

$$$$
CHEMBL1928671
     RDKit          3D

  0  0  0  0  0  0  0  0  0  0999 V3000
M  V30 BEGIN CTAB
M  V30 COUNTS 52 55 0 0 0
M  V30 BEGIN ATOM
M  V30 1 C -1.200663 -4.388061 3.940625 0
M  V30 2 C 0.266567 -4.296384 3.496892 0
M  V30 3 O 0.478006 -3.154255 2.732320 0
M  V30 4 C 1.655371 -2.756406 2.175083 0
M  V30 5 O 2.146351 -3.767827 2.673372 0
M  V30 6 C 2.166197 -1.675499 1.371182 0
M  V30 7 C 3.535916 -1.896912 1.208062 0
M  V30 8 N 4.289028 -1.001229 0.500113 0
M  V30 9 C 3.720259 0.090955 -0.040451 0
M  V30 10 N 4.186466 1.101036 -0.793539 0
M  V30 11 N 3.153622 1.895204 -1.075449 0
M  V30 12 C 2.037883 1.414686 -0.517375 0
M  V30 13 C 0.778693 2.102358 -0.715699 0
M  V30 14 C 0.451813 2.284457 -2.073265 0
M  V30 15 C -0.712678 2.962518 -2.447538 0
M  V30 16 C -1.572702 3.471321 -1.512117 0
M  V30 17 C -1.259629 3.297856 -0.195019 0
M  V30 18 C -2.067360 3.777391 0.904428 0
M  V30 19 N -2.731128 4.170904 1.776296 0
M  V30 20 C -0.129995 2.640732 0.163129 0
M  V30 21 C 2.372012 0.263268 0.148538 0
M  V30 22 C 1.531154 -0.571847 0.838257 0
M  V30 23 N 0.140511 -0.539167 1.032143 0
M  V30 24 C -0.754859 -0.146802 2.071092 0
M  V30 25 C -2.125520 -0.761081 1.734195 0
M  V30 26 O -2.018878 -2.068072 1.329935 0
M  V30 27 C -1.316667 -2.237679 0.161606 0
M  V30 28 C -2.313016 -2.584398 -0.936959 0
M  V30 29 N -1.668002 -2.780472 -2.199366 0
M  V30 30 C -0.556271 -0.984263 -0.160349 0
M  V30 31 H -1.275009 -4.743455 4.979028 0
M  V30 32 H -1.672700 -3.378867 3.919221 0
M  V30 33 H -1.783424 -4.990914 3.209224 0
M  V30 34 H 0.839490 -4.158556 4.449012 0
M  V30 35 H 0.614972 -5.240487 3.075420 0
M  V30 36 H 4.169606 -2.693074 1.554118 0
M  V30 37 H 5.202634 1.170772 -1.063655 0
M  V30 38 H 1.033402 1.938999 -2.919975 0
M  V30 39 H -0.980623 3.112240 -3.484821 0
M  V30 40 H -2.491515 4.006417 -1.709420 0
M  V30 41 H 0.290649 2.433875 1.160722 0
M  V30 42 H -0.947823 0.893302 2.249057 0
M  V30 43 H -0.504472 -0.624463 3.054912 0
M  V30 44 H -2.708704 -0.729898 2.678550 0
M  V30 45 H -2.691206 -0.107761 1.025796 0
M  V30 46 H -0.575099 -3.056948 0.239633 0
M  V30 47 H -2.810280 -3.536067 -0.635053 0
M  V30 48 H -3.103117 -1.810243 -1.015506 0
M  V30 49 H -0.651292 -2.990235 -2.044243 0
M  V30 50 H -1.826397 -1.934453 -2.797976 0
M  V30 51 H -1.330684 -0.230338 -0.472503 0
M  V30 52 H 0.083456 -1.088718 -1.057996 0
M  V30 END ATOM
M  V30 BEGIN BOND
M  V30 1 1 1 2
M  V30 2 1 2 3
M  V30 3 1 3 4
M  V30 4 2 4 5
M  V30 5 1 4 6
M  V30 6 2 6 7
M  V30 7 1 7 8
M  V30 8 2 8 9
M  V30 9 1 9 10
M  V30 10 1 10 11
M  V30 11 2 11 12
M  V30 12 1 12 13
M  V30 13 2 13 14
M  V30 14 1 14 15
M  V30 15 2 15 16
M  V30 16 1 16 17
M  V30 17 1 17 18
M  V30 18 3 18 19
M  V30 19 2 17 20
M  V30 20 1 12 21
M  V30 21 2 21 22
M  V30 22 1 22 23
M  V30 23 1 23 24
M  V30 24 1 24 25
M  V30 25 1 25 26
M  V30 26 1 26 27
M  V30 27 1 27 28
M  V30 28 1 28 29
M  V30 29 1 27 30
M  V30 30 1 22 6
M  V30 31 1 30 23
M  V30 32 1 21 9
M  V30 33 1 20 13
M  V30 34 1 1 31
M  V30 35 1 1 32
M  V30 36 1 1 33
M  V30 37 1 2 34
M  V30 38 1 2 35
M  V30 39 1 7 36
M  V30 40 1 10 37
M  V30 41 1 14 38
M  V30 42 1 15 39
M  V30 43 1 16 40
M  V30 44 1 20 41
M  V30 45 1 24 42
M  V30 46 1 24 43
M  V30 47 1 25 44
M  V30 48 1 25 45
M  V30 49 1 27 46
M  V30 50 1 28 47
M  V30 51 1 28 48
M  V30 52 1 29 49
M  V30 53 1 29 50
M  V30 54 1 30 51
M  V30 55 1 30 52
M  V30 END BOND
M  V30 END CTAB
M  END
>  <Dataset>  (393) 
ChEMBL_Kinases

>  <Ligand_Instance>  (393) 
nan

>  <PDB_ID>  (393) 
nan

>  <Standardized_SMILES>  (393) 
CCOC(=O)c1cnc2[nH]nc(-c3cccc(C#N)c3)c2c1N1CCOC(CN)C1

>  <Name>  (393) 
nan

>  <Pocket>  (393) 
nan

>  <ATP_Site>  (393) 
nan

>  <Peripheral>  (393) 
nan

>  <Num_H_Atoms_ProtBoundConf>  (393) 
nan

>  <Num_Resolved_Atoms>  (393) 
nan

>  <Num_Not_Resolved_Atoms>  (393) 
nan

$$$$
CHEMBL191893
     RDKit          3D

  0  0  0  0  0  0  0  0  0  0999 V3000
M  V30 BEGIN CTAB
M  V30 COUNTS 38 40 0 0 0
M  V30 BEGIN ATOM
M  V30 1 C 0.280753 -4.920738 0.278647 0
M  V30 2 C -0.897086 -4.275956 1.046603 0
M  V30 3 C -2.131532 -4.877806 0.317136 0
M  V30 4 O -0.903289 -2.932154 0.964120 0
M  V30 5 C -0.937559 -1.855247 1.715563 0
M  V30 6 N -0.882740 -0.842058 0.804562 0
M  V30 7 C -0.894363 0.449183 1.184816 0
M  V30 8 N -0.862980 1.670175 0.430026 0
M  V30 9 C 0.264413 2.305513 -0.125420 0
M  V30 10 C 0.152590 3.519141 -0.729274 0
M  V30 11 C 1.209895 4.175694 -1.300674 0
M  V30 12 C 2.487790 3.615017 -1.290975 0
M  V30 13 N 3.661228 4.045013 -1.775968 0
M  V30 14 C 4.513844 3.059096 -1.455073 0
M  V30 15 N 3.887453 2.064674 -0.800678 0
M  V30 16 C 2.568082 2.388457 -0.673808 0
M  V30 17 C 1.520690 1.708914 -0.091754 0
M  V30 18 N -0.960702 0.811017 2.501393 0
M  V30 19 C -1.018387 -0.151599 3.460755 0
M  V30 20 C -1.004524 -1.454638 3.019702 0
M  V30 21 C -1.085491 -2.557022 3.972949 0
M  V30 22 F -2.192318 -3.372716 3.823859 0
M  V30 23 F -1.246951 -2.017543 5.267677 0
M  V30 24 F 0.045961 -3.331794 4.076888 0
M  V30 25 H 0.182106 -6.008250 0.451900 0
M  V30 26 H 0.088040 -4.684062 -0.784150 0
M  V30 27 H 1.241330 -4.538280 0.618694 0
M  V30 28 H -0.893334 -4.707507 2.050605 0
M  V30 29 H -3.044087 -4.641590 0.861609 0
M  V30 30 H -2.091922 -4.466626 -0.701189 0
M  V30 31 H -1.980086 -5.973905 0.235783 0
M  V30 32 H -1.809870 2.078601 0.319117 0
M  V30 33 H -0.835561 3.988726 -0.753129 0
M  V30 34 H 1.050262 5.144191 -1.766675 0
M  V30 35 H 3.809792 4.944398 -2.274787 0
M  V30 36 H 5.579589 3.062515 -1.695251 0
M  V30 37 H 1.677467 0.742820 0.373210 0
M  V30 38 H -1.073785 0.015211 4.525371 0
M  V30 END ATOM
M  V30 BEGIN BOND
M  V30 1 1 1 2
M  V30 2 1 2 3
M  V30 3 1 2 4
M  V30 4 1 4 5
M  V30 5 2 5 6
M  V30 6 1 6 7
M  V30 7 1 7 8
M  V30 8 1 8 9
M  V30 9 2 9 10
M  V30 10 1 10 11
M  V30 11 2 11 12
M  V30 12 1 12 13
M  V30 13 1 13 14
M  V30 14 2 14 15
M  V30 15 1 15 16
M  V30 16 2 16 17
M  V30 17 2 7 18
M  V30 18 1 18 19
M  V30 19 2 19 20
M  V30 20 1 20 21
M  V30 21 1 21 22
M  V30 22 1 21 23
M  V30 23 1 21 24
M  V30 24 1 20 5
M  V30 25 1 17 9
M  V30 26 1 16 12
M  V30 27 1 1 25
M  V30 28 1 1 26
M  V30 29 1 1 27
M  V30 30 1 2 28
M  V30 31 1 3 29
M  V30 32 1 3 30
M  V30 33 1 3 31
M  V30 34 1 8 32
M  V30 35 1 10 33
M  V30 36 1 11 34
M  V30 37 1 13 35
M  V30 38 1 14 36
M  V30 39 1 17 37
M  V30 40 1 19 38
M  V30 END BOND
M  V30 END CTAB
M  END
>  <Dataset>  (394) 
ChEMBL_Kinases

>  <Ligand_Instance>  (394) 
nan

>  <PDB_ID>  (394) 
nan

>  <Standardized_SMILES>  (394) 
CC(C)Oc1nc(Nc2ccc3[nH]cnc3c2)ncc1C(F)(F)F

>  <Name>  (394) 
nan

>  <Pocket>  (394) 
nan

>  <ATP_Site>  (394) 
nan

>  <Peripheral>  (394) 
nan

>  <Num_H_Atoms_ProtBoundConf>  (394) 
nan

>  <Num_Resolved_Atoms>  (394) 
nan

>  <Num_Not_Resolved_Atoms>  (394) 
nan

$$$$
CHEMBL191969
     RDKit          3D

  0  0  0  0  0  0  0  0  0  0999 V3000
M  V30 BEGIN CTAB
M  V30 COUNTS 40 43 0 0 0
M  V30 BEGIN ATOM
M  V30 1 N 1.586644 -8.264967 -0.967027 0
M  V30 2 C 0.647533 -7.346574 -0.393520 0
M  V30 3 O -0.249641 -7.938161 0.220828 0
M  V30 4 C 0.934642 -5.940602 -0.645157 0
M  V30 5 C 2.006970 -5.462984 -1.369089 0
M  V30 6 C 2.100852 -4.093671 -1.492523 0
M  V30 7 C 1.177801 -3.238795 -0.926643 0
M  V30 8 N 1.111973 -1.877988 -0.945100 0
M  V30 9 C 0.012781 -1.544724 -0.240262 0
M  V30 10 C -0.400641 -0.145410 -0.032841 0
M  V30 11 C 0.371716 0.858427 -0.584198 0
M  V30 12 C -0.022184 2.172542 -0.385701 0
M  V30 13 C -1.161450 2.439758 0.348421 0
M  V30 14 S -1.666816 4.159376 0.601596 0
M  V30 15 C -0.852837 4.691995 2.122529 0
M  V30 16 C 0.397057 5.251759 1.949026 0
M  V30 17 C 1.044536 5.668949 3.095430 0
M  V30 18 C 0.503818 5.551168 4.379211 0
M  V30 19 Cl 1.355406 6.091058 5.801172 0
M  V30 20 C -0.751576 4.976462 4.432227 0
M  V30 21 C -1.474121 4.530599 3.344286 0
M  V30 22 C -1.946152 1.433069 0.907991 0
M  V30 23 C -1.551340 0.119781 0.708860 0
M  V30 24 N -0.580183 -2.648532 0.198044 0
M  V30 25 C 0.102190 -3.723652 -0.200233 0
M  V30 26 C 0.000583 -5.106414 -0.071130 0
M  V30 27 H 2.518741 -8.673592 -0.717409 0
M  V30 28 H 2.312515 -8.245939 -0.223526 0
M  V30 29 H 2.686695 -6.195500 -1.781145 0
M  V30 30 H 2.942860 -3.720239 -2.060891 0
M  V30 31 H 1.826248 -1.278643 -1.440032 0
M  V30 32 H 1.266182 0.663522 -1.161251 0
M  V30 33 H 0.568278 2.974616 -0.808783 0
M  V30 34 H 0.862620 5.367518 0.983186 0
M  V30 35 H 2.044797 6.128897 3.072987 0
M  V30 36 H -1.215890 4.863827 5.422918 0
M  V30 37 H -2.448223 4.089345 3.430875 0
M  V30 38 H -2.842704 1.672683 1.484397 0
M  V30 39 H -2.155319 -0.689594 1.141123 0
M  V30 40 H -0.860881 -5.417817 0.507181 0
M  V30 END ATOM
M  V30 BEGIN BOND
M  V30 1 1 1 2
M  V30 2 2 2 3
M  V30 3 1 2 4
M  V30 4 2 4 5
M  V30 5 1 5 6
M  V30 6 2 6 7
M  V30 7 1 7 8
M  V30 8 1 8 9
M  V30 9 1 9 10
M  V30 10 2 10 11
M  V30 11 1 11 12
M  V30 12 2 12 13
M  V30 13 1 13 14
M  V30 14 1 14 15
M  V30 15 2 15 16
M  V30 16 1 16 17
M  V30 17 2 17 18
M  V30 18 1 18 19
M  V30 19 1 18 20
M  V30 20 2 20 21
M  V30 21 1 13 22
M  V30 22 2 22 23
M  V30 23 2 9 24
M  V30 24 1 24 25
M  V30 25 2 25 26
M  V30 26 1 26 4
M  V30 27 1 25 7
M  V30 28 1 23 10
M  V30 29 1 21 15
M  V30 30 1 1 27
M  V30 31 1 1 28
M  V30 32 1 5 29
M  V30 33 1 6 30
M  V30 34 1 8 31
M  V30 35 1 11 32
M  V30 36 1 12 33
M  V30 37 1 16 34
M  V30 38 1 17 35
M  V30 39 1 20 36
M  V30 40 1 21 37
M  V30 41 1 22 38
M  V30 42 1 23 39
M  V30 43 1 26 40
M  V30 END BOND
M  V30 END CTAB
M  END
>  <Dataset>  (395) 
ChEMBL_Kinases

>  <Ligand_Instance>  (395) 
nan

>  <PDB_ID>  (395) 
nan

>  <Standardized_SMILES>  (395) 
NC(=O)c1ccc2[nH]c(-c3ccc(Sc4ccc(Cl)cc4)cc3)nc2c1

>  <Name>  (395) 
nan

>  <Pocket>  (395) 
nan

>  <ATP_Site>  (395) 
nan

>  <Peripheral>  (395) 
nan

>  <Num_H_Atoms_ProtBoundConf>  (395) 
nan

>  <Num_Resolved_Atoms>  (395) 
nan

>  <Num_Not_Resolved_Atoms>  (395) 
nan

$$$$
CHEMBL192022
     RDKit          3D

  0  0  0  0  0  0  0  0  0  0999 V3000
M  V30 BEGIN CTAB
M  V30 COUNTS 43 46 0 0 0
M  V30 BEGIN ATOM
M  V30 1 N 0.560305 -9.163634 1.332946 0
M  V30 2 C 0.500979 -8.104483 0.378574 0
M  V30 3 O 0.322922 -8.381729 -0.836702 0
M  V30 4 C 0.649584 -6.721990 0.843584 0
M  V30 5 C 0.845935 -6.398956 2.175919 0
M  V30 6 C 0.985286 -5.090410 2.606206 0
M  V30 7 C 0.921579 -4.079778 1.641380 0
M  V30 8 N 1.024391 -2.743221 1.781680 0
M  V30 9 C 0.900658 -2.159202 0.566085 0
M  V30 10 C 0.939968 -0.748672 0.190264 0
M  V30 11 C 0.798371 -0.279674 -1.105964 0
M  V30 12 C 0.853076 1.103133 -1.351159 0
M  V30 13 C 1.049241 2.032221 -0.308429 0
M  V30 14 O 1.045322 3.244136 -0.919366 0
M  V30 15 C 1.191620 4.504004 -0.358002 0
M  V30 16 C 0.158704 4.893480 0.630081 0
M  V30 17 C 0.080060 4.855473 2.003043 0
M  V30 18 C -1.049740 5.281709 2.663198 0
M  V30 19 C -2.155715 5.765552 2.014112 0
M  V30 20 C -2.108318 5.817083 0.636679 0
M  V30 21 C -0.973835 5.389156 -0.032856 0
M  V30 22 C 1.181231 1.488241 0.948729 0
M  V30 23 C 1.132900 0.142071 1.225736 0
M  V30 24 N 0.721403 -3.163194 -0.311738 0
M  V30 25 C 0.727348 -4.358848 0.304106 0
M  V30 26 C 0.594454 -5.686110 -0.068357 0
M  V30 27 H 1.367657 -9.581914 1.834753 0
M  V30 28 H -0.293797 -9.685977 1.662869 0
M  V30 29 H 0.892337 -7.197503 2.908455 0
M  V30 30 H 1.136039 -4.837949 3.627010 0
M  V30 31 H 1.174752 -2.213717 2.667270 0
M  V30 32 H 0.655944 -1.082397 -1.801916 0
M  V30 33 H 0.717997 1.223613 -2.431839 0
M  V30 34 H 1.286593 5.272548 -1.161545 0
M  V30 35 H 2.157505 4.523086 0.247946 0
M  V30 36 H 0.996742 4.471343 2.424903 0
M  V30 37 H -0.981180 5.198122 3.745889 0
M  V30 38 H -2.967970 6.063027 2.662822 0
M  V30 39 H -2.993990 6.202524 0.160737 0
M  V30 40 H -1.103815 5.498161 -1.121808 0
M  V30 41 H 1.330008 2.291965 1.645792 0
M  V30 42 H 1.258772 -0.067432 2.278948 0
M  V30 43 H 0.443644 -5.893240 -1.111247 0
M  V30 END ATOM
M  V30 BEGIN BOND
M  V30 1 1 1 2
M  V30 2 2 2 3
M  V30 3 1 2 4
M  V30 4 2 4 5
M  V30 5 1 5 6
M  V30 6 2 6 7
M  V30 7 1 7 8
M  V30 8 1 8 9
M  V30 9 1 9 10
M  V30 10 2 10 11
M  V30 11 1 11 12
M  V30 12 2 12 13
M  V30 13 1 13 14
M  V30 14 1 14 15
M  V30 15 1 15 16
M  V30 16 2 16 17
M  V30 17 1 17 18
M  V30 18 2 18 19
M  V30 19 1 19 20
M  V30 20 2 20 21
M  V30 21 1 13 22
M  V30 22 2 22 23
M  V30 23 2 9 24
M  V30 24 1 24 25
M  V30 25 2 25 26
M  V30 26 1 26 4
M  V30 27 1 25 7
M  V30 28 1 23 10
M  V30 29 1 21 16
M  V30 30 1 1 27
M  V30 31 1 1 28
M  V30 32 1 5 29
M  V30 33 1 6 30
M  V30 34 1 8 31
M  V30 35 1 11 32
M  V30 36 1 12 33
M  V30 37 1 15 34
M  V30 38 1 15 35
M  V30 39 1 17 36
M  V30 40 1 18 37
M  V30 41 1 19 38
M  V30 42 1 20 39
M  V30 43 1 21 40
M  V30 44 1 22 41
M  V30 45 1 23 42
M  V30 46 1 26 43
M  V30 END BOND
M  V30 END CTAB
M  END
>  <Dataset>  (396) 
ChEMBL_Kinases

>  <Ligand_Instance>  (396) 
nan

>  <PDB_ID>  (396) 
nan

>  <Standardized_SMILES>  (396) 
NC(=O)c1ccc2[nH]c(-c3ccc(OCc4ccccc4)cc3)nc2c1

>  <Name>  (396) 
nan

>  <Pocket>  (396) 
nan

>  <ATP_Site>  (396) 
nan

>  <Peripheral>  (396) 
nan

>  <Num_H_Atoms_ProtBoundConf>  (396) 
nan

>  <Num_Resolved_Atoms>  (396) 
nan

>  <Num_Not_Resolved_Atoms>  (396) 
nan

$$$$
CHEMBL1921823
     RDKit          3D

  0  0  0  0  0  0  0  0  0  0999 V3000
M  V30 BEGIN CTAB
M  V30 COUNTS 50 53 0 0 0
M  V30 BEGIN ATOM
M  V30 1 C 1.156680 -3.961437 2.836291 0
M  V30 2 N 1.972531 -2.769022 2.923395 0
M  V30 3 C 3.371861 -2.779472 2.699692 0
M  V30 4 O 3.971098 -3.860885 2.408434 0
M  V30 5 N 4.233238 -1.649168 2.768304 0
M  V30 6 C 5.597767 -2.064103 2.476679 0
M  V30 7 C 3.747283 -0.311536 3.088130 0
M  V30 8 C 3.371937 0.375111 1.834085 0
M  V30 9 C 4.243906 1.141255 1.089212 0
M  V30 10 C 3.820937 1.755219 -0.076313 0
M  V30 11 C 2.510148 1.613060 -0.520529 0
M  V30 12 C 1.676232 0.843107 0.249528 0
M  V30 13 C 0.270178 0.650117 -0.164284 0
M  V30 14 C -0.665166 -0.097318 0.519328 0
M  V30 15 C -1.833815 -0.009094 -0.209796 0
M  V30 16 C -1.603172 0.781513 -1.317540 0
M  V30 17 N -2.611551 1.020428 -2.198830 0
M  V30 18 C -3.844458 0.487138 -1.997785 0
M  V30 19 N -4.874168 0.759082 -2.941031 0
M  V30 20 C -4.739041 1.573369 -4.133856 0
M  V30 21 C -4.077209 -0.302668 -0.892356 0
M  V30 22 N -5.194168 -0.919572 -0.503031 0
M  V30 23 C -4.927937 -1.579821 0.654665 0
M  V30 24 N -3.624817 -1.339609 0.943210 0
M  V30 25 C -2.927643 -1.870481 2.118965 0
M  V30 26 C -3.074962 -0.561887 0.017278 0
M  V30 27 N -0.305719 1.178797 -1.275183 0
M  V30 28 N 2.125617 0.262559 1.376676 0
M  V30 29 H 1.345006 -4.584366 3.731277 0
M  V30 30 H 1.327414 -4.493599 1.886972 0
M  V30 31 H 0.083174 -3.632793 2.829942 0
M  V30 32 H 1.550760 -1.825053 3.161580 0
M  V30 33 H 6.313647 -1.263011 2.715200 0
M  V30 34 H 5.709166 -2.381510 1.405900 0
M  V30 35 H 5.878106 -2.933785 3.111931 0
M  V30 36 H 4.540399 0.253142 3.615323 0
M  V30 37 H 2.892600 -0.418638 3.780483 0
M  V30 38 H 5.255644 1.250310 1.433129 0
M  V30 39 H 4.479255 2.366332 -0.689324 0
M  V30 40 H 2.103355 2.056868 -1.414256 0
M  V30 41 H -0.529697 -0.637700 1.425066 0
M  V30 42 H -5.817453 0.353312 -2.790678 0
M  V30 43 H -5.230768 2.554884 -3.935543 0
M  V30 44 H -3.647610 1.694703 -4.385731 0
M  V30 45 H -5.246459 1.025682 -4.968789 0
M  V30 46 H -5.648199 -2.169243 1.202537 0
M  V30 47 H -2.629343 -0.998086 2.724146 0
M  V30 48 H -2.105231 -2.536520 1.821044 0
M  V30 49 H -3.623044 -2.476694 2.733588 0
M  V30 50 H 0.135214 1.789644 -1.997871 0
M  V30 END ATOM
M  V30 BEGIN BOND
M  V30 1 1 1 2
M  V30 2 1 2 3
M  V30 3 2 3 4
M  V30 4 1 3 5
M  V30 5 1 5 6
M  V30 6 1 5 7
M  V30 7 1 7 8
M  V30 8 2 8 9
M  V30 9 1 9 10
M  V30 10 2 10 11
M  V30 11 1 11 12
M  V30 12 1 12 13
M  V30 13 2 13 14
M  V30 14 1 14 15
M  V30 15 2 15 16
M  V30 16 1 16 17
M  V30 17 2 17 18
M  V30 18 1 18 19
M  V30 19 1 19 20
M  V30 20 1 18 21
M  V30 21 1 21 22
M  V30 22 2 22 23
M  V30 23 1 23 24
M  V30 24 1 24 25
M  V30 25 1 24 26
M  V30 26 1 16 27
M  V30 27 2 12 28
M  V30 28 1 28 8
M  V30 29 1 27 13
M  V30 30 1 26 15
M  V30 31 2 26 21
M  V30 32 1 1 29
M  V30 33 1 1 30
M  V30 34 1 1 31
M  V30 35 1 2 32
M  V30 36 1 6 33
M  V30 37 1 6 34
M  V30 38 1 6 35
M  V30 39 1 7 36
M  V30 40 1 7 37
M  V30 41 1 9 38
M  V30 42 1 10 39
M  V30 43 1 11 40
M  V30 44 1 14 41
M  V30 45 1 19 42
M  V30 46 1 20 43
M  V30 47 1 20 44
M  V30 48 1 20 45
M  V30 49 1 23 46
M  V30 50 1 25 47
M  V30 51 1 25 48
M  V30 52 1 25 49
M  V30 53 1 27 50
M  V30 END BOND
M  V30 END CTAB
M  END
>  <Dataset>  (397) 
ChEMBL_Kinases

>  <Ligand_Instance>  (397) 
nan

>  <PDB_ID>  (397) 
nan

>  <Standardized_SMILES>  (397) 
CNC(=O)N(C)Cc1cccc(-c2cc3c(nc(NC)c4ncn(C)c43)[nH]2)n1

>  <Name>  (397) 
nan

>  <Pocket>  (397) 
nan

>  <ATP_Site>  (397) 
nan

>  <Peripheral>  (397) 
nan

>  <Num_H_Atoms_ProtBoundConf>  (397) 
nan

>  <Num_Resolved_Atoms>  (397) 
nan

>  <Num_Not_Resolved_Atoms>  (397) 
nan

$$$$
CHEMBL1922026
     RDKit          3D

  0  0  0  0  0  0  0  0  0  0999 V3000
M  V30 BEGIN CTAB
M  V30 COUNTS 44 47 0 0 0
M  V30 BEGIN ATOM
M  V30 1 C -0.269492 -6.614227 -2.958314 0
M  V30 2 O -0.431234 -5.229127 -2.942249 0
M  V30 3 C 0.566846 -4.282011 -3.002569 0
M  V30 4 C 1.918108 -4.516141 -3.090076 0
M  V30 5 C 2.830224 -3.471964 -3.144755 0
M  V30 6 C 2.394565 -2.144078 -3.111859 0
M  V30 7 C 1.039684 -1.860878 -3.023953 0
M  V30 8 C 0.429714 -0.505475 -2.983459 0
M  V30 9 N 0.298238 0.014929 -1.629063 0
M  V30 10 C 1.388051 0.578450 -0.890554 0
M  V30 11 O 2.549656 0.674275 -1.346628 0
M  V30 12 C 1.162515 1.076408 0.467254 0
M  V30 13 C 2.090391 1.685040 1.275499 0
M  V30 14 C 1.532377 2.020643 2.497725 0
M  V30 15 C 1.977332 2.629021 3.654818 0
M  V30 16 C 1.077047 2.793159 4.708687 0
M  V30 17 C -0.233583 2.370294 4.633486 0
M  V30 18 C -1.176498 2.548538 5.748722 0
M  V30 19 C -1.321504 3.507960 6.726486 0
M  V30 20 N -2.371957 3.145058 7.500590 0
M  V30 21 N -2.894326 1.993041 7.047551 0
M  V30 22 C -2.175280 1.591750 5.957287 0
M  V30 23 C -0.643775 1.763307 3.453112 0
M  V30 24 C 0.214854 1.582697 2.387926 0
M  V30 25 N -0.010997 1.013570 1.165367 0
M  V30 26 C 0.159205 -2.950788 -2.971453 0
M  V30 27 H 0.739918 -6.986887 -2.773005 0
M  V30 28 H -0.624632 -6.946878 -3.977866 0
M  V30 29 H -0.969212 -7.062422 -2.214323 0
M  V30 30 H 2.188485 -5.566093 -3.110669 0
M  V30 31 H 3.872214 -3.694572 -3.210076 0
M  V30 32 H 3.057945 -1.310549 -3.151600 0
M  V30 33 H 1.062745 0.155478 -3.611620 0
M  V30 34 H -0.590132 -0.590055 -3.397567 0
M  V30 35 H -0.625690 -0.005244 -1.131746 0
M  V30 36 H 3.110442 1.872417 0.992021 0
M  V30 37 H 3.000164 2.949396 3.693014 0
M  V30 38 H 1.420568 3.269215 5.614989 0
M  V30 39 H -0.654939 4.359281 6.769784 0
M  V30 40 H -3.723027 1.497788 7.479355 0
M  V30 41 H -2.446127 0.670055 5.443204 0
M  V30 42 H -1.684420 1.425781 3.391673 0
M  V30 43 H -0.918815 0.611245 0.844155 0
M  V30 44 H -0.917763 -2.732227 -2.901712 0
M  V30 END ATOM
M  V30 BEGIN BOND
M  V30 1 1 1 2
M  V30 2 1 2 3
M  V30 3 2 3 4
M  V30 4 1 4 5
M  V30 5 2 5 6
M  V30 6 1 6 7
M  V30 7 1 7 8
M  V30 8 1 8 9
M  V30 9 1 9 10
M  V30 10 2 10 11
M  V30 11 1 10 12
M  V30 12 2 12 13
M  V30 13 1 13 14
M  V30 14 2 14 15
M  V30 15 1 15 16
M  V30 16 2 16 17
M  V30 17 1 17 18
M  V30 18 1 18 19
M  V30 19 2 19 20
M  V30 20 1 20 21
M  V30 21 1 21 22
M  V30 22 1 17 23
M  V30 23 2 23 24
M  V30 24 1 24 25
M  V30 25 2 7 26
M  V30 26 1 26 3
M  V30 27 1 25 12
M  V30 28 1 24 14
M  V30 29 2 22 18
M  V30 30 1 1 27
M  V30 31 1 1 28
M  V30 32 1 1 29
M  V30 33 1 4 30
M  V30 34 1 5 31
M  V30 35 1 6 32
M  V30 36 1 8 33
M  V30 37 1 8 34
M  V30 38 1 9 35
M  V30 39 1 13 36
M  V30 40 1 15 37
M  V30 41 1 16 38
M  V30 42 1 19 39
M  V30 43 1 21 40
M  V30 44 1 22 41
M  V30 45 1 23 42
M  V30 46 1 25 43
M  V30 47 1 26 44
M  V30 END BOND
M  V30 END CTAB
M  END
>  <Dataset>  (398) 
ChEMBL_Kinases

>  <Ligand_Instance>  (398) 
nan

>  <PDB_ID>  (398) 
nan

>  <Standardized_SMILES>  (398) 
COc1cccc(CNC(=O)c2cc3ccc(-c4cn[nH]c4)cc3[nH]2)c1

>  <Name>  (398) 
nan

>  <Pocket>  (398) 
nan

>  <ATP_Site>  (398) 
nan

>  <Peripheral>  (398) 
nan

>  <Num_H_Atoms_ProtBoundConf>  (398) 
nan

>  <Num_Resolved_Atoms>  (398) 
nan

>  <Num_Not_Resolved_Atoms>  (398) 
nan

$$$$
CHEMBL1922034
     RDKit          3D

  0  0  0  0  0  0  0  0  0  0999 V3000
M  V30 BEGIN CTAB
M  V30 COUNTS 43 46 0 0 0
M  V30 BEGIN ATOM
M  V30 1 C -1.005132 -3.197731 1.844623 0
M  V30 2 O -0.857063 -2.515667 0.664624 0
M  V30 3 C -0.193771 -2.871948 -0.472692 0
M  V30 4 C 0.431736 -4.087758 -0.534878 0
M  V30 5 C 1.094401 -4.403610 -1.712550 0
M  V30 6 C 1.179809 -3.592464 -2.820123 0
M  V30 7 C 0.577862 -2.358046 -2.821158 0
M  V30 8 C 0.427432 -1.050015 -3.594718 0
M  V30 9 N 1.319747 -0.140537 -2.829992 0
M  V30 10 C 2.193252 0.748524 -2.083633 0
M  V30 11 O 3.183711 0.955847 -2.828449 0
M  V30 12 C 1.646143 1.089854 -0.745611 0
M  V30 13 C 2.632122 0.747695 0.165865 0
M  V30 14 C 2.067452 0.942378 1.440648 0
M  V30 15 C 2.405424 0.757017 2.759566 0
M  V30 16 C 1.440829 1.031276 3.751558 0
M  V30 17 C 0.189524 1.473786 3.416351 0
M  V30 18 C -0.822884 1.740534 4.429529 0
M  V30 19 C -2.116906 2.173610 4.236940 0
M  V30 20 N -2.788961 2.254807 5.401581 0
M  V30 21 N -1.951040 1.877205 6.371216 0
M  V30 22 C -0.733713 1.553329 5.813491 0
M  V30 23 N -0.140533 1.657376 2.109587 0
M  V30 24 C 0.781801 1.396833 1.136852 0
M  V30 25 N 0.510359 1.492149 -0.183923 0
M  V30 26 C -0.110803 -2.039422 -1.610879 0
M  V30 27 H -0.092411 -3.767276 2.101254 0
M  V30 28 H -1.934146 -3.794565 1.933300 0
M  V30 29 H -1.110177 -2.422080 2.663568 0
M  V30 30 H 0.458642 -4.826308 0.234591 0
M  V30 31 H 1.628611 -5.319925 -1.912416 0
M  V30 32 H 1.613389 -3.609255 -3.805360 0
M  V30 33 H 0.950547 -1.172854 -4.579520 0
M  V30 34 H -0.553586 -0.761263 -3.722886 0
M  V30 35 H 0.484983 -0.126662 -2.154975 0
M  V30 36 H 3.659869 0.390082 0.225068 0
M  V30 37 H 3.421577 0.401048 2.972459 0
M  V30 38 H 1.746263 0.878710 4.792857 0
M  V30 39 H -2.494227 2.416640 3.237894 0
M  V30 40 H -2.296011 1.869882 7.349073 0
M  V30 41 H 0.106989 1.208350 6.372884 0
M  V30 42 H -0.265417 1.769437 -0.818845 0
M  V30 43 H -0.710726 -1.148365 -1.303979 0
M  V30 END ATOM
M  V30 BEGIN BOND
M  V30 1 1 1 2
M  V30 2 1 2 3
M  V30 3 2 3 4
M  V30 4 1 4 5
M  V30 5 2 5 6
M  V30 6 1 6 7
M  V30 7 1 7 8
M  V30 8 1 8 9
M  V30 9 1 9 10
M  V30 10 2 10 11
M  V30 11 1 10 12
M  V30 12 2 12 13
M  V30 13 1 13 14
M  V30 14 2 14 15
M  V30 15 1 15 16
M  V30 16 2 16 17
M  V30 17 1 17 18
M  V30 18 1 18 19
M  V30 19 2 19 20
M  V30 20 1 20 21
M  V30 21 1 21 22
M  V30 22 1 17 23
M  V30 23 2 23 24
M  V30 24 1 24 25
M  V30 25 2 7 26
M  V30 26 1 26 3
M  V30 27 1 25 12
M  V30 28 1 24 14
M  V30 29 2 22 18
M  V30 30 1 1 27
M  V30 31 1 1 28
M  V30 32 1 1 29
M  V30 33 1 4 30
M  V30 34 1 5 31
M  V30 35 1 6 32
M  V30 36 1 8 33
M  V30 37 1 8 34
M  V30 38 1 9 35
M  V30 39 1 13 36
M  V30 40 1 15 37
M  V30 41 1 16 38
M  V30 42 1 19 39
M  V30 43 1 21 40
M  V30 44 1 22 41
M  V30 45 1 25 42
M  V30 46 1 26 43
M  V30 END BOND
M  V30 END CTAB
M  END
>  <Dataset>  (399) 
ChEMBL_Kinases

>  <Ligand_Instance>  (399) 
nan

>  <PDB_ID>  (399) 
nan

>  <Standardized_SMILES>  (399) 
COc1cccc(CNC(=O)c2cc3ccc(-c4cn[nH]c4)nc3[nH]2)c1

>  <Name>  (399) 
nan

>  <Pocket>  (399) 
nan

>  <ATP_Site>  (399) 
nan

>  <Peripheral>  (399) 
nan

>  <Num_H_Atoms_ProtBoundConf>  (399) 
nan

>  <Num_Resolved_Atoms>  (399) 
nan

>  <Num_Not_Resolved_Atoms>  (399) 
nan

$$$$
CHEMBL1922132
     RDKit          3D

  0  0  0  0  0  0  0  0  0  0999 V3000
M  V30 BEGIN CTAB
M  V30 COUNTS 43 46 0 0 0
M  V30 BEGIN ATOM
M  V30 1 C -2.681953 -4.616349 0.762496 0
M  V30 2 O -2.426564 -3.509170 -0.082647 0
M  V30 3 C -1.147223 -3.428066 -0.651279 0
M  V30 4 C -0.111198 -4.331331 -0.464297 0
M  V30 5 C 1.087571 -4.118104 -1.087258 0
M  V30 6 C 1.347814 -3.058848 -1.897885 0
M  V30 7 C 0.349971 -2.119077 -2.124023 0
M  V30 8 C 0.441614 -0.871223 -2.948846 0
M  V30 9 N 0.804113 0.211054 -2.013637 0
M  V30 10 C 2.137128 0.369102 -1.532087 0
M  V30 11 O 3.119596 -0.343849 -1.837831 0
M  V30 12 C 2.333788 1.486241 -0.584196 0
M  V30 13 C 2.978116 2.703146 -0.501273 0
M  V30 14 N 2.730360 3.224330 0.713459 0
M  V30 15 C 1.939803 2.394155 1.446825 0
M  V30 16 N 1.459342 2.536350 2.712879 0
M  V30 17 C 0.683842 1.591247 3.273189 0
M  V30 18 C 0.164314 1.717305 4.629616 0
M  V30 19 C 0.347805 2.746140 5.540835 0
M  V30 20 N -0.302075 2.470308 6.683109 0
M  V30 21 N -0.885329 1.299067 6.510155 0
M  V30 22 C -0.634003 0.802676 5.285418 0
M  V30 23 C 0.377244 0.464111 2.541839 0
M  V30 24 C 0.871175 0.336960 1.263717 0
M  V30 25 C 1.679980 1.285217 0.634095 0
M  V30 26 C -0.870255 -2.342980 -1.486174 0
M  V30 27 H -2.649463 -5.535435 0.160132 0
M  V30 28 H -3.657382 -4.499522 1.292807 0
M  V30 29 H -1.846393 -4.663185 1.498607 0
M  V30 30 H -0.339127 -5.152320 0.175995 0
M  V30 31 H 1.899519 -4.826991 -0.938681 0
M  V30 32 H 2.279532 -2.864714 -2.406647 0
M  V30 33 H 1.190483 -0.926699 -3.736613 0
M  V30 34 H -0.557986 -0.654540 -3.337816 0
M  V30 35 H 0.042065 0.885288 -1.697281 0
M  V30 36 H 3.519062 2.973320 -1.380356 0
M  V30 37 H 3.142484 4.160906 0.967778 0
M  V30 38 H 0.942121 3.651128 5.344270 0
M  V30 39 H -1.474745 0.824911 7.259260 0
M  V30 40 H -1.009210 -0.139151 4.926257 0
M  V30 41 H -0.241132 -0.342527 2.919282 0
M  V30 42 H 0.629513 -0.545023 0.693497 0
M  V30 43 H -1.689353 -1.623241 -1.637897 0
M  V30 END ATOM
M  V30 BEGIN BOND
M  V30 1 1 1 2
M  V30 2 1 2 3
M  V30 3 2 3 4
M  V30 4 1 4 5
M  V30 5 2 5 6
M  V30 6 1 6 7
M  V30 7 1 7 8
M  V30 8 1 8 9
M  V30 9 1 9 10
M  V30 10 2 10 11
M  V30 11 1 10 12
M  V30 12 2 12 13
M  V30 13 1 13 14
M  V30 14 1 14 15
M  V30 15 2 15 16
M  V30 16 1 16 17
M  V30 17 1 17 18
M  V30 18 1 18 19
M  V30 19 2 19 20
M  V30 20 1 20 21
M  V30 21 1 21 22
M  V30 22 2 17 23
M  V30 23 1 23 24
M  V30 24 2 24 25
M  V30 25 2 7 26
M  V30 26 1 26 3
M  V30 27 1 25 12
M  V30 28 1 25 15
M  V30 29 2 22 18
M  V30 30 1 1 27
M  V30 31 1 1 28
M  V30 32 1 1 29
M  V30 33 1 4 30
M  V30 34 1 5 31
M  V30 35 1 6 32
M  V30 36 1 8 33
M  V30 37 1 8 34
M  V30 38 1 9 35
M  V30 39 1 13 36
M  V30 40 1 14 37
M  V30 41 1 19 38
M  V30 42 1 21 39
M  V30 43 1 22 40
M  V30 44 1 23 41
M  V30 45 1 24 42
M  V30 46 1 26 43
M  V30 END BOND
M  V30 END CTAB
M  END
>  <Dataset>  (400) 
ChEMBL_Kinases

>  <Ligand_Instance>  (400) 
nan

>  <PDB_ID>  (400) 
nan

>  <Standardized_SMILES>  (400) 
COc1cccc(CNC(=O)c2c[nH]c3nc(-c4cn[nH]c4)ccc23)c1

>  <Name>  (400) 
nan

>  <Pocket>  (400) 
nan

>  <ATP_Site>  (400) 
nan

>  <Peripheral>  (400) 
nan

>  <Num_H_Atoms_ProtBoundConf>  (400) 
nan

>  <Num_Resolved_Atoms>  (400) 
nan

>  <Num_Not_Resolved_Atoms>  (400) 
nan

$$$$
CHEMBL1923164
     RDKit          3D

  0  0  0  0  0  0  0  0  0  0999 V3000
M  V30 BEGIN CTAB
M  V30 COUNTS 45 48 0 0 0
M  V30 BEGIN ATOM
M  V30 1 C 6.723768 -3.990293 -0.452601 0
M  V30 2 O 6.081468 -2.760951 -0.730072 0
M  V30 3 C 4.849168 -2.723517 -1.385755 0
M  V30 4 C 4.301007 -3.937532 -1.742619 0
M  V30 5 C 3.084869 -3.929918 -2.391268 0
M  V30 6 C 2.496336 -2.684452 -2.639296 0
M  V30 7 C 3.053312 -1.451957 -2.276679 0
M  V30 8 C 2.269797 -0.240769 -2.632900 0
M  V30 9 N 1.375331 0.052324 -1.550582 0
M  V30 10 C 1.685479 0.653233 -0.307134 0
M  V30 11 O 2.851858 0.992658 -0.057833 0
M  V30 12 C 0.631509 0.872895 0.680589 0
M  V30 13 C 0.817328 1.452783 1.919583 0
M  V30 14 C -0.417792 1.478555 2.548183 0
M  V30 15 C -0.914799 1.911318 3.766138 0
M  V30 16 N -2.211962 1.798013 4.106117 0
M  V30 17 C -3.125071 1.252100 3.280845 0
M  V30 18 C -4.529980 1.134651 3.662538 0
M  V30 19 C -5.521219 0.589264 2.874458 0
M  V30 20 C -6.825011 0.519629 3.318934 0
M  V30 21 N -7.185317 0.978497 4.534750 0
M  V30 22 C -6.222586 1.511465 5.307778 0
M  V30 23 C -4.903716 1.605494 4.912138 0
M  V30 24 C -2.654088 0.813179 2.060702 0
M  V30 25 C -1.326030 0.909595 1.667682 0
M  V30 26 N -0.675476 0.541715 0.527120 0
M  V30 27 C 4.256579 -1.505508 -1.637501 0
M  V30 28 H 7.569257 -3.819716 0.233884 0
M  V30 29 H 7.086342 -4.497874 -1.354696 0
M  V30 30 H 6.031005 -4.706740 0.074002 0
M  V30 31 H 4.781638 -4.881460 -1.535856 0
M  V30 32 H 2.570402 -4.822034 -2.712917 0
M  V30 33 H 1.527171 -2.705163 -3.157582 0
M  V30 34 H 2.983247 0.583204 -2.844440 0
M  V30 35 H 1.747418 -0.445274 -3.575178 0
M  V30 36 H 0.357238 -0.215065 -1.704137 0
M  V30 37 H 1.729397 1.828952 2.358025 0
M  V30 38 H -0.215985 2.360593 4.469487 0
M  V30 39 H -5.251183 0.218306 1.900662 0
M  V30 40 H -7.580167 0.086659 2.678486 0
M  V30 41 H -6.579714 1.860318 6.270175 0
M  V30 42 H -4.173564 2.047065 5.585622 0
M  V30 43 H -3.302342 0.367756 1.342819 0
M  V30 44 H -1.106523 0.086199 -0.313681 0
M  V30 45 H 4.690435 -0.561199 -1.357845 0
M  V30 END ATOM
M  V30 BEGIN BOND
M  V30 1 1 1 2
M  V30 2 1 2 3
M  V30 3 2 3 4
M  V30 4 1 4 5
M  V30 5 2 5 6
M  V30 6 1 6 7
M  V30 7 1 7 8
M  V30 8 1 8 9
M  V30 9 1 9 10
M  V30 10 2 10 11
M  V30 11 1 10 12
M  V30 12 2 12 13
M  V30 13 1 13 14
M  V30 14 2 14 15
M  V30 15 1 15 16
M  V30 16 2 16 17
M  V30 17 1 17 18
M  V30 18 2 18 19
M  V30 19 1 19 20
M  V30 20 2 20 21
M  V30 21 1 21 22
M  V30 22 2 22 23
M  V30 23 1 17 24
M  V30 24 2 24 25
M  V30 25 1 25 26
M  V30 26 2 7 27
M  V30 27 1 27 3
M  V30 28 1 26 12
M  V30 29 1 25 14
M  V30 30 1 23 18
M  V30 31 1 1 28
M  V30 32 1 1 29
M  V30 33 1 1 30
M  V30 34 1 4 31
M  V30 35 1 5 32
M  V30 36 1 6 33
M  V30 37 1 8 34
M  V30 38 1 8 35
M  V30 39 1 9 36
M  V30 40 1 13 37
M  V30 41 1 15 38
M  V30 42 1 19 39
M  V30 43 1 20 40
M  V30 44 1 22 41
M  V30 45 1 23 42
M  V30 46 1 24 43
M  V30 47 1 26 44
M  V30 48 1 27 45
M  V30 END BOND
M  V30 END CTAB
M  END
>  <Dataset>  (401) 
ChEMBL_Kinases

>  <Ligand_Instance>  (401) 
nan

>  <PDB_ID>  (401) 
nan

>  <Standardized_SMILES>  (401) 
COc1cccc(CNC(=O)c2cc3cnc(-c4ccncc4)cc3[nH]2)c1

>  <Name>  (401) 
nan

>  <Pocket>  (401) 
nan

>  <ATP_Site>  (401) 
nan

>  <Peripheral>  (401) 
nan

>  <Num_H_Atoms_ProtBoundConf>  (401) 
nan

>  <Num_Resolved_Atoms>  (401) 
nan

>  <Num_Not_Resolved_Atoms>  (401) 
nan

$$$$
CHEMBL192216
     RDKit          3D

  0  0  0  0  0  0  0  0  0  0999 V3000
M  V30 BEGIN CTAB
M  V30 COUNTS 41 43 0 0 0
M  V30 BEGIN ATOM
M  V30 1 C -1.228866 -2.628442 -0.747894 0
M  V30 2 C -2.102614 -3.335456 0.217627 0
M  V30 3 C -3.547022 -3.334442 -0.276438 0
M  V30 4 C -2.109113 -2.872203 1.623178 0
M  V30 5 O -0.889345 -2.963884 2.246617 0
M  V30 6 C 0.268261 -2.346484 1.981516 0
M  V30 7 N 0.784386 -1.455461 1.133457 0
M  V30 8 C 2.022752 -0.986969 1.080139 0
M  V30 9 N 2.051862 -0.066384 -0.000671 0
M  V30 10 C 1.930346 1.339330 0.133175 0
M  V30 11 C 1.851519 2.028364 1.321697 0
M  V30 12 C 1.737859 3.400208 1.373115 0
M  V30 13 C 1.700338 4.115494 0.201381 0
M  V30 14 N 1.596585 5.431402 -0.109467 0
M  V30 15 C 1.603808 5.635448 -1.449805 0
M  V30 16 N 1.716857 4.402791 -2.028092 0
M  V30 17 C 1.776306 3.474516 -1.047258 0
M  V30 18 C 1.889526 2.098902 -1.049645 0
M  V30 19 N 2.926750 -1.403189 1.942755 0
M  V30 20 C 2.552066 -2.306873 2.863680 0
M  V30 21 C 1.238738 -2.779416 2.890264 0
M  V30 22 C 0.998748 -3.787004 3.971414 0
M  V30 23 F 0.594271 -4.988984 3.378307 0
M  V30 24 F 2.080766 -3.972412 4.769461 0
M  V30 25 F -0.041854 -3.371824 4.774282 0
M  V30 26 H -1.650596 -2.794513 -1.799081 0
M  V30 27 H -1.242141 -1.518353 -0.631926 0
M  V30 28 H -0.202402 -3.026949 -0.829572 0
M  V30 29 H -1.802185 -4.431395 0.192350 0
M  V30 30 H -3.784417 -2.331253 -0.688508 0
M  V30 31 H -3.628412 -4.094830 -1.069489 0
M  V30 32 H -4.192884 -3.595671 0.562346 0
M  V30 33 H -2.482537 -1.788917 1.596103 0
M  V30 34 H -2.927663 -3.380302 2.209422 0
M  V30 35 H 2.168676 -0.512138 -0.932758 0
M  V30 36 H 1.885383 1.404664 2.206279 0
M  V30 37 H 1.679546 3.916092 2.342724 0
M  V30 38 H 1.519337 6.213483 0.605999 0
M  V30 39 H 1.533968 6.579286 -1.971863 0
M  V30 40 H 1.949693 1.575995 -2.000763 0
M  V30 41 H 3.326540 -2.638279 3.571025 0
M  V30 END ATOM
M  V30 BEGIN BOND
M  V30 1 1 1 2
M  V30 2 1 2 3
M  V30 3 1 2 4
M  V30 4 1 4 5
M  V30 5 1 5 6
M  V30 6 2 6 7
M  V30 7 1 7 8
M  V30 8 1 8 9
M  V30 9 1 9 10
M  V30 10 2 10 11
M  V30 11 1 11 12
M  V30 12 2 12 13
M  V30 13 1 13 14
M  V30 14 1 14 15
M  V30 15 2 15 16
M  V30 16 1 16 17
M  V30 17 2 17 18
M  V30 18 2 8 19
M  V30 19 1 19 20
M  V30 20 2 20 21
M  V30 21 1 21 22
M  V30 22 1 22 23
M  V30 23 1 22 24
M  V30 24 1 22 25
M  V30 25 1 21 6
M  V30 26 1 18 10
M  V30 27 1 17 13
M  V30 28 1 1 26
M  V30 29 1 1 27
M  V30 30 1 1 28
M  V30 31 1 2 29
M  V30 32 1 3 30
M  V30 33 1 3 31
M  V30 34 1 3 32
M  V30 35 1 4 33
M  V30 36 1 4 34
M  V30 37 1 9 35
M  V30 38 1 11 36
M  V30 39 1 12 37
M  V30 40 1 14 38
M  V30 41 1 15 39
M  V30 42 1 18 40
M  V30 43 1 20 41
M  V30 END BOND
M  V30 END CTAB
M  END
>  <Dataset>  (402) 
ChEMBL_Kinases

>  <Ligand_Instance>  (402) 
nan

>  <PDB_ID>  (402) 
nan

>  <Standardized_SMILES>  (402) 
CC(C)COc1nc(Nc2ccc3[nH]cnc3c2)ncc1C(F)(F)F

>  <Name>  (402) 
nan

>  <Pocket>  (402) 
nan

>  <ATP_Site>  (402) 
nan

>  <Peripheral>  (402) 
nan

>  <Num_H_Atoms_ProtBoundConf>  (402) 
nan

>  <Num_Resolved_Atoms>  (402) 
nan

>  <Num_Not_Resolved_Atoms>  (402) 
nan

$$$$
CHEMBL192256
     RDKit          3D

  0  0  0  0  0  0  0  0  0  0999 V3000
M  V30 BEGIN CTAB
M  V30 COUNTS 47 50 0 0 0
M  V30 BEGIN ATOM
M  V30 1 C -1.828219 -5.160551 1.708776 0
M  V30 2 N -1.598009 -5.185907 0.296764 0
M  V30 3 C -0.200671 -4.995639 -0.042372 0
M  V30 4 C 0.277025 -3.605696 0.260580 0
M  V30 5 C -0.670356 -2.547335 -0.244479 0
M  V30 6 C -0.249607 -1.237336 0.255921 0
M  V30 7 N 0.501737 -0.305623 -0.398244 0
M  V30 8 C 0.709176 0.809620 0.359107 0
M  V30 9 C 1.504380 1.880759 -0.205429 0
M  V30 10 C 0.996353 2.693216 -1.227584 0
M  V30 11 C 1.787360 3.713169 -1.769533 0
M  V30 12 C 3.096037 3.953337 -1.314149 0
M  V30 13 F 3.877721 4.929768 -1.817840 0
M  V30 14 C 3.465342 3.089416 -0.315129 0
M  V30 15 C 2.803827 2.060231 0.301640 0
M  V30 16 C 0.066411 0.605669 1.563119 0
M  V30 17 C 0.090904 1.616159 2.609284 0
M  V30 18 C -0.399433 2.927952 2.534994 0
M  V30 19 C -0.297709 3.769373 3.639879 0
M  V30 20 N 0.250885 3.402151 4.799957 0
M  V30 21 C 0.742641 2.172037 4.955786 0
M  V30 22 C 0.643143 1.341906 3.867651 0
M  V30 23 C -0.509158 -0.649545 1.474160 0
M  V30 24 Br -1.491347 -1.352557 2.926393 0
M  V30 25 C -2.113853 -2.839754 -0.038464 0
M  V30 26 C -2.422796 -4.265561 -0.454088 0
M  V30 27 H -2.284944 -6.154764 1.988773 0
M  V30 28 H -0.866530 -5.123717 2.301643 0
M  V30 29 H -2.534248 -4.409631 2.068668 0
M  V30 30 H 0.411942 -5.692226 0.583763 0
M  V30 31 H -0.075810 -5.281321 -1.099928 0
M  V30 32 H 1.236928 -3.452445 -0.277637 0
M  V30 33 H 0.508628 -3.488427 1.332141 0
M  V30 34 H -0.519381 -2.535111 -1.370087 0
M  V30 35 H 0.845675 -0.506828 -1.386357 0
M  V30 36 H -0.009197 2.518819 -1.585788 0
M  V30 37 H 1.382599 4.328284 -2.553765 0
M  V30 38 H 4.476300 3.259018 0.048631 0
M  V30 39 H 3.235282 1.472982 1.073992 0
M  V30 40 H -0.835854 3.194243 1.581190 0
M  V30 41 H -0.730281 4.743774 3.400631 0
M  V30 42 H 1.201034 1.797573 5.855063 0
M  V30 43 H 1.037093 0.322278 3.966880 0
M  V30 44 H -2.692026 -2.164783 -0.736010 0
M  V30 45 H -2.516086 -2.703625 0.958371 0
M  V30 46 H -3.484775 -4.450827 -0.232073 0
M  V30 47 H -2.228050 -4.436796 -1.523205 0
M  V30 END ATOM
M  V30 BEGIN BOND
M  V30 1 1 1 2
M  V30 2 1 2 3
M  V30 3 1 3 4
M  V30 4 1 4 5
M  V30 5 1 5 6
M  V30 6 1 6 7
M  V30 7 1 7 8
M  V30 8 1 8 9
M  V30 9 2 9 10
M  V30 10 1 10 11
M  V30 11 2 11 12
M  V30 12 1 12 13
M  V30 13 1 12 14
M  V30 14 2 14 15
M  V30 15 2 8 16
M  V30 16 1 16 17
M  V30 17 2 17 18
M  V30 18 1 18 19
M  V30 19 2 19 20
M  V30 20 1 20 21
M  V30 21 2 21 22
M  V30 22 1 16 23
M  V30 23 1 23 24
M  V30 24 1 5 25
M  V30 25 1 25 26
M  V30 26 1 26 2
M  V30 27 2 23 6
M  V30 28 1 15 9
M  V30 29 1 22 17
M  V30 30 1 1 27
M  V30 31 1 1 28
M  V30 32 1 1 29
M  V30 33 1 3 30
M  V30 34 1 3 31
M  V30 35 1 4 32
M  V30 36 1 4 33
M  V30 37 1 5 34
M  V30 38 1 7 35
M  V30 39 1 10 36
M  V30 40 1 11 37
M  V30 41 1 14 38
M  V30 42 1 15 39
M  V30 43 1 18 40
M  V30 44 1 19 41
M  V30 45 1 21 42
M  V30 46 1 22 43
M  V30 47 1 25 44
M  V30 48 1 25 45
M  V30 49 1 26 46
M  V30 50 1 26 47
M  V30 END BOND
M  V30 END CTAB
M  END
>  <Dataset>  (403) 
ChEMBL_Kinases

>  <Ligand_Instance>  (403) 
nan

>  <PDB_ID>  (403) 
nan

>  <Standardized_SMILES>  (403) 
CN1CCC(c2[nH]c(-c3ccc(F)cc3)c(-c3ccncc3)c2Br)CC1

>  <Name>  (403) 
nan

>  <Pocket>  (403) 
nan

>  <ATP_Site>  (403) 
nan

>  <Peripheral>  (403) 
nan

>  <Num_H_Atoms_ProtBoundConf>  (403) 
nan

>  <Num_Resolved_Atoms>  (403) 
nan

>  <Num_Not_Resolved_Atoms>  (403) 
nan

$$$$
CHEMBL1923052
     RDKit          3D

  0  0  0  0  0  0  0  0  0  0999 V3000
M  V30 BEGIN CTAB
M  V30 COUNTS 46 49 0 0 0
M  V30 BEGIN ATOM
M  V30 1 C 4.917000 -5.092927 -1.168504 0
M  V30 2 O 4.390187 -4.736222 -2.452411 0
M  V30 3 C 3.987488 -3.444942 -2.738008 0
M  V30 4 C 3.499697 -3.239921 -4.012930 0
M  V30 5 C 3.077237 -1.983680 -4.380159 0
M  V30 6 C 3.134586 -0.928691 -3.493297 0
M  V30 7 C 3.616831 -1.102307 -2.213071 0
M  V30 8 C 3.711067 -0.021723 -1.206244 0
M  V30 9 N 2.545134 0.131190 -0.387066 0
M  V30 10 C 1.316248 0.736518 -0.766638 0
M  V30 11 O 1.172005 1.205269 -1.924569 0
M  V30 12 C 0.181172 0.843715 0.148562 0
M  V30 13 C -1.019067 1.434151 -0.212642 0
M  V30 14 C -1.848768 1.349018 0.912086 0
M  V30 15 C -3.146109 1.787199 1.078991 0
M  V30 16 C -3.737028 1.572524 2.308621 0
M  V30 17 C -3.073133 0.945998 3.343585 0
M  V30 18 C -3.768320 0.751209 4.626819 0
M  V30 19 C -3.077433 0.745201 5.822335 0
M  V30 20 C -3.785189 0.555883 7.011002 0
M  V30 21 N -5.138401 0.382903 6.950702 0
M  V30 22 C -5.790077 0.392794 5.771713 0
M  V30 23 C -5.130992 0.576430 4.573748 0
M  V30 24 C -1.757130 0.506478 3.160689 0
M  V30 25 C -1.154029 0.719208 1.923431 0
M  V30 26 N 0.061599 0.431741 1.424278 0
M  V30 27 C 4.033193 -2.369986 -1.870950 0
M  V30 28 H 5.977046 -4.735368 -1.197514 0
M  V30 29 H 4.929322 -6.178321 -1.033377 0
M  V30 30 H 4.348587 -4.645465 -0.351803 0
M  V30 31 H 3.431197 -4.035804 -4.754723 0
M  V30 32 H 2.686840 -1.783862 -5.375677 0
M  V30 33 H 2.802107 0.036277 -3.800322 0
M  V30 34 H 3.977217 0.931459 -1.707020 0
M  V30 35 H 4.574519 -0.258168 -0.550844 0
M  V30 36 H 2.541632 -0.226044 0.615041 0
M  V30 37 H -1.314986 1.883446 -1.147668 0
M  V30 38 H -3.684070 2.282204 0.275535 0
M  V30 39 H -4.765250 1.905671 2.480244 0
M  V30 40 H -2.005636 0.891150 5.760395 0
M  V30 41 H -3.225275 0.554461 7.933990 0
M  V30 42 H -6.866859 0.248062 5.810374 0
M  V30 43 H -5.752968 0.566347 3.689086 0
M  V30 44 H -1.228913 0.020864 3.949028 0
M  V30 45 H 0.825437 -0.054834 1.963344 0
M  V30 46 H 4.420580 -2.595574 -0.900261 0
M  V30 END ATOM
M  V30 BEGIN BOND
M  V30 1 1 1 2
M  V30 2 1 2 3
M  V30 3 2 3 4
M  V30 4 1 4 5
M  V30 5 2 5 6
M  V30 6 1 6 7
M  V30 7 1 7 8
M  V30 8 1 8 9
M  V30 9 1 9 10
M  V30 10 2 10 11
M  V30 11 1 10 12
M  V30 12 2 12 13
M  V30 13 1 13 14
M  V30 14 2 14 15
M  V30 15 1 15 16
M  V30 16 2 16 17
M  V30 17 1 17 18
M  V30 18 2 18 19
M  V30 19 1 19 20
M  V30 20 2 20 21
M  V30 21 1 21 22
M  V30 22 2 22 23
M  V30 23 1 17 24
M  V30 24 2 24 25
M  V30 25 1 25 26
M  V30 26 2 7 27
M  V30 27 1 27 3
M  V30 28 1 26 12
M  V30 29 1 25 14
M  V30 30 1 23 18
M  V30 31 1 1 28
M  V30 32 1 1 29
M  V30 33 1 1 30
M  V30 34 1 4 31
M  V30 35 1 5 32
M  V30 36 1 6 33
M  V30 37 1 8 34
M  V30 38 1 8 35
M  V30 39 1 9 36
M  V30 40 1 13 37
M  V30 41 1 15 38
M  V30 42 1 16 39
M  V30 43 1 19 40
M  V30 44 1 20 41
M  V30 45 1 22 42
M  V30 46 1 23 43
M  V30 47 1 24 44
M  V30 48 1 26 45
M  V30 49 1 27 46
M  V30 END BOND
M  V30 END CTAB
M  END
>  <Dataset>  (404) 
ChEMBL_Kinases

>  <Ligand_Instance>  (404) 
nan

>  <PDB_ID>  (404) 
nan

>  <Standardized_SMILES>  (404) 
COc1cccc(CNC(=O)c2cc3ccc(-c4ccncc4)cc3[nH]2)c1

>  <Name>  (404) 
nan

>  <Pocket>  (404) 
nan

>  <ATP_Site>  (404) 
nan

>  <Peripheral>  (404) 
nan

>  <Num_H_Atoms_ProtBoundConf>  (404) 
nan

>  <Num_Resolved_Atoms>  (404) 
nan

>  <Num_Not_Resolved_Atoms>  (404) 
nan

$$$$
CHEMBL1923053
     RDKit          3D

  0  0  0  0  0  0  0  0  0  0999 V3000
M  V30 BEGIN CTAB
M  V30 COUNTS 47 50 0 0 0
M  V30 BEGIN ATOM
M  V30 1 C 5.980545 -1.905412 4.968067 0
M  V30 2 O 5.574845 -1.395519 3.727401 0
M  V30 3 C 4.959167 -0.161003 3.610094 0
M  V30 4 C 4.709883 0.640652 4.718296 0
M  V30 5 C 4.093442 1.877031 4.602254 0
M  V30 6 C 3.704712 2.346939 3.342856 0
M  V30 7 C 3.943474 1.566731 2.234388 0
M  V30 8 C 3.601331 1.898204 0.826993 0
M  V30 9 N 2.280813 1.391828 0.548148 0
M  V30 10 C 1.029727 1.932261 0.950309 0
M  V30 11 O 0.975802 2.967091 1.627636 0
M  V30 12 C -0.226912 1.288027 0.579697 0
M  V30 13 C -1.474328 1.758594 0.935061 0
M  V30 14 C -2.437010 0.898176 0.412258 0
M  V30 15 C -3.815091 0.818955 0.414652 0
M  V30 16 C -4.491252 -0.201805 -0.223695 0
M  V30 17 C -3.775369 -1.187169 -0.893544 0
M  V30 18 C -4.369046 -2.318719 -1.607063 0
M  V30 19 C -5.717145 -2.515084 -1.681465 0
M  V30 20 C -6.301495 -3.577781 -2.350292 0
M  V30 21 N -5.474495 -4.465322 -2.961018 0
M  V30 22 C -4.131881 -4.262848 -2.882406 0
M  V30 23 N -3.189558 -5.148114 -3.496126 0
M  V30 24 N -3.604930 -3.232811 -2.232561 0
M  V30 25 C -2.400769 -1.075009 -0.874380 0
M  V30 26 C -1.685153 -0.071713 -0.248939 0
M  V30 27 N -0.362840 0.164505 -0.146819 0
M  V30 28 C 4.566541 0.325464 2.383624 0
M  V30 29 H 6.907515 -1.422871 5.373842 0
M  V30 30 H 6.200441 -2.995612 4.806619 0
M  V30 31 H 5.176733 -1.853944 5.726478 0
M  V30 32 H 5.008460 0.284439 5.703932 0
M  V30 33 H 3.887025 2.523098 5.451596 0
M  V30 34 H 3.221701 3.296019 3.166000 0
M  V30 35 H 3.538106 3.005726 0.730476 0
M  V30 36 H 4.325806 1.513838 0.110622 0
M  V30 37 H 2.214233 0.503177 -0.029544 0
M  V30 38 H -1.729178 2.645025 1.522497 0
M  V30 39 H -4.354236 1.586003 0.935399 0
M  V30 40 H -5.554928 -0.279296 -0.232516 0
M  V30 41 H -6.404130 -1.847779 -1.219723 0
M  V30 42 H -7.369366 -3.717696 -2.399051 0
M  V30 43 H -2.284861 -4.808391 -3.874343 0
M  V30 44 H -3.514179 -6.139600 -3.514787 0
M  V30 45 H -1.814000 -1.829250 -1.388525 0
M  V30 46 H 0.391532 -0.426489 -0.561248 0
M  V30 47 H 4.780404 -0.336815 1.530444 0
M  V30 END ATOM
M  V30 BEGIN BOND
M  V30 1 1 1 2
M  V30 2 1 2 3
M  V30 3 2 3 4
M  V30 4 1 4 5
M  V30 5 2 5 6
M  V30 6 1 6 7
M  V30 7 1 7 8
M  V30 8 1 8 9
M  V30 9 1 9 10
M  V30 10 2 10 11
M  V30 11 1 10 12
M  V30 12 2 12 13
M  V30 13 1 13 14
M  V30 14 2 14 15
M  V30 15 1 15 16
M  V30 16 2 16 17
M  V30 17 1 17 18
M  V30 18 2 18 19
M  V30 19 1 19 20
M  V30 20 2 20 21
M  V30 21 1 21 22
M  V30 22 1 22 23
M  V30 23 2 22 24
M  V30 24 1 17 25
M  V30 25 2 25 26
M  V30 26 1 26 27
M  V30 27 2 7 28
M  V30 28 1 28 3
M  V30 29 1 27 12
M  V30 30 1 26 14
M  V30 31 1 24 18
M  V30 32 1 1 29
M  V30 33 1 1 30
M  V30 34 1 1 31
M  V30 35 1 4 32
M  V30 36 1 5 33
M  V30 37 1 6 34
M  V30 38 1 8 35
M  V30 39 1 8 36
M  V30 40 1 9 37
M  V30 41 1 13 38
M  V30 42 1 15 39
M  V30 43 1 16 40
M  V30 44 1 19 41
M  V30 45 1 20 42
M  V30 46 1 23 43
M  V30 47 1 23 44
M  V30 48 1 25 45
M  V30 49 1 27 46
M  V30 50 1 28 47
M  V30 END BOND
M  V30 END CTAB
M  END
>  <Dataset>  (405) 
ChEMBL_Kinases

>  <Ligand_Instance>  (405) 
nan

>  <PDB_ID>  (405) 
nan

>  <Standardized_SMILES>  (405) 
COc1cccc(CNC(=O)c2cc3ccc(-c4ccnc(N)n4)cc3[nH]2)c1

>  <Name>  (405) 
nan

>  <Pocket>  (405) 
nan

>  <ATP_Site>  (405) 
nan

>  <Peripheral>  (405) 
nan

>  <Num_H_Atoms_ProtBoundConf>  (405) 
nan

>  <Num_Resolved_Atoms>  (405) 
nan

>  <Num_Not_Resolved_Atoms>  (405) 
nan

$$$$
CHEMBL1923161
     RDKit          3D

  0  0  0  0  0  0  0  0  0  0999 V3000
M  V30 BEGIN CTAB
M  V30 COUNTS 48 51 0 0 0
M  V30 BEGIN ATOM
M  V30 1 C -0.505141 -7.178587 0.971371 0
M  V30 2 O -0.174026 -6.623547 2.220361 0
M  V30 3 C -0.679438 -5.425129 2.702685 0
M  V30 4 C -0.187405 -5.104997 3.967986 0
M  V30 5 C -0.613309 -3.921630 4.576563 0
M  V30 6 C -1.502145 -3.070166 3.959177 0
M  V30 7 C -1.975087 -3.407460 2.708588 0
M  V30 8 C -2.929849 -2.611051 1.902511 0
M  V30 9 N -2.298678 -1.666054 1.029213 0
M  V30 10 C -1.725814 -0.426724 1.431771 0
M  V30 11 O -1.721949 -0.039234 2.628195 0
M  V30 12 C -1.116169 0.428882 0.404067 0
M  V30 13 C -0.501206 1.650485 0.585520 0
M  V30 14 C -0.057632 2.135726 -0.640643 0
M  V30 15 C 0.610873 3.276480 -1.085559 0
M  V30 16 C 0.895019 3.419081 -2.449120 0
M  V30 17 C 0.526127 2.447956 -3.376238 0
M  V30 18 C 0.816235 2.582509 -4.800873 0
M  V30 19 C 1.041604 1.442341 -5.545775 0
M  V30 20 C 1.326643 1.483209 -6.914200 0
M  V30 21 N 1.378005 2.696490 -7.507476 0
M  V30 22 C 1.165666 3.836548 -6.824413 0
M  V30 23 N 1.230957 5.102798 -7.500245 0
M  V30 24 C 0.883880 3.806008 -5.474188 0
M  V30 25 C -0.134746 1.320813 -2.933659 0
M  V30 26 C -0.417241 1.181315 -1.569895 0
M  V30 27 N -1.044802 0.179080 -0.916580 0
M  V30 28 C -1.568987 -4.570850 2.087305 0
M  V30 29 H 0.397304 -7.733851 0.580402 0
M  V30 30 H -0.750521 -6.346782 0.277421 0
M  V30 31 H -1.370281 -7.867593 1.077264 0
M  V30 32 H 0.517044 -5.719826 4.526515 0
M  V30 33 H -0.247550 -3.643604 5.563578 0
M  V30 34 H -1.861258 -2.144297 4.389622 0
M  V30 35 H -3.596005 -2.007407 2.587640 0
M  V30 36 H -3.646188 -3.234483 1.330384 0
M  V30 37 H -2.252888 -1.908558 -0.004413 0
M  V30 38 H -0.364961 2.179096 1.511076 0
M  V30 39 H 0.881530 4.006061 -0.348185 0
M  V30 40 H 1.411173 4.299658 -2.794201 0
M  V30 41 H 1.014565 0.448695 -5.134013 0
M  V30 42 H 1.505633 0.596555 -7.511367 0
M  V30 43 H 2.107646 5.671646 -7.424835 0
M  V30 44 H 0.546822 5.612427 -8.090432 0
M  V30 45 H 0.704856 4.688932 -4.877129 0
M  V30 46 H -0.431538 0.546872 -3.653158 0
M  V30 47 H -1.418303 -0.668919 -1.391966 0
M  V30 48 H -1.903413 -4.890853 1.108309 0
M  V30 END ATOM
M  V30 BEGIN BOND
M  V30 1 1 1 2
M  V30 2 1 2 3
M  V30 3 2 3 4
M  V30 4 1 4 5
M  V30 5 2 5 6
M  V30 6 1 6 7
M  V30 7 1 7 8
M  V30 8 1 8 9
M  V30 9 1 9 10
M  V30 10 2 10 11
M  V30 11 1 10 12
M  V30 12 2 12 13
M  V30 13 1 13 14
M  V30 14 2 14 15
M  V30 15 1 15 16
M  V30 16 2 16 17
M  V30 17 1 17 18
M  V30 18 2 18 19
M  V30 19 1 19 20
M  V30 20 2 20 21
M  V30 21 1 21 22
M  V30 22 1 22 23
M  V30 23 2 22 24
M  V30 24 1 17 25
M  V30 25 2 25 26
M  V30 26 1 26 27
M  V30 27 2 7 28
M  V30 28 1 28 3
M  V30 29 1 27 12
M  V30 30 1 26 14
M  V30 31 1 24 18
M  V30 32 1 1 29
M  V30 33 1 1 30
M  V30 34 1 1 31
M  V30 35 1 4 32
M  V30 36 1 5 33
M  V30 37 1 6 34
M  V30 38 1 8 35
M  V30 39 1 8 36
M  V30 40 1 9 37
M  V30 41 1 13 38
M  V30 42 1 15 39
M  V30 43 1 16 40
M  V30 44 1 19 41
M  V30 45 1 20 42
M  V30 46 1 23 43
M  V30 47 1 23 44
M  V30 48 1 24 45
M  V30 49 1 25 46
M  V30 50 1 27 47
M  V30 51 1 28 48
M  V30 END BOND
M  V30 END CTAB
M  END
>  <Dataset>  (406) 
ChEMBL_Kinases

>  <Ligand_Instance>  (406) 
nan

>  <PDB_ID>  (406) 
nan

>  <Standardized_SMILES>  (406) 
COc1cccc(CNC(=O)c2cc3ccc(-c4ccnc(N)c4)cc3[nH]2)c1

>  <Name>  (406) 
nan

>  <Pocket>  (406) 
nan

>  <ATP_Site>  (406) 
nan

>  <Peripheral>  (406) 
nan

>  <Num_H_Atoms_ProtBoundConf>  (406) 
nan

>  <Num_Resolved_Atoms>  (406) 
nan

>  <Num_Not_Resolved_Atoms>  (406) 
nan

$$$$
CHEMBL1923162
     RDKit          3D

  0  0  0  0  0  0  0  0  0  0999 V3000
M  V30 BEGIN CTAB
M  V30 COUNTS 43 46 0 0 0
M  V30 BEGIN ATOM
M  V30 1 C -1.872250 -7.067390 -0.744711 0
M  V30 2 O -1.910812 -5.700674 -1.021958 0
M  V30 3 C -0.898693 -4.970792 -1.629488 0
M  V30 4 C 0.310816 -5.425650 -2.069656 0
M  V30 5 C 1.237660 -4.593023 -2.661339 0
M  V30 6 C 0.983589 -3.236764 -2.840476 0
M  V30 7 C -0.241710 -2.750155 -2.400155 0
M  V30 8 C -0.630205 -1.317544 -2.535181 0
M  V30 9 N -0.252384 -0.525129 -1.387171 0
M  V30 10 C 1.052712 -0.050615 -1.067745 0
M  V30 11 O 2.035753 -0.300915 -1.808753 0
M  V30 12 C 1.290359 0.746715 0.138670 0
M  V30 13 C 2.521838 1.252052 0.501894 0
M  V30 14 C 2.317469 1.938679 1.697046 0
M  V30 15 C 3.090780 2.672618 2.603773 0
M  V30 16 N 2.525079 3.214793 3.698613 0
M  V30 17 C 1.217873 3.098830 3.998272 0
M  V30 18 C 0.643747 3.708041 5.204410 0
M  V30 19 C -0.689143 3.629203 5.575467 0
M  V30 20 N -0.758944 4.330589 6.741266 0
M  V30 21 N 0.439400 4.782961 7.027612 0
M  V30 22 C 1.372161 4.440655 6.122026 0
M  V30 23 C 0.416345 2.381960 3.129840 0
M  V30 24 C 0.975973 1.817553 2.000946 0
M  V30 25 N 0.357805 1.093060 1.051360 0
M  V30 26 C -1.166290 -3.611975 -1.803106 0
M  V30 27 H -0.987539 -7.605371 -1.103988 0
M  V30 28 H -2.744676 -7.588426 -1.236008 0
M  V30 29 H -1.996002 -7.313836 0.341572 0
M  V30 30 H 0.498776 -6.480002 -1.926071 0
M  V30 31 H 2.175501 -5.018892 -2.986799 0
M  V30 32 H 1.694231 -2.576256 -3.300001 0
M  V30 33 H -0.102762 -0.933364 -3.448549 0
M  V30 34 H -1.706720 -1.234148 -2.680825 0
M  V30 35 H -1.000124 -0.246519 -0.682931 0
M  V30 36 H 3.497762 1.184512 0.026786 0
M  V30 37 H 4.147072 2.766445 2.361917 0
M  V30 38 H -1.517605 3.136374 5.085348 0
M  V30 39 H 0.653437 5.363808 7.891480 0
M  V30 40 H 2.427774 4.674721 6.106782 0
M  V30 41 H -0.644627 2.287246 3.371701 0
M  V30 42 H -0.668824 0.836516 1.016868 0
M  V30 43 H -2.119635 -3.189269 -1.469947 0
M  V30 END ATOM
M  V30 BEGIN BOND
M  V30 1 1 1 2
M  V30 2 1 2 3
M  V30 3 2 3 4
M  V30 4 1 4 5
M  V30 5 2 5 6
M  V30 6 1 6 7
M  V30 7 1 7 8
M  V30 8 1 8 9
M  V30 9 1 9 10
M  V30 10 2 10 11
M  V30 11 1 10 12
M  V30 12 2 12 13
M  V30 13 1 13 14
M  V30 14 2 14 15
M  V30 15 1 15 16
M  V30 16 2 16 17
M  V30 17 1 17 18
M  V30 18 1 18 19
M  V30 19 2 19 20
M  V30 20 1 20 21
M  V30 21 1 21 22
M  V30 22 1 17 23
M  V30 23 2 23 24
M  V30 24 1 24 25
M  V30 25 2 7 26
M  V30 26 1 26 3
M  V30 27 1 25 12
M  V30 28 1 24 14
M  V30 29 2 22 18
M  V30 30 1 1 27
M  V30 31 1 1 28
M  V30 32 1 1 29
M  V30 33 1 4 30
M  V30 34 1 5 31
M  V30 35 1 6 32
M  V30 36 1 8 33
M  V30 37 1 8 34
M  V30 38 1 9 35
M  V30 39 1 13 36
M  V30 40 1 15 37
M  V30 41 1 19 38
M  V30 42 1 21 39
M  V30 43 1 22 40
M  V30 44 1 23 41
M  V30 45 1 25 42
M  V30 46 1 26 43
M  V30 END BOND
M  V30 END CTAB
M  END
>  <Dataset>  (407) 
ChEMBL_Kinases

>  <Ligand_Instance>  (407) 
nan

>  <PDB_ID>  (407) 
nan

>  <Standardized_SMILES>  (407) 
COc1cccc(CNC(=O)c2cc3cnc(-c4cn[nH]c4)cc3[nH]2)c1

>  <Name>  (407) 
nan

>  <Pocket>  (407) 
nan

>  <ATP_Site>  (407) 
nan

>  <Peripheral>  (407) 
nan

>  <Num_H_Atoms_ProtBoundConf>  (407) 
nan

>  <Num_Resolved_Atoms>  (407) 
nan

>  <Num_Not_Resolved_Atoms>  (407) 
nan

$$$$
CHEMBL1923163
     RDKit          3D

  0  0  0  0  0  0  0  0  0  0999 V3000
M  V30 BEGIN CTAB
M  V30 COUNTS 46 49 0 0 0
M  V30 BEGIN ATOM
M  V30 1 C 7.788224 -2.414249 0.241121 0
M  V30 2 O 6.872399 -1.472538 -0.253546 0
M  V30 3 C 5.690240 -1.852194 -0.909891 0
M  V30 4 C 5.391589 -3.186356 -1.090132 0
M  V30 5 C 4.245977 -3.545846 -1.725810 0
M  V30 6 C 3.390820 -2.543816 -2.185428 0
M  V30 7 C 3.682720 -1.200557 -2.008761 0
M  V30 8 C 2.750116 -0.145870 -2.506738 0
M  V30 9 N 1.774509 0.261655 -1.542081 0
M  V30 10 C 0.599457 -0.426692 -1.136603 0
M  V30 11 O 0.329724 -1.558164 -1.668479 0
M  V30 12 C -0.321784 0.103456 -0.131788 0
M  V30 13 C -0.184708 1.309420 0.529147 0
M  V30 14 C -1.270258 1.418791 1.392592 0
M  V30 15 C -1.732211 2.332276 2.308583 0
M  V30 16 N -2.858357 2.153261 3.021440 0
M  V30 17 C -3.639193 1.061628 2.904271 0
M  V30 18 C -4.827582 0.973143 3.722570 0
M  V30 19 C -5.167146 1.980118 4.613517 0
M  V30 20 N -6.301850 1.656213 5.242434 0
M  V30 21 N -6.737826 0.489608 4.820604 0
M  V30 22 C -5.843825 0.068547 3.894702 0
M  V30 23 C -5.924418 -1.207569 3.141874 0
M  V30 24 C -3.168751 0.158923 1.988492 0
M  V30 25 C -2.027218 0.278274 1.226818 0
M  V30 26 N -1.441459 -0.495413 0.309689 0
M  V30 27 C 4.849245 -0.851482 -1.361758 0
M  V30 28 H 8.399517 -1.915250 1.045782 0
M  V30 29 H 8.538032 -2.671428 -0.561233 0
M  V30 30 H 7.337718 -3.300852 0.694812 0
M  V30 31 H 6.047701 -3.961701 -0.737550 0
M  V30 32 H 4.023959 -4.586756 -1.860990 0
M  V30 33 H 2.495520 -2.884088 -2.685271 0
M  V30 34 H 3.343012 0.732927 -2.808194 0
M  V30 35 H 2.182459 -0.502440 -3.399585 0
M  V30 36 H 1.893657 1.186260 -1.033530 0
M  V30 37 H 0.593718 2.067657 0.437843 0
M  V30 38 H -1.168582 3.238348 2.467626 0
M  V30 39 H -4.715894 2.922168 4.881411 0
M  V30 40 H -7.591290 -0.043487 5.108920 0
M  V30 41 H -6.031589 -1.078932 2.049562 0
M  V30 42 H -5.079033 -1.892342 3.350206 0
M  V30 43 H -6.848457 -1.756808 3.504585 0
M  V30 44 H -3.727166 -0.744308 1.826665 0
M  V30 45 H -1.799594 -1.410156 -0.005414 0
M  V30 46 H 5.076173 0.210152 -1.224583 0
M  V30 END ATOM
M  V30 BEGIN BOND
M  V30 1 1 1 2
M  V30 2 1 2 3
M  V30 3 2 3 4
M  V30 4 1 4 5
M  V30 5 2 5 6
M  V30 6 1 6 7
M  V30 7 1 7 8
M  V30 8 1 8 9
M  V30 9 1 9 10
M  V30 10 2 10 11
M  V30 11 1 10 12
M  V30 12 2 12 13
M  V30 13 1 13 14
M  V30 14 2 14 15
M  V30 15 1 15 16
M  V30 16 2 16 17
M  V30 17 1 17 18
M  V30 18 1 18 19
M  V30 19 2 19 20
M  V30 20 1 20 21
M  V30 21 1 21 22
M  V30 22 1 22 23
M  V30 23 1 17 24
M  V30 24 2 24 25
M  V30 25 1 25 26
M  V30 26 2 7 27
M  V30 27 1 27 3
M  V30 28 1 26 12
M  V30 29 1 25 14
M  V30 30 2 22 18
M  V30 31 1 1 28
M  V30 32 1 1 29
M  V30 33 1 1 30
M  V30 34 1 4 31
M  V30 35 1 5 32
M  V30 36 1 6 33
M  V30 37 1 8 34
M  V30 38 1 8 35
M  V30 39 1 9 36
M  V30 40 1 13 37
M  V30 41 1 15 38
M  V30 42 1 19 39
M  V30 43 1 21 40
M  V30 44 1 23 41
M  V30 45 1 23 42
M  V30 46 1 23 43
M  V30 47 1 24 44
M  V30 48 1 26 45
M  V30 49 1 27 46
M  V30 END BOND
M  V30 END CTAB
M  END
>  <Dataset>  (408) 
ChEMBL_Kinases

>  <Ligand_Instance>  (408) 
nan

>  <PDB_ID>  (408) 
nan

>  <Standardized_SMILES>  (408) 
COc1cccc(CNC(=O)c2cc3cnc(-c4cn[nH]c4C)cc3[nH]2)c1

>  <Name>  (408) 
nan

>  <Pocket>  (408) 
nan

>  <ATP_Site>  (408) 
nan

>  <Peripheral>  (408) 
nan

>  <Num_H_Atoms_ProtBoundConf>  (408) 
nan

>  <Num_Resolved_Atoms>  (408) 
nan

>  <Num_Not_Resolved_Atoms>  (408) 
nan

$$$$
CHEMBL1922138
     RDKit          3D

  0  0  0  0  0  0  0  0  0  0999 V3000
M  V30 BEGIN CTAB
M  V30 COUNTS 55 58 0 0 0
M  V30 BEGIN ATOM
M  V30 1 C 2.616223 -1.909699 7.122336 0
M  V30 2 O 2.757548 -1.088376 5.982114 0
M  V30 3 C 3.121582 -1.509946 4.733136 0
M  V30 4 C 3.413763 -2.806031 4.366089 0
M  V30 5 C 3.776617 -3.160353 3.078101 0
M  V30 6 C 3.860897 -2.198202 2.085677 0
M  V30 7 C 3.573454 -0.893355 2.427178 0
M  V30 8 C 3.617277 0.254135 1.463811 0
M  V30 9 N 2.307436 0.410314 0.869418 0
M  V30 10 C 1.712379 -0.372031 -0.154315 0
M  V30 11 O 2.325985 -1.327443 -0.659060 0
M  V30 12 C 0.359356 -0.054462 -0.625731 0
M  V30 13 N -0.411475 0.959095 -0.152869 0
M  V30 14 C -1.581630 0.941435 -0.813973 0
M  V30 15 C -2.683323 1.763042 -0.688581 0
M  V30 16 C -3.807410 1.570733 -1.473566 0
M  V30 17 C -4.928694 2.485430 -1.278814 0
M  V30 18 C -5.885239 2.953738 -2.154960 0
M  V30 19 N -6.724676 3.781650 -1.545037 0
M  V30 20 N -6.339832 3.868671 -0.280899 0
M  V30 21 C -5.240406 3.091701 -0.063046 0
M  V30 22 C -3.772101 0.522727 -2.382766 0
M  V30 23 C -2.656974 -0.291838 -2.494825 0
M  V30 24 C -1.558991 -0.096338 -1.721388 0
M  V30 25 C -0.338463 -0.728135 -1.608293 0
M  V30 26 C 0.173217 -1.902893 -2.367086 0
M  V30 27 N 0.135555 -3.099624 -1.606947 0
M  V30 28 C -1.136914 -3.547507 -1.162955 0
M  V30 29 C 1.002464 -4.086125 -2.166529 0
M  V30 30 C 3.206675 -0.539136 3.732738 0
M  V30 31 H 1.970561 -2.796075 6.898276 0
M  V30 32 H 2.116929 -1.260703 7.885694 0
M  V30 33 H 3.621849 -2.228554 7.432851 0
M  V30 34 H 3.349002 -3.556551 5.138336 0
M  V30 35 H 4.000878 -4.195695 2.824476 0
M  V30 36 H 4.140147 -2.420808 1.068494 0
M  V30 37 H 4.351188 0.022049 0.665265 0
M  V30 38 H 3.953067 1.192061 1.920020 0
M  V30 39 H 1.718578 1.210609 1.247175 0
M  V30 40 H -0.167205 1.645953 0.589607 0
M  V30 41 H -2.682039 2.585744 0.040455 0
M  V30 42 H -5.890704 2.641580 -3.197176 0
M  V30 43 H -6.805880 4.453543 0.471342 0
M  V30 44 H -4.733597 2.991975 0.889142 0
M  V30 45 H -4.643436 0.376490 -2.989013 0
M  V30 46 H -2.641090 -1.105314 -3.205958 0
M  V30 47 H -0.401861 -2.006298 -3.312777 0
M  V30 48 H 1.234579 -1.736963 -2.675402 0
M  V30 49 H -1.226084 -4.625288 -1.454338 0
M  V30 50 H -1.131770 -3.541581 -0.056202 0
M  V30 51 H -1.976647 -2.957101 -1.588190 0
M  V30 52 H 1.065770 -5.019468 -1.557458 0
M  V30 53 H 0.784124 -4.397919 -3.195565 0
M  V30 54 H 2.062324 -3.700272 -2.180017 0
M  V30 55 H 2.982099 0.496475 3.989252 0
M  V30 END ATOM
M  V30 BEGIN BOND
M  V30 1 1 1 2
M  V30 2 1 2 3
M  V30 3 2 3 4
M  V30 4 1 4 5
M  V30 5 2 5 6
M  V30 6 1 6 7
M  V30 7 1 7 8
M  V30 8 1 8 9
M  V30 9 1 9 10
M  V30 10 2 10 11
M  V30 11 1 10 12
M  V30 12 1 12 13
M  V30 13 1 13 14
M  V30 14 2 14 15
M  V30 15 1 15 16
M  V30 16 1 16 17
M  V30 17 1 17 18
M  V30 18 2 18 19
M  V30 19 1 19 20
M  V30 20 1 20 21
M  V30 21 2 16 22
M  V30 22 1 22 23
M  V30 23 2 23 24
M  V30 24 1 24 25
M  V30 25 1 25 26
M  V30 26 1 26 27
M  V30 27 1 27 28
M  V30 28 1 27 29
M  V30 29 2 7 30
M  V30 30 1 30 3
M  V30 31 2 25 12
M  V30 32 1 24 14
M  V30 33 2 21 17
M  V30 34 1 1 31
M  V30 35 1 1 32
M  V30 36 1 1 33
M  V30 37 1 4 34
M  V30 38 1 5 35
M  V30 39 1 6 36
M  V30 40 1 8 37
M  V30 41 1 8 38
M  V30 42 1 9 39
M  V30 43 1 13 40
M  V30 44 1 15 41
M  V30 45 1 18 42
M  V30 46 1 20 43
M  V30 47 1 21 44
M  V30 48 1 22 45
M  V30 49 1 23 46
M  V30 50 1 26 47
M  V30 51 1 26 48
M  V30 52 1 28 49
M  V30 53 1 28 50
M  V30 54 1 28 51
M  V30 55 1 29 52
M  V30 56 1 29 53
M  V30 57 1 29 54
M  V30 58 1 30 55
M  V30 END BOND
M  V30 END CTAB
M  END
>  <Dataset>  (409) 
ChEMBL_Kinases

>  <Ligand_Instance>  (409) 
nan

>  <PDB_ID>  (409) 
nan

>  <Standardized_SMILES>  (409) 
COc1cccc(CNC(=O)c2[nH]c3cc(-c4cn[nH]c4)ccc3c2CN(C)C)c1

>  <Name>  (409) 
nan

>  <Pocket>  (409) 
nan

>  <ATP_Site>  (409) 
nan

>  <Peripheral>  (409) 
nan

>  <Num_H_Atoms_ProtBoundConf>  (409) 
nan

>  <Num_Resolved_Atoms>  (409) 
nan

>  <Num_Not_Resolved_Atoms>  (409) 
nan

$$$$
CHEMBL192850
     RDKit          3D

  0  0  0  0  0  0  0  0  0  0999 V3000
M  V30 BEGIN CTAB
M  V30 COUNTS 46 49 0 0 0
M  V30 BEGIN ATOM
M  V30 1 C 2.261549 -1.100189 4.295274 0
M  V30 2 C 3.079611 -1.878723 3.288679 0
M  V30 3 C 4.525159 -1.522982 3.312692 0
M  V30 4 S 2.316596 -1.800361 1.725701 0
M  V30 5 O 3.074255 -2.720270 0.772516 0
M  V30 6 O 0.928657 -2.373781 1.784046 0
M  V30 7 N 2.247700 -0.280323 0.974950 0
M  V30 8 C 3.295586 0.479680 0.605565 0
M  V30 9 N 4.689239 0.228755 0.737140 0
M  V30 10 N 2.905504 1.639412 0.029882 0
M  V30 11 C 1.555487 1.661940 0.010632 0
M  V30 12 C 0.637593 2.572225 -0.445476 0
M  V30 13 C -0.710350 2.308871 -0.323886 0
M  V30 14 C -1.130354 1.115036 0.263803 0
M  V30 15 C -2.573829 0.923629 0.348113 0
M  V30 16 N -3.266561 1.850169 1.068635 0
M  V30 17 C -4.571052 1.521019 1.039234 0
M  V30 18 N -4.736454 0.401679 0.315126 0
M  V30 19 C -3.509734 0.004179 -0.129703 0
M  V30 20 C -3.014585 -1.091269 -0.933932 0
M  V30 21 C -3.262348 -2.341234 -0.393000 0
M  V30 22 C -2.866771 -3.525870 -1.011326 0
M  V30 23 C -2.202152 -3.435698 -2.210419 0
M  V30 24 F -1.783825 -4.554611 -2.874802 0
M  V30 25 C -1.950864 -2.180914 -2.757934 0
M  V30 26 C -2.347871 -1.018334 -2.135496 0
M  V30 27 C -0.171080 0.229333 0.707893 0
M  V30 28 C 1.177183 0.470403 0.597376 0
M  V30 29 H 2.260836 -0.019796 4.144767 0
M  V30 30 H 2.505499 -1.405373 5.353147 0
M  V30 31 H 1.187919 -1.427539 4.186090 0
M  V30 32 H 3.027695 -2.953968 3.634491 0
M  V30 33 H 5.039115 -1.975328 4.212901 0
M  V30 34 H 4.695794 -0.424686 3.468176 0
M  V30 35 H 5.097214 -1.932962 2.456618 0
M  V30 36 H 5.063344 -0.435586 0.018839 0
M  V30 37 H 5.423313 0.568247 1.402114 0
M  V30 38 H 0.977619 3.488371 -0.896111 0
M  V30 39 H -1.403770 3.071933 -0.705945 0
M  V30 40 H -3.090294 2.719900 1.624152 0
M  V30 41 H -5.518850 1.891835 1.425512 0
M  V30 42 H -3.781372 -2.518492 0.552158 0
M  V30 43 H -3.053070 -4.505193 -0.601800 0
M  V30 44 H -1.427051 -2.084990 -3.704767 0
M  V30 45 H -2.191161 -0.017577 -2.493076 0
M  V30 46 H -0.520771 -0.667037 1.149347 0
M  V30 END ATOM
M  V30 BEGIN BOND
M  V30 1 1 1 2
M  V30 2 1 2 3
M  V30 3 1 2 4
M  V30 4 2 4 5
M  V30 5 2 4 6
M  V30 6 1 4 7
M  V30 7 1 7 8
M  V30 8 1 8 9
M  V30 9 2 8 10
M  V30 10 1 10 11
M  V30 11 2 11 12
M  V30 12 1 12 13
M  V30 13 2 13 14
M  V30 14 1 14 15
M  V30 15 1 15 16
M  V30 16 1 16 17
M  V30 17 2 17 18
M  V30 18 1 18 19
M  V30 19 1 19 20
M  V30 20 2 20 21
M  V30 21 1 21 22
M  V30 22 2 22 23
M  V30 23 1 23 24
M  V30 24 1 23 25
M  V30 25 2 25 26
M  V30 26 1 14 27
M  V30 27 2 27 28
M  V30 28 1 28 7
M  V30 29 1 28 11
M  V30 30 2 19 15
M  V30 31 1 26 20
M  V30 32 1 1 29
M  V30 33 1 1 30
M  V30 34 1 1 31
M  V30 35 1 2 32
M  V30 36 1 3 33
M  V30 37 1 3 34
M  V30 38 1 3 35
M  V30 39 1 9 36
M  V30 40 1 9 37
M  V30 41 1 12 38
M  V30 42 1 13 39
M  V30 43 1 16 40
M  V30 44 1 17 41
M  V30 45 1 21 42
M  V30 46 1 22 43
M  V30 47 1 25 44
M  V30 48 1 26 45
M  V30 49 1 27 46
M  V30 END BOND
M  V30 END CTAB
M  END
>  <Dataset>  (410) 
ChEMBL_Kinases

>  <Ligand_Instance>  (410) 
nan

>  <PDB_ID>  (410) 
nan

>  <Standardized_SMILES>  (410) 
CC(C)S(=O)(=O)n1c(N)nc2ccc(-c3[nH]cnc3-c3ccc(F)cc3)cc21

>  <Name>  (410) 
nan

>  <Pocket>  (410) 
nan

>  <ATP_Site>  (410) 
nan

>  <Peripheral>  (410) 
nan

>  <Num_H_Atoms_ProtBoundConf>  (410) 
nan

>  <Num_Resolved_Atoms>  (410) 
nan

>  <Num_Not_Resolved_Atoms>  (410) 
nan

$$$$
CHEMBL192627
     RDKit          3D

  0  0  0  0  0  0  0  0  0  0999 V3000
M  V30 BEGIN CTAB
M  V30 COUNTS 12 12 0 0 0
M  V30 BEGIN ATOM
M  V30 1 O -1.003328 -1.648769 1.881592 0
M  V30 2 C 0.150109 -1.306625 1.510494 0
M  V30 3 C 1.431316 -1.933186 1.813691 0
M  V30 4 Cl 1.337066 -3.353748 2.833782 0
M  V30 5 C 2.549164 -1.420693 1.325464 0
M  V30 6 Cl 3.982520 -2.329449 1.812336 0
M  V30 7 C 2.577369 -0.237733 0.481592 0
M  V30 8 O 3.710550 0.149477 0.080704 0
M  V30 9 C 1.291595 0.394118 0.175145 0
M  V30 10 Cl 1.335418 1.820018 -0.843129 0
M  V30 11 C 0.164311 -0.103977 0.654185 0
M  V30 12 Cl -1.289823 0.758035 0.202829 0
M  V30 END ATOM
M  V30 BEGIN BOND
M  V30 1 2 1 2
M  V30 2 1 2 3
M  V30 3 1 3 4
M  V30 4 2 3 5
M  V30 5 1 5 6
M  V30 6 1 5 7
M  V30 7 2 7 8
M  V30 8 1 7 9
M  V30 9 1 9 10
M  V30 10 2 9 11
M  V30 11 1 11 12
M  V30 12 1 11 2
M  V30 END BOND
M  V30 END CTAB
M  END
>  <Dataset>  (411) 
ChEMBL_Kinases

>  <Ligand_Instance>  (411) 
nan

>  <PDB_ID>  (411) 
nan

>  <Standardized_SMILES>  (411) 
O=C1C(Cl)=C(Cl)C(=O)C(Cl)=C1Cl

>  <Name>  (411) 
CHLORANIL

>  <Pocket>  (411) 
nan

>  <ATP_Site>  (411) 
nan

>  <Peripheral>  (411) 
nan

>  <Num_H_Atoms_ProtBoundConf>  (411) 
nan

>  <Num_Resolved_Atoms>  (411) 
nan

>  <Num_Not_Resolved_Atoms>  (411) 
nan

$$$$
CHEMBL192607
     RDKit          3D

  0  0  0  0  0  0  0  0  0  0999 V3000
M  V30 BEGIN CTAB
M  V30 COUNTS 47 50 0 0 0
M  V30 BEGIN ATOM
M  V30 1 C -2.544485 -4.148671 1.458314 0
M  V30 2 N -3.309566 -3.038907 0.892749 0
M  V30 3 C -2.694991 -2.690617 -0.329801 0
M  V30 4 C -3.067078 -1.353660 -0.872192 0
M  V30 5 C -2.779154 -0.326481 0.208996 0
M  V30 6 C -1.329922 -0.107273 0.386104 0
M  V30 7 C -0.670492 1.025550 -0.104242 0
M  V30 8 C 0.686366 0.968435 0.214464 0
M  V30 9 C 1.695849 1.961972 -0.126358 0
M  V30 10 C 2.788116 1.868096 -0.946197 0
M  V30 11 C 3.625270 2.948395 -1.126395 0
M  V30 12 C 3.355685 4.133198 -0.472218 0
M  V30 13 C 2.251303 4.211314 0.350028 0
M  V30 14 N 1.441535 3.138523 0.513491 0
M  V30 15 C 0.835810 -0.203165 0.897384 0
M  V30 16 C 2.057302 -0.762384 1.466158 0
M  V30 17 C 3.211875 -1.222212 0.867536 0
M  V30 18 C 4.244100 -1.707047 1.619269 0
M  V30 19 C 4.129188 -1.737735 3.004507 0
M  V30 20 F 5.188699 -2.230778 3.688057 0
M  V30 21 C 2.990837 -1.287321 3.640957 0
M  V30 22 C 1.949716 -0.796906 2.861182 0
M  V30 23 N -0.358691 -0.816755 0.986003 0
M  V30 24 C -3.523830 -0.624269 1.463669 0
M  V30 25 C -3.498574 -2.058733 1.883901 0
M  V30 26 H -3.258585 -4.916117 1.786780 0
M  V30 27 H -1.798962 -4.559373 0.725076 0
M  V30 28 H -1.948472 -3.734029 2.295843 0
M  V30 29 H -1.592731 -2.803368 -0.382158 0
M  V30 30 H -3.064479 -3.444084 -1.095197 0
M  V30 31 H -2.442422 -1.111211 -1.747747 0
M  V30 32 H -4.146065 -1.284785 -1.127660 0
M  V30 33 H -3.184947 0.638091 -0.222314 0
M  V30 34 H -1.073780 1.883280 -0.666071 0
M  V30 35 H 2.892936 0.897495 -1.401826 0
M  V30 36 H 4.444687 2.726697 -1.799668 0
M  V30 37 H 4.076387 4.911334 -0.685564 0
M  V30 38 H 2.116032 5.165659 0.816709 0
M  V30 39 H 3.161776 -1.142166 -0.196919 0
M  V30 40 H 5.083076 -2.032077 1.026871 0
M  V30 41 H 2.990863 -1.349730 4.720630 0
M  V30 42 H 1.112360 -0.474470 3.476804 0
M  V30 43 H -0.536972 -1.719739 1.453340 0
M  V30 44 H -4.577009 -0.252867 1.345491 0
M  V30 45 H -3.094103 -0.013318 2.284765 0
M  V30 46 H -4.488907 -2.269291 2.366543 0
M  V30 47 H -2.755467 -2.202769 2.722502 0
M  V30 END ATOM
M  V30 BEGIN BOND
M  V30 1 1 1 2
M  V30 2 1 2 3
M  V30 3 1 3 4
M  V30 4 1 4 5
M  V30 5 1 5 6
M  V30 6 2 6 7
M  V30 7 1 7 8
M  V30 8 1 8 9
M  V30 9 2 9 10
M  V30 10 1 10 11
M  V30 11 2 11 12
M  V30 12 1 12 13
M  V30 13 2 13 14
M  V30 14 2 8 15
M  V30 15 1 15 16
M  V30 16 2 16 17
M  V30 17 1 17 18
M  V30 18 2 18 19
M  V30 19 1 19 20
M  V30 20 1 19 21
M  V30 21 2 21 22
M  V30 22 1 15 23
M  V30 23 1 5 24
M  V30 24 1 24 25
M  V30 25 1 25 2
M  V30 26 1 23 6
M  V30 27 1 14 9
M  V30 28 1 22 16
M  V30 29 1 1 26
M  V30 30 1 1 27
M  V30 31 1 1 28
M  V30 32 1 3 29
M  V30 33 1 3 30
M  V30 34 1 4 31
M  V30 35 1 4 32
M  V30 36 1 5 33
M  V30 37 1 7 34
M  V30 38 1 10 35
M  V30 39 1 11 36
M  V30 40 1 12 37
M  V30 41 1 13 38
M  V30 42 1 17 39
M  V30 43 1 18 40
M  V30 44 1 21 41
M  V30 45 1 22 42
M  V30 46 1 23 43
M  V30 47 1 24 44
M  V30 48 1 24 45
M  V30 49 1 25 46
M  V30 50 1 25 47
M  V30 END BOND
M  V30 END CTAB
M  END
>  <Dataset>  (412) 
ChEMBL_Kinases

>  <Ligand_Instance>  (412) 
nan

>  <PDB_ID>  (412) 
nan

>  <Standardized_SMILES>  (412) 
CN1CCC(c2cc(-c3ccccn3)c(-c3ccc(F)cc3)[nH]2)CC1

>  <Name>  (412) 
nan

>  <Pocket>  (412) 
nan

>  <ATP_Site>  (412) 
nan

>  <Peripheral>  (412) 
nan

>  <Num_H_Atoms_ProtBoundConf>  (412) 
nan

>  <Num_Resolved_Atoms>  (412) 
nan

>  <Num_Not_Resolved_Atoms>  (412) 
nan

$$$$
CHEMBL192566
     RDKit          3D

  0  0  0  0  0  0  0  0  0  0999 V3000
M  V30 BEGIN CTAB
M  V30 COUNTS 96 98 0 0 0
M  V30 BEGIN ATOM
M  V30 1 C 0.623222 -5.324776 1.187765 0
M  V30 2 C 0.492789 -6.261631 0.076562 0
M  V30 3 C 0.446558 -5.738097 -1.131603 0
M  V30 4 C 0.314248 -6.802236 -2.156024 0
M  V30 5 C 0.501568 -4.358319 -1.549510 0
M  V30 6 O 0.438456 -4.079171 -2.773541 0
M  V30 7 O 0.611071 -3.100594 -1.022955 0
M  V30 8 C 0.639751 -1.891457 -1.669144 0 CFG=1
M  V30 9 C -0.578285 -1.134727 -1.173922 0
M  V30 10 C -1.919973 -1.423614 -1.769300 0
M  V30 11 C -0.218980 -0.275890 -0.220998 0
M  V30 12 C 1.240234 -0.337180 0.041978 0 CFG=2
M  V30 13 C 1.677565 -0.910266 -1.268964 0 CFG=2
M  V30 14 O 1.471464 0.114625 -2.270423 0
M  V30 15 C 2.473412 0.569602 -3.069734 0
M  V30 16 O 3.641894 0.108963 -2.967692 0
M  V30 17 C 2.534220 1.581611 -4.145597 0
M  V30 18 C 1.206150 2.253729 -4.410525 0
M  V30 19 C 0.730150 2.961479 -3.190313 0
M  V30 20 C -0.599162 3.657796 -3.389639 0
M  V30 21 C -0.580726 4.702916 -4.465141 0
M  V30 22 C -1.972364 5.339478 -4.580286 0
M  V30 23 C -1.973876 6.388804 -5.647188 0
M  V30 24 C 1.720742 -0.883584 1.299421 0 CFG=1
M  V30 25 C 2.666162 -2.069773 1.206345 0
M  V30 26 O 2.583526 0.136809 1.886860 0
M  V30 27 C 3.196158 -0.090714 3.109631 0
M  V30 28 C 4.071133 0.969489 3.682032 0
M  V30 29 O 3.093178 -1.134022 3.820934 0
M  V30 30 C 0.774505 -1.189537 2.399111 0
M  V30 31 C -0.707150 -1.031290 2.097630 0 CFG=1
M  V30 32 O -1.516390 -1.659522 3.046416 0
M  V30 33 C -2.265567 -2.798194 2.830927 0
M  V30 34 O -2.215286 -3.309637 1.686000 0
M  V30 35 C -3.033722 -3.250188 4.021867 0
M  V30 36 C -3.801789 -4.508972 3.594892 0
M  V30 37 C -2.867095 -5.588573 3.143917 0
M  V30 38 C -0.906479 0.393559 1.898077 0 CFG=1
M  V30 39 O 0.192884 1.229611 2.077792 0
M  V30 40 C -1.247065 0.550398 0.396417 0 CFG=1
M  V30 41 O -1.210108 1.917919 0.341342 0
M  V30 42 C -1.929130 2.320054 1.476181 0
M  V30 43 O -2.365983 3.490277 1.748986 0
M  V30 44 C -2.116142 1.104373 2.365265 0 CFG=2
M  V30 45 C -2.207902 1.434076 3.802522 0
M  V30 46 O -3.289176 0.512489 1.892629 0
M  V30 47 H 1.687594 -5.282181 1.565602 0
M  V30 48 H 0.001176 -5.673445 2.068739 0
M  V30 49 H 0.339838 -4.302088 0.924511 0
M  V30 50 H 0.446075 -7.301522 0.348412 0
M  V30 51 H 1.055601 -7.627955 -1.985835 0
M  V30 52 H 0.604278 -6.389568 -3.163552 0
M  V30 53 H -0.716484 -7.167129 -2.196548 0
M  V30 54 H 0.559543 -1.970242 -2.792295 0
M  V30 55 H -1.803601 -1.377320 -2.876584 0
M  V30 56 H -2.691400 -0.699716 -1.514770 0
M  V30 57 H -2.163012 -2.475779 -1.516091 0
M  V30 58 H 1.484665 0.771318 -0.048364 0
M  V30 59 H 2.716931 -1.148773 -1.378733 0
M  V30 60 H 2.822828 1.094020 -5.116154 0
M  V30 61 H 3.268548 2.387755 -3.938415 0
M  V30 62 H 0.418796 1.479405 -4.654105 0
M  V30 63 H 1.272132 2.924228 -5.295631 0
M  V30 64 H 0.562113 2.224780 -2.381916 0
M  V30 65 H 1.494839 3.721895 -2.879860 0
M  V30 66 H -1.361945 2.900286 -3.651515 0
M  V30 67 H -0.883878 4.097060 -2.413706 0
M  V30 68 H -0.328418 4.295602 -5.447303 0
M  V30 69 H 0.129989 5.496053 -4.163974 0
M  V30 70 H -2.662824 4.522226 -4.913349 0
M  V30 71 H -2.344574 5.697683 -3.606214 0
M  V30 72 H -1.869015 7.419037 -5.231943 0
M  V30 73 H -2.924694 6.344568 -6.214494 0
M  V30 74 H -1.129599 6.198313 -6.342900 0
M  V30 75 H 2.241057 -2.971199 1.706535 0
M  V30 76 H 3.645461 -1.932556 1.709563 0
M  V30 77 H 2.945111 -2.389734 0.204578 0
M  V30 78 H 4.746715 1.374949 2.893074 0
M  V30 79 H 4.719447 0.625883 4.486777 0
M  V30 80 H 3.447791 1.789651 4.115933 0
M  V30 81 H 0.844019 -2.254632 2.774247 0
M  V30 82 H 0.884541 -0.591769 3.328382 0
M  V30 83 H -0.851760 -1.690002 1.209469 0
M  V30 84 H -2.287570 -3.580941 4.779630 0
M  V30 85 H -3.719109 -2.489271 4.395025 0
M  V30 86 H -4.459033 -4.856026 4.415376 0
M  V30 87 H -4.480013 -4.267078 2.737862 0
M  V30 88 H -1.860961 -5.535058 3.596477 0
M  V30 89 H -2.698873 -5.601785 2.037727 0
M  V30 90 H -3.329183 -6.592066 3.355076 0
M  V30 91 H 0.156044 1.790186 2.880478 0
M  V30 92 H -2.268859 0.182560 0.280153 0
M  V30 93 H -3.256905 1.276095 4.143015 0
M  V30 94 H -2.026109 2.523221 3.939953 0
M  V30 95 H -1.473499 0.922637 4.448788 0
M  V30 96 H -4.013432 1.183179 1.973554 0
M  V30 END ATOM
M  V30 BEGIN BOND
M  V30 1 1 1 2
M  V30 2 2 2 3
M  V30 3 1 3 4
M  V30 4 1 3 5
M  V30 5 2 5 6
M  V30 6 1 5 7
M  V30 7 1 7 8
M  V30 8 1 8 9
M  V30 9 1 9 10
M  V30 10 2 9 11
M  V30 11 1 11 12
M  V30 12 1 12 13
M  V30 13 1 13 14
M  V30 14 1 14 15
M  V30 15 2 15 16
M  V30 16 1 15 17
M  V30 17 1 17 18
M  V30 18 1 18 19
M  V30 19 1 19 20
M  V30 20 1 20 21
M  V30 21 1 21 22
M  V30 22 1 22 23
M  V30 23 1 12 24
M  V30 24 1 24 25
M  V30 25 1 24 26 CFG=1
M  V30 26 1 26 27
M  V30 27 1 27 28
M  V30 28 2 27 29
M  V30 29 1 24 30
M  V30 30 1 30 31
M  V30 31 1 31 32
M  V30 32 1 32 33
M  V30 33 2 33 34
M  V30 34 1 33 35
M  V30 35 1 35 36
M  V30 36 1 36 37
M  V30 37 1 31 38
M  V30 38 1 38 39 CFG=3
M  V30 39 1 38 40
M  V30 40 1 40 41
M  V30 41 1 41 42
M  V30 42 2 42 43
M  V30 43 1 42 44
M  V30 44 1 44 45
M  V30 45 1 44 46 CFG=3
M  V30 46 1 13 8
M  V30 47 1 44 38
M  V30 48 1 40 11
M  V30 49 1 1 47
M  V30 50 1 1 48
M  V30 51 1 1 49
M  V30 52 1 2 50
M  V30 53 1 4 51
M  V30 54 1 4 52
M  V30 55 1 4 53
M  V30 56 1 8 54 CFG=3
M  V30 57 1 10 55
M  V30 58 1 10 56
M  V30 59 1 10 57
M  V30 60 1 12 58 CFG=3
M  V30 61 1 13 59 CFG=1
M  V30 62 1 17 60
M  V30 63 1 17 61
M  V30 64 1 18 62
M  V30 65 1 18 63
M  V30 66 1 19 64
M  V30 67 1 19 65
M  V30 68 1 20 66
M  V30 69 1 20 67
M  V30 70 1 21 68
M  V30 71 1 21 69
M  V30 72 1 22 70
M  V30 73 1 22 71
M  V30 74 1 23 72
M  V30 75 1 23 73
M  V30 76 1 23 74
M  V30 77 1 25 75
M  V30 78 1 25 76
M  V30 79 1 25 77
M  V30 80 1 28 78
M  V30 81 1 28 79
M  V30 82 1 28 80
M  V30 83 1 30 81
M  V30 84 1 30 82
M  V30 85 1 31 83 CFG=3
M  V30 86 1 35 84
M  V30 87 1 35 85
M  V30 88 1 36 86
M  V30 89 1 36 87
M  V30 90 1 37 88
M  V30 91 1 37 89
M  V30 92 1 37 90
M  V30 93 1 39 91
M  V30 94 1 40 92 CFG=1
M  V30 95 1 45 93
M  V30 96 1 45 94
M  V30 97 1 45 95
M  V30 98 1 46 96
M  V30 END BOND
M  V30 END CTAB
M  END
>  <Dataset>  (413) 
ChEMBL_Kinases

>  <Ligand_Instance>  (413) 
nan

>  <PDB_ID>  (413) 
nan

>  <Standardized_SMILES>  (413) 
C/C=C(/C)C(=O)O[C@H]1C(C)=C2[C@H]([C@@H]1OC(=O)CCCCCCC)[C@@](C)(OC(C)=O)C[C@@H](OC(=O)CCC)[C@@]1(O)[C@H]2OC(=O)[C@@]1(C)O

>  <Name>  (413) 
nan

>  <Pocket>  (413) 
nan

>  <ATP_Site>  (413) 
nan

>  <Peripheral>  (413) 
nan

>  <Num_H_Atoms_ProtBoundConf>  (413) 
nan

>  <Num_Resolved_Atoms>  (413) 
nan

>  <Num_Not_Resolved_Atoms>  (413) 
nan

$$$$
CHEMBL192496
     RDKit          3D

  0  0  0  0  0  0  0  0  0  0999 V3000
M  V30 BEGIN CTAB
M  V30 COUNTS 48 51 0 0 0
M  V30 BEGIN ATOM
M  V30 1 C -2.623694 -4.876143 0.222358 0
M  V30 2 N -2.373450 -3.496907 -0.141364 0
M  V30 3 C -1.327184 -3.357752 -1.119041 0
M  V30 4 C -1.501391 -2.195009 -2.030789 0
M  V30 5 C -2.045721 -0.947763 -1.356529 0
M  V30 6 C -0.962773 -0.259293 -0.601058 0
M  V30 7 C -0.367484 0.962304 -0.894289 0
M  V30 8 C 0.587363 1.221572 0.068988 0
M  V30 9 C 1.477612 2.372494 0.182545 0
M  V30 10 C 2.817500 2.089797 -0.107646 0
M  V30 11 C 3.813367 3.041863 -0.052556 0
M  V30 12 N 3.466112 4.310419 0.300334 0
M  V30 13 C 2.188887 4.616487 0.585387 0
M  V30 14 C 1.193875 3.682405 0.535119 0
M  V30 15 C 0.581122 0.146122 0.967848 0
M  V30 16 C 1.363789 -0.114631 2.168657 0
M  V30 17 C 2.706172 -0.374154 2.347383 0
M  V30 18 C 3.223898 -0.588073 3.604955 0
M  V30 19 C 2.383386 -0.540924 4.699443 0
M  V30 20 O 2.990353 -0.770217 5.948680 0
M  V30 21 C 1.031430 -0.284848 4.576573 0
M  V30 22 C 0.530762 -0.070790 3.285571 0
M  V30 23 N -0.364959 -0.706999 0.516684 0
M  V30 24 C -3.202353 -1.287236 -0.479536 0
M  V30 25 C -3.557922 -2.755888 -0.455840 0
M  V30 26 H -3.640183 -5.230175 -0.052823 0
M  V30 27 H -1.880648 -5.566168 -0.258179 0
M  V30 28 H -2.526919 -4.976118 1.310794 0
M  V30 29 H -1.350122 -4.287711 -1.745173 0
M  V30 30 H -0.340342 -3.375195 -0.619229 0
M  V30 31 H -0.489883 -1.915908 -2.441763 0
M  V30 32 H -2.118682 -2.449637 -2.916619 0
M  V30 33 H -2.366628 -0.271589 -2.197913 0
M  V30 34 H -0.608895 1.591896 -1.722052 0
M  V30 35 H 3.194097 1.122344 -0.402262 0
M  V30 36 H 4.847315 2.854376 -0.269913 0
M  V30 37 H 1.902450 5.617225 0.867060 0
M  V30 38 H 0.131379 3.829934 0.748517 0
M  V30 39 H 3.240697 -0.384625 1.422596 0
M  V30 40 H 4.290680 -0.780338 3.619427 0
M  V30 41 H 2.571909 -1.362330 6.659092 0
M  V30 42 H 0.427815 -0.259982 5.472704 0
M  V30 43 H -0.546867 0.121150 3.313511 0
M  V30 44 H -0.628738 -1.603544 0.947594 0
M  V30 45 H -2.934437 -1.033263 0.585607 0
M  V30 46 H -4.085998 -0.649036 -0.700125 0
M  V30 47 H -4.125224 -3.103271 -1.325860 0
M  V30 48 H -4.247449 -2.872085 0.427855 0
M  V30 END ATOM
M  V30 BEGIN BOND
M  V30 1 1 1 2
M  V30 2 1 2 3
M  V30 3 1 3 4
M  V30 4 1 4 5
M  V30 5 1 5 6
M  V30 6 2 6 7
M  V30 7 1 7 8
M  V30 8 1 8 9
M  V30 9 2 9 10
M  V30 10 1 10 11
M  V30 11 2 11 12
M  V30 12 1 12 13
M  V30 13 2 13 14
M  V30 14 2 8 15
M  V30 15 1 15 16
M  V30 16 2 16 17
M  V30 17 1 17 18
M  V30 18 2 18 19
M  V30 19 1 19 20
M  V30 20 1 19 21
M  V30 21 2 21 22
M  V30 22 1 15 23
M  V30 23 1 5 24
M  V30 24 1 24 25
M  V30 25 1 25 2
M  V30 26 1 23 6
M  V30 27 1 14 9
M  V30 28 1 22 16
M  V30 29 1 1 26
M  V30 30 1 1 27
M  V30 31 1 1 28
M  V30 32 1 3 29
M  V30 33 1 3 30
M  V30 34 1 4 31
M  V30 35 1 4 32
M  V30 36 1 5 33
M  V30 37 1 7 34
M  V30 38 1 10 35
M  V30 39 1 11 36
M  V30 40 1 13 37
M  V30 41 1 14 38
M  V30 42 1 17 39
M  V30 43 1 18 40
M  V30 44 1 20 41
M  V30 45 1 21 42
M  V30 46 1 22 43
M  V30 47 1 23 44
M  V30 48 1 24 45
M  V30 49 1 24 46
M  V30 50 1 25 47
M  V30 51 1 25 48
M  V30 END BOND
M  V30 END CTAB
M  END
>  <Dataset>  (414) 
ChEMBL_Kinases

>  <Ligand_Instance>  (414) 
nan

>  <PDB_ID>  (414) 
nan

>  <Standardized_SMILES>  (414) 
CN1CCC(c2cc(-c3ccncc3)c(-c3ccc(O)cc3)[nH]2)CC1

>  <Name>  (414) 
nan

>  <Pocket>  (414) 
nan

>  <ATP_Site>  (414) 
nan

>  <Peripheral>  (414) 
nan

>  <Num_H_Atoms_ProtBoundConf>  (414) 
nan

>  <Num_Resolved_Atoms>  (414) 
nan

>  <Num_Not_Resolved_Atoms>  (414) 
nan

$$$$
CHEMBL192492
     RDKit          3D

  0  0  0  0  0  0  0  0  0  0999 V3000
M  V30 BEGIN CTAB
M  V30 COUNTS 47 50 0 0 0
M  V30 BEGIN ATOM
M  V30 1 C -2.646257 -5.630066 2.228629 0
M  V30 2 N -2.135138 -4.274473 2.221679 0
M  V30 3 C -2.854991 -3.395838 1.355111 0
M  V30 4 C -2.951138 -2.009967 1.898938 0
M  V30 5 C -1.683087 -1.501352 2.545758 0
M  V30 6 C -0.712115 -0.989248 1.530933 0
M  V30 7 C -0.265177 0.338378 1.601574 0
M  V30 8 C 0.641015 0.769136 0.621830 0
M  V30 9 C 1.021594 2.137342 0.811450 0
M  V30 10 C 1.809571 2.321525 1.961591 0
M  V30 11 C 2.269112 3.561021 2.318439 0
M  V30 12 N 2.005675 4.692093 1.603360 0
M  V30 13 C 1.240515 4.541291 0.478970 0
M  V30 14 C 0.777265 3.299780 0.117342 0
M  V30 15 C 1.066650 -0.092347 -0.366892 0
M  V30 16 C 1.999947 0.400114 -1.370893 0
M  V30 17 C 1.614980 1.239523 -2.398900 0
M  V30 18 C 2.455254 1.741184 -3.373856 0
M  V30 19 C 3.786617 1.391771 -3.340635 0
M  V30 20 F 4.600737 1.883891 -4.292176 0
M  V30 21 C 4.206882 0.555636 -2.329373 0
M  V30 22 C 3.359537 0.060069 -1.360485 0
M  V30 23 N 0.602774 -1.358776 -0.383856 0
M  V30 24 N -0.264994 -1.783757 0.548534 0
M  V30 25 C -1.057190 -2.560785 3.437347 0
M  V30 26 C -2.077165 -3.703674 3.541723 0
M  V30 27 H -3.594718 -5.746772 1.672208 0
M  V30 28 H -1.848889 -6.292143 1.826606 0
M  V30 29 H -2.785569 -5.933213 3.285215 0
M  V30 30 H -2.351007 -3.404085 0.357561 0
M  V30 31 H -3.874226 -3.797129 1.161921 0
M  V30 32 H -3.844399 -1.839281 2.533097 0
M  V30 33 H -3.112258 -1.334142 1.007614 0
M  V30 34 H -1.958230 -0.669514 3.227545 0
M  V30 35 H -0.654676 0.943392 2.415402 0
M  V30 36 H 2.115270 1.518152 2.650070 0
M  V30 37 H 2.887015 3.721967 3.215777 0
M  V30 38 H 0.954112 5.354722 -0.183182 0
M  V30 39 H 0.164512 3.118860 -0.754756 0
M  V30 40 H 0.584347 1.538956 -2.473002 0
M  V30 41 H 2.064140 2.396643 -4.146301 0
M  V30 42 H 5.248737 0.260045 -2.272912 0
M  V30 43 H 3.671813 -0.596380 -0.561082 0
M  V30 44 H -0.893272 -2.207099 4.472756 0
M  V30 45 H -0.135100 -2.938027 2.962360 0
M  V30 46 H -1.789494 -4.419533 4.336001 0
M  V30 47 H -3.068895 -3.252159 3.782552 0
M  V30 END ATOM
M  V30 BEGIN BOND
M  V30 1 1 1 2
M  V30 2 1 2 3
M  V30 3 1 3 4
M  V30 4 1 4 5
M  V30 5 1 5 6
M  V30 6 2 6 7
M  V30 7 1 7 8
M  V30 8 1 8 9
M  V30 9 2 9 10
M  V30 10 1 10 11
M  V30 11 2 11 12
M  V30 12 1 12 13
M  V30 13 2 13 14
M  V30 14 2 8 15
M  V30 15 1 15 16
M  V30 16 2 16 17
M  V30 17 1 17 18
M  V30 18 2 18 19
M  V30 19 1 19 20
M  V30 20 1 19 21
M  V30 21 2 21 22
M  V30 22 1 15 23
M  V30 23 2 23 24
M  V30 24 1 5 25
M  V30 25 1 25 26
M  V30 26 1 26 2
M  V30 27 1 24 6
M  V30 28 1 14 9
M  V30 29 1 22 16
M  V30 30 1 1 27
M  V30 31 1 1 28
M  V30 32 1 1 29
M  V30 33 1 3 30
M  V30 34 1 3 31
M  V30 35 1 4 32
M  V30 36 1 4 33
M  V30 37 1 5 34
M  V30 38 1 7 35
M  V30 39 1 10 36
M  V30 40 1 11 37
M  V30 41 1 13 38
M  V30 42 1 14 39
M  V30 43 1 17 40
M  V30 44 1 18 41
M  V30 45 1 21 42
M  V30 46 1 22 43
M  V30 47 1 25 44
M  V30 48 1 25 45
M  V30 49 1 26 46
M  V30 50 1 26 47
M  V30 END BOND
M  V30 END CTAB
M  END
>  <Dataset>  (415) 
ChEMBL_Kinases

>  <Ligand_Instance>  (415) 
nan

>  <PDB_ID>  (415) 
nan

>  <Standardized_SMILES>  (415) 
CN1CCC(c2cc(-c3ccncc3)c(-c3ccc(F)cc3)nn2)CC1

>  <Name>  (415) 
nan

>  <Pocket>  (415) 
nan

>  <ATP_Site>  (415) 
nan

>  <Peripheral>  (415) 
nan

>  <Num_H_Atoms_ProtBoundConf>  (415) 
nan

>  <Num_Resolved_Atoms>  (415) 
nan

>  <Num_Not_Resolved_Atoms>  (415) 
nan

$$$$
CHEMBL1923994
     RDKit          3D

  0  0  0  0  0  0  0  0  0  0999 V3000
M  V30 BEGIN CTAB
M  V30 COUNTS 45 48 0 0 0
M  V30 BEGIN ATOM
M  V30 1 C 1.380388 -6.389263 3.730671 0
M  V30 2 N 0.068242 -5.855028 3.350492 0
M  V30 3 C -0.054457 -4.641048 2.625473 0
M  V30 4 N 1.070493 -3.988075 2.294029 0
M  V30 5 C 1.016513 -2.818691 1.599037 0
M  V30 6 N 1.927281 -1.924292 1.114250 0
M  V30 7 C 1.303192 -0.927373 0.493438 0
M  V30 8 C 1.944057 0.215321 -0.150073 0
M  V30 9 C 1.213665 1.184478 -0.761014 0
M  V30 10 C 1.808542 2.266340 -1.370954 0
M  V30 11 C 1.118726 3.385982 -2.067311 0
M  V30 12 N 0.872552 4.420623 -1.082135 0
M  V30 13 C -0.122219 4.434619 -0.091842 0
M  V30 14 C -0.287643 5.551086 0.874087 0
M  V30 15 O -0.945062 3.502917 0.048700 0
M  V30 16 C 3.202106 2.402320 -1.380540 0
M  V30 17 C 3.898593 1.372583 -0.735519 0
M  V30 18 N 3.284077 0.336041 -0.153240 0
M  V30 19 C -0.057368 -1.149931 0.558436 0
M  V30 20 C -0.248263 -2.337516 1.252143 0
M  V30 21 C -1.419502 -3.012244 1.594172 0
M  V30 22 C -1.340093 -4.210016 2.307250 0
M  V30 23 N -2.589768 -4.619057 2.487907 0
M  V30 24 C -3.398058 -3.713414 1.912136 0
M  V30 25 N -2.704209 -2.705408 1.349485 0
M  V30 26 C -3.197232 -1.542132 0.636738 0
M  V30 27 H 2.019834 -6.267064 2.811848 0
M  V30 28 H 1.302239 -7.427729 4.054718 0
M  V30 29 H 1.798861 -5.713866 4.503331 0
M  V30 30 H -0.772057 -6.419787 3.644317 0
M  V30 31 H 2.960367 -2.052162 1.240548 0
M  V30 32 H 0.154281 1.142938 -0.793066 0
M  V30 33 H 1.668692 3.767337 -2.925565 0
M  V30 34 H 0.094581 3.038138 -2.394695 0
M  V30 35 H 1.497535 5.244600 -1.106090 0
M  V30 36 H -0.211096 5.205958 1.919810 0
M  V30 37 H -1.265542 6.060973 0.756089 0
M  V30 38 H 0.571579 6.257408 0.714850 0
M  V30 39 H 3.752226 3.209116 -1.829982 0
M  V30 40 H 4.965975 1.357100 -0.672164 0
M  V30 41 H -0.784458 -0.484223 0.128572 0
M  V30 42 H -4.495010 -3.760126 1.885789 0
M  V30 43 H -4.310950 -1.633783 0.605590 0
M  V30 44 H -2.876944 -1.534208 -0.423359 0
M  V30 45 H -2.985833 -0.602445 1.163789 0
M  V30 END ATOM
M  V30 BEGIN BOND
M  V30 1 1 1 2
M  V30 2 1 2 3
M  V30 3 2 3 4
M  V30 4 1 4 5
M  V30 5 1 5 6
M  V30 6 1 6 7
M  V30 7 1 7 8
M  V30 8 2 8 9
M  V30 9 1 9 10
M  V30 10 1 10 11
M  V30 11 1 11 12
M  V30 12 1 12 13
M  V30 13 1 13 14
M  V30 14 2 13 15
M  V30 15 2 10 16
M  V30 16 1 16 17
M  V30 17 2 17 18
M  V30 18 2 7 19
M  V30 19 1 19 20
M  V30 20 1 20 21
M  V30 21 2 21 22
M  V30 22 1 22 23
M  V30 23 2 23 24
M  V30 24 1 24 25
M  V30 25 1 25 26
M  V30 26 1 22 3
M  V30 27 2 20 5
M  V30 28 1 25 21
M  V30 29 1 18 8
M  V30 30 1 1 27
M  V30 31 1 1 28
M  V30 32 1 1 29
M  V30 33 1 2 30
M  V30 34 1 6 31
M  V30 35 1 9 32
M  V30 36 1 11 33
M  V30 37 1 11 34
M  V30 38 1 12 35
M  V30 39 1 14 36
M  V30 40 1 14 37
M  V30 41 1 14 38
M  V30 42 1 16 39
M  V30 43 1 17 40
M  V30 44 1 19 41
M  V30 45 1 24 42
M  V30 46 1 26 43
M  V30 47 1 26 44
M  V30 48 1 26 45
M  V30 END BOND
M  V30 END CTAB
M  END
>  <Dataset>  (416) 
ChEMBL_Kinases

>  <Ligand_Instance>  (416) 
nan

>  <PDB_ID>  (416) 
nan

>  <Standardized_SMILES>  (416) 
CNc1nc2[nH]c(-c3cc(CNC(C)=O)ccn3)cc2c2c1ncn2C

>  <Name>  (416) 
nan

>  <Pocket>  (416) 
nan

>  <ATP_Site>  (416) 
nan

>  <Peripheral>  (416) 
nan

>  <Num_H_Atoms_ProtBoundConf>  (416) 
nan

>  <Num_Resolved_Atoms>  (416) 
nan

>  <Num_Not_Resolved_Atoms>  (416) 
nan

$$$$
CHEMBL1923993
     RDKit          3D

  0  0  0  0  0  0  0  0  0  0999 V3000
M  V30 BEGIN CTAB
M  V30 COUNTS 52 56 0 0 0
M  V30 BEGIN ATOM
M  V30 1 C -3.746998 -6.760559 2.686206 0
M  V30 2 N -3.155938 -5.774047 1.906599 0
M  V30 3 C -2.532091 -4.711794 1.187878 0
M  V30 4 N -1.994402 -3.555748 1.585676 0
M  V30 5 C -1.469270 -2.701338 0.695902 0
M  V30 6 N -0.908868 -1.523704 0.932747 0
M  V30 7 C -0.572849 -1.113753 -0.302723 0
M  V30 8 C 0.086973 0.159944 -0.589843 0
M  V30 9 C 0.402432 0.535791 -1.877172 0
M  V30 10 C 1.017320 1.744775 -2.111636 0
M  V30 11 C 1.339336 2.621583 -1.069378 0
M  V30 12 C 1.002482 2.197900 0.198915 0
M  V30 13 N 1.280380 3.011651 1.333301 0
M  V30 14 C 1.884111 4.330629 1.291256 0
M  V30 15 C 3.207308 4.237549 2.008373 0
M  V30 16 N 2.957028 3.812177 3.364656 0
M  V30 17 C 4.263400 3.595322 3.990569 0
M  V30 18 C 2.272071 2.551581 3.444046 0
M  V30 19 C 0.963003 2.553613 2.676874 0
M  V30 20 N 0.410651 1.026484 0.388688 0
M  V30 21 C -0.923766 -2.028675 -1.273716 0
M  V30 22 C -1.519418 -3.084970 -0.618914 0
M  V30 23 C -2.046154 -4.245923 -1.135489 0
M  V30 24 C -2.585305 -5.111266 -0.170023 0
M  V30 25 N -3.020487 -6.143146 -0.921439 0
M  V30 26 C -2.750620 -5.885544 -2.210476 0
M  V30 27 N -2.139882 -4.704203 -2.378861 0
M  V30 28 C -1.708171 -4.110666 -3.603912 0
M  V30 29 H -3.052700 -7.333572 3.371239 0
M  V30 30 H -4.652848 -6.500589 3.288047 0
M  V30 31 H -4.156416 -7.602667 2.013164 0
M  V30 32 H -3.003738 -5.298690 2.844605 0
M  V30 33 H -0.771489 -1.051925 1.844101 0
M  V30 34 H 0.164847 -0.119929 -2.690406 0
M  V30 35 H 1.289042 2.092536 -3.115678 0
M  V30 36 H 1.815763 3.551949 -1.281084 0
M  V30 37 H 1.939408 4.791168 0.313704 0
M  V30 38 H 1.257993 5.021583 1.930435 0
M  V30 39 H 3.692224 5.238280 2.090709 0
M  V30 40 H 3.880922 3.583978 1.456705 0
M  V30 41 H 4.990211 4.276806 3.505011 0
M  V30 42 H 4.184390 3.818614 5.069972 0
M  V30 43 H 4.589059 2.549703 3.807259 0
M  V30 44 H 2.925309 1.753284 3.043499 0
M  V30 45 H 2.046707 2.361223 4.506223 0
M  V30 46 H 0.191652 3.152793 3.169754 0
M  V30 47 H 0.676047 1.467726 2.609057 0
M  V30 48 H -0.754379 -1.917207 -2.333917 0
M  V30 49 H -3.036969 -6.619265 -2.956795 0
M  V30 50 H -1.886495 -4.861464 -4.429455 0
M  V30 51 H -0.621205 -3.912198 -3.655560 0
M  V30 52 H -2.355272 -3.262342 -3.845003 0
M  V30 END ATOM
M  V30 BEGIN BOND
M  V30 1 1 1 2
M  V30 2 1 2 3
M  V30 3 2 3 4
M  V30 4 1 4 5
M  V30 5 1 5 6
M  V30 6 1 6 7
M  V30 7 1 7 8
M  V30 8 2 8 9
M  V30 9 1 9 10
M  V30 10 2 10 11
M  V30 11 1 11 12
M  V30 12 1 12 13
M  V30 13 1 13 14
M  V30 14 1 14 15
M  V30 15 1 15 16
M  V30 16 1 16 17
M  V30 17 1 16 18
M  V30 18 1 18 19
M  V30 19 2 12 20
M  V30 20 2 7 21
M  V30 21 1 21 22
M  V30 22 1 22 23
M  V30 23 2 23 24
M  V30 24 1 24 25
M  V30 25 2 25 26
M  V30 26 1 26 27
M  V30 27 1 27 28
M  V30 28 1 24 3
M  V30 29 2 22 5
M  V30 30 1 27 23
M  V30 31 1 20 8
M  V30 32 1 19 13
M  V30 33 1 1 29
M  V30 34 1 1 30
M  V30 35 1 1 31
M  V30 36 1 2 32
M  V30 37 1 6 33
M  V30 38 1 9 34
M  V30 39 1 10 35
M  V30 40 1 11 36
M  V30 41 1 14 37
M  V30 42 1 14 38
M  V30 43 1 15 39
M  V30 44 1 15 40
M  V30 45 1 17 41
M  V30 46 1 17 42
M  V30 47 1 17 43
M  V30 48 1 18 44
M  V30 49 1 18 45
M  V30 50 1 19 46
M  V30 51 1 19 47
M  V30 52 1 21 48
M  V30 53 1 26 49
M  V30 54 1 28 50
M  V30 55 1 28 51
M  V30 56 1 28 52
M  V30 END BOND
M  V30 END CTAB
M  END
>  <Dataset>  (417) 
ChEMBL_Kinases

>  <Ligand_Instance>  (417) 
nan

>  <PDB_ID>  (417) 
nan

>  <Standardized_SMILES>  (417) 
CNc1nc2[nH]c(-c3cccc(N4CCN(C)CC4)n3)cc2c2c1ncn2C

>  <Name>  (417) 
nan

>  <Pocket>  (417) 
nan

>  <ATP_Site>  (417) 
nan

>  <Peripheral>  (417) 
nan

>  <Num_H_Atoms_ProtBoundConf>  (417) 
nan

>  <Num_Resolved_Atoms>  (417) 
nan

>  <Num_Not_Resolved_Atoms>  (417) 
nan

$$$$
CHEMBL1923992
     RDKit          3D

  0  0  0  0  0  0  0  0  0  0999 V3000
M  V30 BEGIN CTAB
M  V30 COUNTS 50 53 0 0 0
M  V30 BEGIN ATOM
M  V30 1 C 0.803205 -5.862627 3.383898 0
M  V30 2 N 0.164229 -6.097353 2.098672 0
M  V30 3 C -0.133594 -5.057408 1.172843 0
M  V30 4 N 0.186544 -3.793812 1.490247 0
M  V30 5 C -0.066362 -2.765741 0.659056 0
M  V30 6 N 0.152347 -1.448014 0.740402 0
M  V30 7 C -0.322238 -0.933376 -0.419393 0
M  V30 8 C -0.266486 0.487891 -0.737235 0
M  V30 9 C -0.757530 1.006678 -1.920223 0
M  V30 10 C -0.700666 2.351512 -2.209277 0
M  V30 11 C -0.146807 3.246449 -1.322766 0
M  V30 12 C 0.349481 2.712744 -0.125067 0
M  V30 13 N 0.967278 3.411329 0.960199 0
M  V30 14 C 2.305127 3.640937 0.433401 0
M  V30 15 C 0.565217 3.861637 2.310069 0
M  V30 16 C 1.360358 3.024049 3.313443 0
M  V30 17 O 1.074613 3.352463 4.621555 0
M  V30 18 C 1.342129 4.667221 4.933171 0
M  V30 19 N 0.264483 1.392167 0.098387 0
M  V30 20 C -0.841779 -1.913234 -1.236708 0
M  V30 21 C -0.684026 -3.112531 -0.553490 0
M  V30 22 C -1.016563 -4.401329 -0.891294 0
M  V30 23 C -0.748867 -5.434185 -0.026032 0
M  V30 24 N -1.154992 -6.569584 -0.565239 0
M  V30 25 C -1.688431 -6.316621 -1.772830 0
M  V30 26 N -1.598225 -4.967647 -1.967854 0
M  V30 27 C -2.051297 -4.241039 -3.143371 0
M  V30 28 H 0.512245 -6.645425 4.114935 0
M  V30 29 H 0.439321 -4.907985 3.841144 0
M  V30 30 H 1.899335 -5.872178 3.315703 0
M  V30 31 H -0.068021 -7.097994 1.893125 0
M  V30 32 H 0.587335 -0.896404 1.507132 0
M  V30 33 H -1.200666 0.366447 -2.654721 0
M  V30 34 H -1.053732 2.845717 -3.095041 0
M  V30 35 H 0.022876 4.313107 -1.320295 0
M  V30 36 H 2.895216 2.706996 0.460166 0
M  V30 37 H 2.792079 4.339509 1.162358 0
M  V30 38 H 2.326675 4.166728 -0.528566 0
M  V30 39 H 0.780368 4.918301 2.445412 0
M  V30 40 H -0.508189 3.611114 2.407419 0
M  V30 41 H 2.454096 3.154732 3.114349 0
M  V30 42 H 1.178276 1.942233 3.155352 0
M  V30 43 H 2.420541 4.932700 4.755305 0
M  V30 44 H 1.174031 4.823766 6.039844 0
M  V30 45 H 0.646428 5.336282 4.419914 0
M  V30 46 H -1.281222 -1.758207 -2.212694 0
M  V30 47 H -2.120290 -6.970944 -2.508607 0
M  V30 48 H -1.185096 -3.690998 -3.620312 0
M  V30 49 H -2.827056 -3.506707 -2.938320 0
M  V30 50 H -2.340178 -4.992802 -3.908900 0
M  V30 END ATOM
M  V30 BEGIN BOND
M  V30 1 1 1 2
M  V30 2 1 2 3
M  V30 3 2 3 4
M  V30 4 1 4 5
M  V30 5 1 5 6
M  V30 6 1 6 7
M  V30 7 1 7 8
M  V30 8 2 8 9
M  V30 9 1 9 10
M  V30 10 2 10 11
M  V30 11 1 11 12
M  V30 12 1 12 13
M  V30 13 1 13 14
M  V30 14 1 13 15
M  V30 15 1 15 16
M  V30 16 1 16 17
M  V30 17 1 17 18
M  V30 18 2 12 19
M  V30 19 2 7 20
M  V30 20 1 20 21
M  V30 21 1 21 22
M  V30 22 2 22 23
M  V30 23 1 23 24
M  V30 24 2 24 25
M  V30 25 1 25 26
M  V30 26 1 26 27
M  V30 27 1 23 3
M  V30 28 2 21 5
M  V30 29 1 26 22
M  V30 30 1 19 8
M  V30 31 1 1 28
M  V30 32 1 1 29
M  V30 33 1 1 30
M  V30 34 1 2 31
M  V30 35 1 6 32
M  V30 36 1 9 33
M  V30 37 1 10 34
M  V30 38 1 11 35
M  V30 39 1 14 36
M  V30 40 1 14 37
M  V30 41 1 14 38
M  V30 42 1 15 39
M  V30 43 1 15 40
M  V30 44 1 16 41
M  V30 45 1 16 42
M  V30 46 1 18 43
M  V30 47 1 18 44
M  V30 48 1 18 45
M  V30 49 1 20 46
M  V30 50 1 25 47
M  V30 51 1 27 48
M  V30 52 1 27 49
M  V30 53 1 27 50
M  V30 END BOND
M  V30 END CTAB
M  END
>  <Dataset>  (418) 
ChEMBL_Kinases

>  <Ligand_Instance>  (418) 
nan

>  <PDB_ID>  (418) 
nan

>  <Standardized_SMILES>  (418) 
CNc1nc2[nH]c(-c3cccc(N(C)CCOC)n3)cc2c2c1ncn2C

>  <Name>  (418) 
nan

>  <Pocket>  (418) 
nan

>  <ATP_Site>  (418) 
nan

>  <Peripheral>  (418) 
nan

>  <Num_H_Atoms_ProtBoundConf>  (418) 
nan

>  <Num_Resolved_Atoms>  (418) 
nan

>  <Num_Not_Resolved_Atoms>  (418) 
nan

$$$$
CHEMBL1923991
     RDKit          3D

  0  0  0  0  0  0  0  0  0  0999 V3000
M  V30 BEGIN CTAB
M  V30 COUNTS 47 50 0 0 0
M  V30 BEGIN ATOM
M  V30 1 C 0.699468 -5.147964 3.976539 0
M  V30 2 N -0.548788 -5.150980 3.241596 0
M  V30 3 C -0.902778 -4.105971 2.344975 0
M  V30 4 N -0.026761 -3.088776 2.192615 0
M  V30 5 C -0.325259 -2.073515 1.347942 0
M  V30 6 N 0.348137 -0.961514 1.014312 0
M  V30 7 C -0.299485 -0.197336 0.129683 0
M  V30 8 C 0.067126 1.074395 -0.484772 0
M  V30 9 C -0.796597 1.641870 -1.393889 0
M  V30 10 C -0.466482 2.831060 -1.995320 0
M  V30 11 C 0.717356 3.446576 -1.689584 0
M  V30 12 C 1.606291 2.880928 -0.765976 0
M  V30 13 N 2.840665 3.516134 -0.465312 0
M  V30 14 C 3.946164 3.324677 0.434519 0
M  V30 15 C 3.631202 3.513563 1.877928 0
M  V30 16 O 2.702063 2.698324 2.443134 0
M  V30 17 C 3.048997 1.357211 2.460509 0
M  V30 18 N 1.204645 1.729867 -0.233651 0
M  V30 19 C -1.467861 -0.891311 -0.103748 0
M  V30 20 C -1.504619 -2.048182 0.634981 0
M  V30 21 C -2.404883 -3.092729 0.790949 0
M  V30 22 C -2.093546 -4.130714 1.658062 0
M  V30 23 N -3.130023 -4.988717 1.610293 0
M  V30 24 C -4.054133 -4.497269 0.740786 0
M  V30 25 N -3.604691 -3.314211 0.227714 0
M  V30 26 C -4.292702 -2.460511 -0.740739 0
M  V30 27 H 1.422313 -5.841330 3.470237 0
M  V30 28 H 0.567163 -5.490947 5.021773 0
M  V30 29 H 1.173760 -4.135757 3.997427 0
M  V30 30 H -1.191245 -5.958636 3.394183 0
M  V30 31 H 1.282122 -0.742843 1.417179 0
M  V30 32 H -1.733467 1.210827 -1.673979 0
M  V30 33 H -1.108605 3.312165 -2.710762 0
M  V30 34 H 0.954154 4.383290 -2.177780 0
M  V30 35 H 3.001470 4.367742 -1.060772 0
M  V30 36 H 4.770780 4.002652 0.166882 0
M  V30 37 H 4.337145 2.293839 0.218834 0
M  V30 38 H 3.218144 4.565251 1.966735 0
M  V30 39 H 4.569212 3.577422 2.505945 0
M  V30 40 H 3.220208 0.919800 1.462916 0
M  V30 41 H 3.912257 1.161561 3.148692 0
M  V30 42 H 2.198307 0.828241 2.932535 0
M  V30 43 H -2.252423 -0.561707 -0.783696 0
M  V30 44 H -5.008354 -4.936924 0.466066 0
M  V30 45 H -5.345938 -2.858031 -0.825598 0
M  V30 46 H -3.845360 -2.480248 -1.735156 0
M  V30 47 H -4.445064 -1.425545 -0.333613 0
M  V30 END ATOM
M  V30 BEGIN BOND
M  V30 1 1 1 2
M  V30 2 1 2 3
M  V30 3 2 3 4
M  V30 4 1 4 5
M  V30 5 1 5 6
M  V30 6 1 6 7
M  V30 7 1 7 8
M  V30 8 2 8 9
M  V30 9 1 9 10
M  V30 10 2 10 11
M  V30 11 1 11 12
M  V30 12 1 12 13
M  V30 13 1 13 14
M  V30 14 1 14 15
M  V30 15 1 15 16
M  V30 16 1 16 17
M  V30 17 2 12 18
M  V30 18 2 7 19
M  V30 19 1 19 20
M  V30 20 1 20 21
M  V30 21 2 21 22
M  V30 22 1 22 23
M  V30 23 2 23 24
M  V30 24 1 24 25
M  V30 25 1 25 26
M  V30 26 1 22 3
M  V30 27 2 20 5
M  V30 28 1 25 21
M  V30 29 1 18 8
M  V30 30 1 1 27
M  V30 31 1 1 28
M  V30 32 1 1 29
M  V30 33 1 2 30
M  V30 34 1 6 31
M  V30 35 1 9 32
M  V30 36 1 10 33
M  V30 37 1 11 34
M  V30 38 1 13 35
M  V30 39 1 14 36
M  V30 40 1 14 37
M  V30 41 1 15 38
M  V30 42 1 15 39
M  V30 43 1 17 40
M  V30 44 1 17 41
M  V30 45 1 17 42
M  V30 46 1 19 43
M  V30 47 1 24 44
M  V30 48 1 26 45
M  V30 49 1 26 46
M  V30 50 1 26 47
M  V30 END BOND
M  V30 END CTAB
M  END
>  <Dataset>  (419) 
ChEMBL_Kinases

>  <Ligand_Instance>  (419) 
nan

>  <PDB_ID>  (419) 
nan

>  <Standardized_SMILES>  (419) 
CNc1nc2[nH]c(-c3cccc(NCCOC)n3)cc2c2c1ncn2C

>  <Name>  (419) 
nan

>  <Pocket>  (419) 
nan

>  <ATP_Site>  (419) 
nan

>  <Peripheral>  (419) 
nan

>  <Num_H_Atoms_ProtBoundConf>  (419) 
nan

>  <Num_Resolved_Atoms>  (419) 
nan

>  <Num_Not_Resolved_Atoms>  (419) 
nan

$$$$
CHEMBL1923990
     RDKit          3D

  0  0  0  0  0  0  0  0  0  0999 V3000
M  V30 BEGIN CTAB
M  V30 COUNTS 42 45 0 0 0
M  V30 BEGIN ATOM
M  V30 1 C 0.723931 -5.553961 4.764545 0
M  V30 2 N 0.507347 -4.551505 3.804966 0
M  V30 3 C 0.292399 -3.556423 2.852485 0
M  V30 4 N 0.945947 -2.418501 2.585392 0
M  V30 5 C 0.570783 -1.580140 1.610523 0
M  V30 6 N 1.110625 -0.428700 1.232011 0
M  V30 7 C 0.303827 -0.061884 0.223136 0
M  V30 8 C 0.514428 1.184721 -0.528123 0
M  V30 9 C -0.346933 1.515963 -1.550518 0
M  V30 10 C -0.192841 2.671827 -2.279592 0
M  V30 11 C 0.847138 3.529568 -1.989697 0
M  V30 12 C 1.721054 3.188830 -0.949178 0
M  V30 13 N 2.830836 4.041888 -0.595231 0
M  V30 14 C 3.703099 3.652059 0.473997 0
M  V30 15 C 4.784862 4.687179 0.664658 0
M  V30 16 O 3.540022 2.598221 1.116101 0
M  V30 17 N 1.489395 2.051466 -0.303293 0
M  V30 18 C -0.696548 -0.953851 -0.012178 0
M  V30 19 C -0.537042 -1.973351 0.901907 0
M  V30 20 C -1.283933 -3.113256 1.085141 0
M  V30 21 C -0.844857 -3.936885 2.107032 0
M  V30 22 N -1.749774 -4.961408 2.059992 0
M  V30 23 C -2.632044 -4.724175 1.078572 0
M  V30 24 N -2.367774 -3.570072 0.445206 0
M  V30 25 C -3.060189 -2.945389 -0.658978 0
M  V30 26 H 0.636313 -5.240340 5.847404 0
M  V30 27 H -0.208450 -6.242489 4.692738 0
M  V30 28 H 1.611537 -6.212787 4.593429 0
M  V30 29 H 1.386745 -4.102710 4.240464 0
M  V30 30 H 1.950113 0.024257 1.651887 0
M  V30 31 H -1.173654 0.891921 -1.825762 0
M  V30 32 H -0.832406 2.984699 -3.087770 0
M  V30 33 H 0.993885 4.443501 -2.544973 0
M  V30 34 H 2.921352 4.928361 -1.176883 0
M  V30 35 H 5.344611 4.845048 -0.259829 0
M  V30 36 H 5.450663 4.241366 1.452358 0
M  V30 37 H 4.362573 5.605886 1.101092 0
M  V30 38 H -1.451431 -0.849921 -0.776040 0
M  V30 39 H -3.446582 -5.397192 0.847805 0
M  V30 40 H -2.424014 -2.895607 -1.564950 0
M  V30 41 H -3.517501 -1.992998 -0.360883 0
M  V30 42 H -3.912619 -3.615760 -0.937251 0
M  V30 END ATOM
M  V30 BEGIN BOND
M  V30 1 1 1 2
M  V30 2 1 2 3
M  V30 3 2 3 4
M  V30 4 1 4 5
M  V30 5 1 5 6
M  V30 6 1 6 7
M  V30 7 1 7 8
M  V30 8 2 8 9
M  V30 9 1 9 10
M  V30 10 2 10 11
M  V30 11 1 11 12
M  V30 12 1 12 13
M  V30 13 1 13 14
M  V30 14 1 14 15
M  V30 15 2 14 16
M  V30 16 2 12 17
M  V30 17 2 7 18
M  V30 18 1 18 19
M  V30 19 1 19 20
M  V30 20 2 20 21
M  V30 21 1 21 22
M  V30 22 2 22 23
M  V30 23 1 23 24
M  V30 24 1 24 25
M  V30 25 1 21 3
M  V30 26 2 19 5
M  V30 27 1 24 20
M  V30 28 1 17 8
M  V30 29 1 1 26
M  V30 30 1 1 27
M  V30 31 1 1 28
M  V30 32 1 2 29
M  V30 33 1 6 30
M  V30 34 1 9 31
M  V30 35 1 10 32
M  V30 36 1 11 33
M  V30 37 1 13 34
M  V30 38 1 15 35
M  V30 39 1 15 36
M  V30 40 1 15 37
M  V30 41 1 18 38
M  V30 42 1 23 39
M  V30 43 1 25 40
M  V30 44 1 25 41
M  V30 45 1 25 42
M  V30 END BOND
M  V30 END CTAB
M  END
>  <Dataset>  (420) 
ChEMBL_Kinases

>  <Ligand_Instance>  (420) 
nan

>  <PDB_ID>  (420) 
nan

>  <Standardized_SMILES>  (420) 
CNc1nc2[nH]c(-c3cccc(NC(C)=O)n3)cc2c2c1ncn2C

>  <Name>  (420) 
nan

>  <Pocket>  (420) 
nan

>  <ATP_Site>  (420) 
nan

>  <Peripheral>  (420) 
nan

>  <Num_H_Atoms_ProtBoundConf>  (420) 
nan

>  <Num_Resolved_Atoms>  (420) 
nan

>  <Num_Not_Resolved_Atoms>  (420) 
nan

$$$$
CHEMBL1923989
     RDKit          3D

  0  0  0  0  0  0  0  0  0  0999 V3000
M  V30 BEGIN CTAB
M  V30 COUNTS 52 55 0 0 0
M  V30 BEGIN ATOM
M  V30 1 C -0.104585 -6.235699 4.672439 0
M  V30 2 N 0.245432 -6.597382 3.311932 0
M  V30 3 C 0.502934 -5.675867 2.249023 0
M  V30 4 N 0.414887 -4.354765 2.527133 0
M  V30 5 C 0.644722 -3.412506 1.572445 0
M  V30 6 N 0.628075 -2.055119 1.567045 0
M  V30 7 C 0.932537 -1.600035 0.343559 0
M  V30 8 C 1.014770 -0.194419 -0.055398 0
M  V30 9 C 1.340591 0.134418 -1.356316 0
M  V30 10 C 1.408905 1.485057 -1.697998 0
M  V30 11 C 1.153280 2.450296 -0.743106 0
M  V30 12 C 0.829658 2.086958 0.551039 0
M  V30 13 C 0.534174 3.026747 1.663226 0
M  V30 14 N -0.897074 3.291271 1.658022 0
M  V30 15 C -1.756319 2.428815 2.440088 0
M  V30 16 C -1.485627 4.349180 0.926313 0
M  V30 17 O -2.745760 4.535057 0.957677 0
M  V30 18 C -1.773354 5.517672 0.068052 0
M  V30 19 O -3.162813 5.703070 0.110736 0
M  V30 20 C -3.528752 6.774262 -0.662312 0
M  V30 21 N 0.768349 0.762480 0.863720 0
M  V30 22 C 1.155364 -2.685181 -0.477683 0
M  V30 23 C 0.977025 -3.814809 0.284077 0
M  V30 24 C 1.069988 -5.165108 -0.011912 0
M  V30 25 C 0.830684 -6.113459 0.980355 0
M  V30 26 N 0.982496 -7.340584 0.445894 0
M  V30 27 C 1.310823 -7.201748 -0.855060 0
M  V30 28 N 1.361621 -5.864062 -1.124692 0
M  V30 29 C 1.684245 -5.266251 -2.426969 0
M  V30 30 H 0.406243 -6.894198 5.405656 0
M  V30 31 H 0.190940 -5.191166 4.890276 0
M  V30 32 H -1.198613 -6.321386 4.857403 0
M  V30 33 H 0.299736 -7.627924 3.151932 0
M  V30 34 H 0.407393 -1.468714 2.406132 0
M  V30 35 H 1.544197 -0.612503 -2.117700 0
M  V30 36 H 1.660791 1.788425 -2.706570 0
M  V30 37 H 1.190270 3.518954 -0.946312 0
M  V30 38 H 0.881917 2.636237 2.625796 0
M  V30 39 H 1.032216 4.001250 1.386922 0
M  V30 40 H -2.816113 2.589743 2.163037 0
M  V30 41 H -1.569155 2.538182 3.529077 0
M  V30 42 H -1.540866 1.351552 2.201851 0
M  V30 43 H -1.222950 6.417714 0.430447 0
M  V30 44 H -1.400978 5.309667 -0.961008 0
M  V30 45 H -3.227359 6.616439 -1.738370 0
M  V30 46 H -4.643001 6.805413 -0.678997 0
M  V30 47 H -3.204747 7.757756 -0.278054 0
M  V30 48 H 1.424132 -2.663244 -1.537815 0
M  V30 49 H 1.500132 -8.001408 -1.559416 0
M  V30 50 H 2.621369 -4.674567 -2.384090 0
M  V30 51 H 0.816068 -4.656289 -2.792214 0
M  V30 52 H 1.876446 -6.084767 -3.145623 0
M  V30 END ATOM
M  V30 BEGIN BOND
M  V30 1 1 1 2
M  V30 2 1 2 3
M  V30 3 2 3 4
M  V30 4 1 4 5
M  V30 5 1 5 6
M  V30 6 1 6 7
M  V30 7 1 7 8
M  V30 8 2 8 9
M  V30 9 1 9 10
M  V30 10 2 10 11
M  V30 11 1 11 12
M  V30 12 1 12 13
M  V30 13 1 13 14
M  V30 14 1 14 15
M  V30 15 1 14 16
M  V30 16 2 16 17
M  V30 17 1 16 18
M  V30 18 1 18 19
M  V30 19 1 19 20
M  V30 20 2 12 21
M  V30 21 2 7 22
M  V30 22 1 22 23
M  V30 23 1 23 24
M  V30 24 2 24 25
M  V30 25 1 25 26
M  V30 26 2 26 27
M  V30 27 1 27 28
M  V30 28 1 28 29
M  V30 29 1 25 3
M  V30 30 2 23 5
M  V30 31 1 28 24
M  V30 32 1 21 8
M  V30 33 1 1 30
M  V30 34 1 1 31
M  V30 35 1 1 32
M  V30 36 1 2 33
M  V30 37 1 6 34
M  V30 38 1 9 35
M  V30 39 1 10 36
M  V30 40 1 11 37
M  V30 41 1 13 38
M  V30 42 1 13 39
M  V30 43 1 15 40
M  V30 44 1 15 41
M  V30 45 1 15 42
M  V30 46 1 18 43
M  V30 47 1 18 44
M  V30 48 1 20 45
M  V30 49 1 20 46
M  V30 50 1 20 47
M  V30 51 1 22 48
M  V30 52 1 27 49
M  V30 53 1 29 50
M  V30 54 1 29 51
M  V30 55 1 29 52
M  V30 END BOND
M  V30 END CTAB
M  END
>  <Dataset>  (421) 
ChEMBL_Kinases

>  <Ligand_Instance>  (421) 
nan

>  <PDB_ID>  (421) 
nan

>  <Standardized_SMILES>  (421) 
CNc1nc2[nH]c(-c3cccc(CN(C)C(=O)COC)n3)cc2c2c1ncn2C

>  <Name>  (421) 
nan

>  <Pocket>  (421) 
nan

>  <ATP_Site>  (421) 
nan

>  <Peripheral>  (421) 
nan

>  <Num_H_Atoms_ProtBoundConf>  (421) 
nan

>  <Num_Resolved_Atoms>  (421) 
nan

>  <Num_Not_Resolved_Atoms>  (421) 
nan

$$$$
CHEMBL1923988
     RDKit          3D

  0  0  0  0  0  0  0  0  0  0999 V3000
M  V30 BEGIN CTAB
M  V30 COUNTS 56 59 0 0 0
M  V30 BEGIN ATOM
M  V30 1 C -5.909655 -5.823283 -0.228139 0
M  V30 2 N -4.624509 -5.346085 -0.199192 0
M  V30 3 C -3.271848 -4.843269 -0.168047 0
M  V30 4 N -2.713976 -3.942348 0.654321 0
M  V30 5 C -1.432079 -3.569630 0.527917 0
M  V30 6 N -0.736755 -2.688160 1.250487 0
M  V30 7 C 0.472114 -2.722892 0.665308 0
M  V30 8 C 1.541107 -1.846358 1.155028 0
M  V30 9 C 2.777445 -1.895989 0.553957 0
M  V30 10 C 3.762661 -1.049402 1.042620 0
M  V30 11 C 3.530123 -0.185368 2.088096 0
M  V30 12 C 2.280514 -0.162980 2.664197 0
M  V30 13 C 1.724000 0.707640 3.770323 0
M  V30 14 N 1.021829 1.830747 3.109047 0
M  V30 15 C 1.626510 2.977404 2.502925 0
M  V30 16 O 2.870126 2.888955 2.633413 0
M  V30 17 C 0.564747 3.845503 1.940674 0
M  V30 18 C 1.195410 5.003367 1.220706 0
M  V30 19 N 0.239999 5.890241 0.623128 0
M  V30 20 C -0.480564 5.323572 -0.474564 0
M  V30 21 C 0.520059 7.261964 0.589511 0
M  V30 22 N 1.344581 -0.994031 2.172621 0
M  V30 23 C 0.502432 -3.609600 -0.389163 0
M  V30 24 C -0.751240 -4.175327 -0.491570 0
M  V30 25 C -1.222479 -5.104186 -1.385126 0
M  V30 26 C -2.550007 -5.453967 -1.212797 0
M  V30 27 N -2.795346 -6.355728 -2.180261 0
M  V30 28 C -1.672965 -6.525095 -2.880725 0
M  V30 29 N -0.651328 -5.754054 -2.414561 0
M  V30 30 C 0.688205 -5.677058 -2.925047 0
M  V30 31 H -6.127464 -6.447803 -1.181423 0
M  V30 32 H -6.747179 -5.044857 -0.229381 0
M  V30 33 H -6.224035 -6.540193 0.597389 0
M  V30 34 H -4.929690 -4.800058 0.675700 0
M  V30 35 H -1.089254 -2.136542 2.056931 0
M  V30 36 H 3.040167 -2.545496 -0.269669 0
M  V30 37 H 4.763132 -1.021215 0.633476 0
M  V30 38 H 4.206246 0.513303 2.554831 0
M  V30 39 H 2.546486 1.040022 4.407836 0
M  V30 40 H 1.034147 0.133859 4.381312 0
M  V30 41 H -0.035363 1.663643 3.140320 0
M  V30 42 H -0.181092 4.145673 2.684520 0
M  V30 43 H -0.032712 3.290640 1.155530 0
M  V30 44 H 1.874005 5.612436 1.851476 0
M  V30 45 H 1.844701 4.662083 0.380034 0
M  V30 46 H -1.117232 4.471065 -0.262332 0
M  V30 47 H -1.125333 6.125288 -0.903849 0
M  V30 48 H 0.265264 5.114736 -1.288513 0
M  V30 49 H 0.541776 7.801199 1.533459 0
M  V30 50 H 1.547064 7.403444 0.133685 0
M  V30 51 H -0.147604 7.763634 -0.171929 0
M  V30 52 H 1.376966 -3.807474 -1.009487 0
M  V30 53 H -1.618649 -7.215267 -3.728324 0
M  V30 54 H 1.393744 -6.073879 -2.162669 0
M  V30 55 H 0.986979 -4.641627 -3.204650 0
M  V30 56 H 0.729322 -6.277062 -3.866514 0
M  V30 END ATOM
M  V30 BEGIN BOND
M  V30 1 1 1 2
M  V30 2 1 2 3
M  V30 3 2 3 4
M  V30 4 1 4 5
M  V30 5 1 5 6
M  V30 6 1 6 7
M  V30 7 1 7 8
M  V30 8 2 8 9
M  V30 9 1 9 10
M  V30 10 2 10 11
M  V30 11 1 11 12
M  V30 12 1 12 13
M  V30 13 1 13 14
M  V30 14 1 14 15
M  V30 15 2 15 16
M  V30 16 1 15 17
M  V30 17 1 17 18
M  V30 18 1 18 19
M  V30 19 1 19 20
M  V30 20 1 19 21
M  V30 21 2 12 22
M  V30 22 2 7 23
M  V30 23 1 23 24
M  V30 24 1 24 25
M  V30 25 2 25 26
M  V30 26 1 26 27
M  V30 27 2 27 28
M  V30 28 1 28 29
M  V30 29 1 29 30
M  V30 30 1 26 3
M  V30 31 2 24 5
M  V30 32 1 29 25
M  V30 33 1 22 8
M  V30 34 1 1 31
M  V30 35 1 1 32
M  V30 36 1 1 33
M  V30 37 1 2 34
M  V30 38 1 6 35
M  V30 39 1 9 36
M  V30 40 1 10 37
M  V30 41 1 11 38
M  V30 42 1 13 39
M  V30 43 1 13 40
M  V30 44 1 14 41
M  V30 45 1 17 42
M  V30 46 1 17 43
M  V30 47 1 18 44
M  V30 48 1 18 45
M  V30 49 1 20 46
M  V30 50 1 20 47
M  V30 51 1 20 48
M  V30 52 1 21 49
M  V30 53 1 21 50
M  V30 54 1 21 51
M  V30 55 1 23 52
M  V30 56 1 28 53
M  V30 57 1 30 54
M  V30 58 1 30 55
M  V30 59 1 30 56
M  V30 END BOND
M  V30 END CTAB
M  END
>  <Dataset>  (422) 
ChEMBL_Kinases

>  <Ligand_Instance>  (422) 
nan

>  <PDB_ID>  (422) 
nan

>  <Standardized_SMILES>  (422) 
CNc1nc2[nH]c(-c3cccc(CNC(=O)CCN(C)C)n3)cc2c2c1ncn2C

>  <Name>  (422) 
nan

>  <Pocket>  (422) 
nan

>  <ATP_Site>  (422) 
nan

>  <Peripheral>  (422) 
nan

>  <Num_H_Atoms_ProtBoundConf>  (422) 
nan

>  <Num_Resolved_Atoms>  (422) 
nan

>  <Num_Not_Resolved_Atoms>  (422) 
nan

$$$$
CHEMBL1923987
     RDKit          3D

  0  0  0  0  0  0  0  0  0  0999 V3000
M  V30 BEGIN CTAB
M  V30 COUNTS 50 53 0 0 0
M  V30 BEGIN ATOM
M  V30 1 C 3.496567 -0.177820 4.764599 0
M  V30 2 N 4.922786 -0.199117 4.732928 0
M  V30 3 C 5.412543 -1.452969 4.202069 0
M  V30 4 C 5.102916 -1.559733 2.765511 0
M  V30 5 O 5.535743 -2.659684 2.357597 0
M  V30 6 N 4.445603 -0.660103 1.888504 0
M  V30 7 C 4.208426 -0.882597 0.502988 0
M  V30 8 C 3.099813 -1.792862 0.173609 0
M  V30 9 C 3.261581 -3.149968 0.033102 0
M  V30 10 C 2.161632 -3.890945 -0.286968 0
M  V30 11 C 0.848875 -3.437929 -0.498305 0
M  V30 12 C 0.806901 -2.046849 -0.329155 0
M  V30 13 C -0.489918 -1.390985 -0.512329 0
M  V30 14 C -0.774323 -0.044947 -0.390944 0
M  V30 15 C -2.116461 0.139160 -0.645592 0
M  V30 16 C -2.677021 -1.091300 -0.926874 0
M  V30 17 N -3.975812 -1.270125 -1.225188 0
M  V30 18 C -4.819718 -0.189860 -1.260905 0
M  V30 19 N -6.181443 -0.308737 -1.569405 0
M  V30 20 C -6.774998 -1.596549 -1.864977 0
M  V30 21 C -4.226412 1.015519 -0.975437 0
M  V30 22 N -4.840483 2.221940 -0.941877 0
M  V30 23 C -3.919342 3.124627 -0.624979 0
M  V30 24 N -2.704136 2.585816 -0.441691 0
M  V30 25 C -1.434152 3.162774 -0.091545 0
M  V30 26 C -2.915648 1.275188 -0.663670 0
M  V30 27 N -1.670452 -1.977162 -0.835945 0
M  V30 28 N 1.867339 -1.290319 -0.014544 0
M  V30 29 H 3.045473 0.816833 4.547251 0
M  V30 30 H 3.199554 -0.409188 5.812277 0
M  V30 31 H 3.028280 -0.955550 4.140694 0
M  V30 32 H 5.396955 0.044572 5.611771 0
M  V30 33 H 5.008961 -2.268574 4.810312 0
M  V30 34 H 6.521965 -1.434257 4.390121 0
M  V30 35 H 4.144117 0.217905 2.383754 0
M  V30 36 H 5.146429 -1.240682 0.021002 0
M  V30 37 H 3.982799 0.101765 -0.004337 0
M  V30 38 H 4.215719 -3.626768 0.166742 0
M  V30 39 H 2.314685 -4.977163 -0.392155 0
M  V30 40 H 0.027623 -4.069512 -0.746168 0
M  V30 41 H -0.048185 0.715114 -0.136317 0
M  V30 42 H -6.765372 0.549812 -1.584375 0
M  V30 43 H -7.435714 -1.850600 -1.031987 0
M  V30 44 H -7.366061 -1.519947 -2.823442 0
M  V30 45 H -5.974482 -2.320455 -2.082206 0
M  V30 46 H -4.123923 4.202179 -0.520565 0
M  V30 47 H -0.608445 2.951114 -0.765139 0
M  V30 48 H -1.533074 4.262445 0.134118 0
M  V30 49 H -1.158268 2.717420 0.910527 0
M  V30 50 H -1.767923 -3.002366 -0.993193 0
M  V30 END ATOM
M  V30 BEGIN BOND
M  V30 1 1 1 2
M  V30 2 1 2 3
M  V30 3 1 3 4
M  V30 4 2 4 5
M  V30 5 1 4 6
M  V30 6 1 6 7
M  V30 7 1 7 8
M  V30 8 2 8 9
M  V30 9 1 9 10
M  V30 10 2 10 11
M  V30 11 1 11 12
M  V30 12 1 12 13
M  V30 13 2 13 14
M  V30 14 1 14 15
M  V30 15 2 15 16
M  V30 16 1 16 17
M  V30 17 2 17 18
M  V30 18 1 18 19
M  V30 19 1 19 20
M  V30 20 1 18 21
M  V30 21 1 21 22
M  V30 22 2 22 23
M  V30 23 1 23 24
M  V30 24 1 24 25
M  V30 25 1 24 26
M  V30 26 1 16 27
M  V30 27 2 12 28
M  V30 28 1 28 8
M  V30 29 1 27 13
M  V30 30 1 26 15
M  V30 31 2 26 21
M  V30 32 1 1 29
M  V30 33 1 1 30
M  V30 34 1 1 31
M  V30 35 1 2 32
M  V30 36 1 3 33
M  V30 37 1 3 34
M  V30 38 1 6 35
M  V30 39 1 7 36
M  V30 40 1 7 37
M  V30 41 1 9 38
M  V30 42 1 10 39
M  V30 43 1 11 40
M  V30 44 1 14 41
M  V30 45 1 19 42
M  V30 46 1 20 43
M  V30 47 1 20 44
M  V30 48 1 20 45
M  V30 49 1 23 46
M  V30 50 1 25 47
M  V30 51 1 25 48
M  V30 52 1 25 49
M  V30 53 1 27 50
M  V30 END BOND
M  V30 END CTAB
M  END
>  <Dataset>  (423) 
ChEMBL_Kinases

>  <Ligand_Instance>  (423) 
nan

>  <PDB_ID>  (423) 
nan

>  <Standardized_SMILES>  (423) 
CNCC(=O)NCc1cccc(-c2cc3c(nc(NC)c4ncn(C)c43)[nH]2)n1

>  <Name>  (423) 
nan

>  <Pocket>  (423) 
nan

>  <ATP_Site>  (423) 
nan

>  <Peripheral>  (423) 
nan

>  <Num_H_Atoms_ProtBoundConf>  (423) 
nan

>  <Num_Resolved_Atoms>  (423) 
nan

>  <Num_Not_Resolved_Atoms>  (423) 
nan

$$$$
CHEMBL1923986
     RDKit          3D

  0  0  0  0  0  0  0  0  0  0999 V3000
M  V30 BEGIN CTAB
M  V30 COUNTS 52 55 0 0 0
M  V30 BEGIN ATOM
M  V30 1 C -2.108134 -5.222183 3.316743 0
M  V30 2 N -1.391905 -5.794984 2.182058 0
M  V30 3 C -0.586898 -4.907560 1.412346 0
M  V30 4 N -0.474544 -3.590730 1.699549 0
M  V30 5 C 0.286488 -2.755343 0.971126 0
M  V30 6 N 0.488630 -1.422618 1.145207 0
M  V30 7 C 1.332188 -1.005222 0.169564 0
M  V30 8 C 1.786562 0.380727 0.027510 0
M  V30 9 C 2.643352 0.735281 -0.988157 0
M  V30 10 C 3.021837 2.076596 -1.046630 0
M  V30 11 C 2.526446 2.942756 -0.106406 0
M  V30 12 C 1.666743 2.587309 0.912897 0
M  V30 13 C 1.155551 3.565670 1.908238 0
M  V30 14 N -0.070444 4.107983 1.386396 0
M  V30 15 C -1.125996 3.198006 1.517754 0
M  V30 16 O -0.967474 2.043725 2.042624 0
M  V30 17 C -2.561745 3.278626 1.140280 0
M  V30 18 C -3.325058 3.160552 2.467012 0
M  V30 19 C -2.950313 2.144272 0.232697 0
M  V30 20 O -2.903609 4.488252 0.542558 0
M  V30 21 N 1.340352 1.288996 0.916563 0
M  V30 22 C 1.683410 -2.065272 -0.644946 0
M  V30 23 C 1.016902 -3.159969 -0.127158 0
M  V30 24 C 0.935910 -4.511376 -0.467306 0
M  V30 25 C 0.141302 -5.322219 0.313626 0
M  V30 26 N 0.243336 -6.555493 -0.229528 0
M  V30 27 C 1.068425 -6.497119 -1.299787 0
M  V30 28 N 1.504521 -5.224420 -1.454326 0
M  V30 29 C 2.404554 -4.711694 -2.472841 0
M  V30 30 H -1.339911 -4.770340 4.004539 0
M  V30 31 H -2.654890 -4.326664 2.903478 0
M  V30 32 H -2.780770 -5.926360 3.802306 0
M  V30 33 H -1.409298 -6.790803 1.876746 0
M  V30 34 H 0.057338 -0.839981 1.907555 0
M  V30 35 H 3.002062 0.012215 -1.700552 0
M  V30 36 H 3.695845 2.379489 -1.837436 0
M  V30 37 H 2.858072 3.980734 -0.202958 0
M  V30 38 H 1.900424 4.372212 2.086994 0
M  V30 39 H 1.030308 3.048991 2.866947 0
M  V30 40 H -0.376103 4.984893 0.944485 0
M  V30 41 H -2.788471 3.801734 3.213919 0
M  V30 42 H -4.349856 3.537047 2.340184 0
M  V30 43 H -3.321097 2.118947 2.840949 0
M  V30 44 H -3.564181 1.415577 0.810574 0
M  V30 45 H -3.543325 2.455405 -0.627632 0
M  V30 46 H -2.046268 1.552375 -0.094959 0
M  V30 47 H -3.461531 5.032516 1.159438 0
M  V30 48 H 2.329066 -2.081236 -1.502578 0
M  V30 49 H 1.354710 -7.310831 -1.947269 0
M  V30 50 H 1.979934 -3.871829 -3.057380 0
M  V30 51 H 2.626561 -5.499540 -3.230033 0
M  V30 52 H 3.385334 -4.423642 -2.041290 0
M  V30 END ATOM
M  V30 BEGIN BOND
M  V30 1 1 1 2
M  V30 2 1 2 3
M  V30 3 2 3 4
M  V30 4 1 4 5
M  V30 5 1 5 6
M  V30 6 1 6 7
M  V30 7 1 7 8
M  V30 8 2 8 9
M  V30 9 1 9 10
M  V30 10 2 10 11
M  V30 11 1 11 12
M  V30 12 1 12 13
M  V30 13 1 13 14
M  V30 14 1 14 15
M  V30 15 2 15 16
M  V30 16 1 15 17
M  V30 17 1 17 18
M  V30 18 1 17 19
M  V30 19 1 17 20
M  V30 20 2 12 21
M  V30 21 2 7 22
M  V30 22 1 22 23
M  V30 23 1 23 24
M  V30 24 2 24 25
M  V30 25 1 25 26
M  V30 26 2 26 27
M  V30 27 1 27 28
M  V30 28 1 28 29
M  V30 29 1 25 3
M  V30 30 2 23 5
M  V30 31 1 28 24
M  V30 32 1 21 8
M  V30 33 1 1 30
M  V30 34 1 1 31
M  V30 35 1 1 32
M  V30 36 1 2 33
M  V30 37 1 6 34
M  V30 38 1 9 35
M  V30 39 1 10 36
M  V30 40 1 11 37
M  V30 41 1 13 38
M  V30 42 1 13 39
M  V30 43 1 14 40
M  V30 44 1 18 41
M  V30 45 1 18 42
M  V30 46 1 18 43
M  V30 47 1 19 44
M  V30 48 1 19 45
M  V30 49 1 19 46
M  V30 50 1 20 47
M  V30 51 1 22 48
M  V30 52 1 27 49
M  V30 53 1 29 50
M  V30 54 1 29 51
M  V30 55 1 29 52
M  V30 END BOND
M  V30 END CTAB
M  END
>  <Dataset>  (424) 
ChEMBL_Kinases

>  <Ligand_Instance>  (424) 
nan

>  <PDB_ID>  (424) 
nan

>  <Standardized_SMILES>  (424) 
CNc1nc2[nH]c(-c3cccc(CNC(=O)C(C)(C)O)n3)cc2c2c1ncn2C

>  <Name>  (424) 
nan

>  <Pocket>  (424) 
nan

>  <ATP_Site>  (424) 
nan

>  <Peripheral>  (424) 
nan

>  <Num_H_Atoms_ProtBoundConf>  (424) 
nan

>  <Num_Resolved_Atoms>  (424) 
nan

>  <Num_Not_Resolved_Atoms>  (424) 
nan

$$$$
CHEMBL1923181
     RDKit          3D

  0  0  0  0  0  0  0  0  0  0999 V3000
M  V30 BEGIN CTAB
M  V30 COUNTS 46 49 0 0 0
M  V30 BEGIN ATOM
M  V30 1 C 3.251581 -3.713440 2.183575 0
M  V30 2 O 4.019169 -3.575776 1.010666 0
M  V30 3 C 4.215805 -2.411508 0.306601 0
M  V30 4 C 5.017123 -2.551871 -0.816297 0
M  V30 5 C 5.314463 -1.487962 -1.631910 0
M  V30 6 C 4.801364 -0.235629 -1.328452 0
M  V30 7 C 4.008707 -0.085295 -0.221796 0
M  V30 8 C 3.388680 1.185229 0.231709 0 CFG=1
M  V30 9 C 3.611456 2.346887 -0.662695 0
M  V30 10 N 2.031351 0.916752 0.580364 0
M  V30 11 C 1.336089 0.906830 1.815270 0
M  V30 12 O 1.953142 1.174745 2.864270 0
M  V30 13 C -0.089207 0.584883 1.850074 0
M  V30 14 C -0.815051 0.560409 3.023190 0
M  V30 15 C -2.098967 0.221191 2.646927 0
M  V30 16 C -3.298191 0.025877 3.302193 0
M  V30 17 C -4.477380 -0.319621 2.675409 0
M  V30 18 C -4.398739 -0.466991 1.305573 0
M  V30 19 C -5.599003 -0.831394 0.562044 0
M  V30 20 C -6.871009 -1.065930 1.030388 0
M  V30 21 N -7.670564 -1.375517 -0.018709 0
M  V30 22 N -6.942714 -1.344180 -1.138924 0
M  V30 23 C -5.690565 -1.017459 -0.805892 0
M  V30 24 N -3.237366 -0.280480 0.649126 0
M  V30 25 C -2.092108 0.057199 1.275470 0
M  V30 26 N -0.857029 0.280797 0.786546 0
M  V30 27 C 3.698523 -1.162332 0.617311 0
M  V30 28 H 3.950479 -3.813350 3.065087 0
M  V30 29 H 2.668018 -4.659603 2.163447 0
M  V30 30 H 2.555536 -2.881759 2.362361 0
M  V30 31 H 5.470360 -3.479156 -1.148316 0
M  V30 32 H 5.927310 -1.505027 -2.522975 0
M  V30 33 H 4.923910 0.705352 -1.844232 0
M  V30 34 H 3.916906 1.423427 1.201864 0
M  V30 35 H 3.299617 3.251540 -0.098152 0
M  V30 36 H 3.166783 2.261902 -1.660316 0
M  V30 37 H 4.708048 2.454772 -0.798642 0
M  V30 38 H 1.563128 0.698936 -0.335839 0
M  V30 39 H -0.487210 0.757812 4.036987 0
M  V30 40 H -3.268202 0.161714 4.370569 0
M  V30 41 H -5.376199 -0.458433 3.229279 0
M  V30 42 H -7.145255 -1.001843 2.081270 0
M  V30 43 H -7.208258 -1.526163 -2.143224 0
M  V30 44 H -4.832615 -0.902860 -1.482946 0
M  V30 45 H -0.533056 0.237749 -0.184140 0
M  V30 46 H 3.079438 -1.106891 1.503786 0
M  V30 END ATOM
M  V30 BEGIN BOND
M  V30 1 1 1 2
M  V30 2 1 2 3
M  V30 3 2 3 4
M  V30 4 1 4 5
M  V30 5 2 5 6
M  V30 6 1 6 7
M  V30 7 1 7 8
M  V30 8 1 8 9
M  V30 9 1 8 10
M  V30 10 1 10 11
M  V30 11 2 11 12
M  V30 12 1 11 13
M  V30 13 2 13 14
M  V30 14 1 14 15
M  V30 15 2 15 16
M  V30 16 1 16 17
M  V30 17 2 17 18
M  V30 18 1 18 19
M  V30 19 1 19 20
M  V30 20 2 20 21
M  V30 21 1 21 22
M  V30 22 1 22 23
M  V30 23 1 18 24
M  V30 24 2 24 25
M  V30 25 1 25 26
M  V30 26 2 7 27
M  V30 27 1 27 3
M  V30 28 1 26 13
M  V30 29 1 25 15
M  V30 30 2 23 19
M  V30 31 1 1 28
M  V30 32 1 1 29
M  V30 33 1 1 30
M  V30 34 1 4 31
M  V30 35 1 5 32
M  V30 36 1 6 33
M  V30 37 1 8 34 CFG=1
M  V30 38 1 9 35
M  V30 39 1 9 36
M  V30 40 1 9 37
M  V30 41 1 10 38
M  V30 42 1 14 39
M  V30 43 1 16 40
M  V30 44 1 17 41
M  V30 45 1 20 42
M  V30 46 1 22 43
M  V30 47 1 23 44
M  V30 48 1 26 45
M  V30 49 1 27 46
M  V30 END BOND
M  V30 END CTAB
M  END
>  <Dataset>  (425) 
ChEMBL_Kinases

>  <Ligand_Instance>  (425) 
nan

>  <PDB_ID>  (425) 
nan

>  <Standardized_SMILES>  (425) 
COc1cccc([C@@H](C)NC(=O)c2cc3ccc(-c4cn[nH]c4)nc3[nH]2)c1

>  <Name>  (425) 
nan

>  <Pocket>  (425) 
nan

>  <ATP_Site>  (425) 
nan

>  <Peripheral>  (425) 
nan

>  <Num_H_Atoms_ProtBoundConf>  (425) 
nan

>  <Num_Resolved_Atoms>  (425) 
nan

>  <Num_Not_Resolved_Atoms>  (425) 
nan

$$$$
CHEMBL1923182
     RDKit          3D

  0  0  0  0  0  0  0  0  0  0999 V3000
M  V30 BEGIN CTAB
M  V30 COUNTS 46 49 0 0 0
M  V30 BEGIN ATOM
M  V30 1 C 2.476584 -2.911449 -2.477526 0
M  V30 2 O 3.215382 -1.892463 -3.158228 0
M  V30 3 C 3.709642 -0.782935 -2.455406 0
M  V30 4 C 4.429519 0.222646 -3.084247 0
M  V30 5 C 4.873418 1.267989 -2.320730 0
M  V30 6 C 4.642116 1.366657 -0.976874 0
M  V30 7 C 3.918120 0.359302 -0.333648 0
M  V30 8 C 3.653710 0.451358 1.146613 0 CFG=2
M  V30 9 C 4.556919 -0.488698 1.906789 0
M  V30 10 N 2.246589 0.104893 1.314826 0
M  V30 11 C 1.377751 1.091181 1.835916 0
M  V30 12 O 1.764859 2.244073 2.157293 0
M  V30 13 C -0.039696 0.780768 2.018762 0
M  V30 14 C -1.009316 1.637245 2.515552 0
M  V30 15 C -2.245600 0.988253 2.543433 0
M  V30 16 C -3.527950 1.332294 2.926138 0
M  V30 17 C -4.539770 0.376718 2.801323 0
M  V30 18 C -4.244702 -0.876805 2.304804 0
M  V30 19 C -5.344115 -1.851335 2.191280 0
M  V30 20 C -6.680480 -1.670762 2.528215 0
M  V30 21 N -7.320184 -2.823749 2.258267 0
M  V30 22 N -6.446334 -3.685451 1.779217 0
M  V30 23 C -5.211017 -3.151701 1.711543 0
M  V30 24 N -2.972038 -1.199029 1.931679 0
M  V30 25 C -1.978502 -0.288792 2.044475 0
M  V30 26 N -0.669886 -0.378371 1.744879 0
M  V30 27 C 3.469970 -0.694195 -1.099462 0
M  V30 28 H 3.125807 -3.253176 -1.643825 0
M  V30 29 H 2.285196 -3.721168 -3.183715 0
M  V30 30 H 1.550413 -2.413636 -2.113427 0
M  V30 31 H 4.588087 0.103646 -4.144476 0
M  V30 32 H 5.427944 2.018975 -2.869065 0
M  V30 33 H 5.007744 2.206719 -0.404797 0
M  V30 34 H 3.879053 1.471193 1.454414 0
M  V30 35 H 4.809000 -0.013135 2.873593 0
M  V30 36 H 5.498221 -0.579362 1.325177 0
M  V30 37 H 4.066787 -1.475456 2.045093 0
M  V30 38 H 1.947898 -0.849152 1.044442 0
M  V30 39 H -0.845821 2.657626 2.836905 0
M  V30 40 H -3.707804 2.325165 3.308361 0
M  V30 41 H -5.537186 0.675141 3.109710 0
M  V30 42 H -7.066816 -0.733821 2.933458 0
M  V30 43 H -6.680859 -4.660181 1.488172 0
M  V30 44 H -4.303167 -3.628348 1.359491 0
M  V30 45 H -0.168556 -1.214006 1.351396 0
M  V30 46 H 2.907367 -1.491136 -0.637892 0
M  V30 END ATOM
M  V30 BEGIN BOND
M  V30 1 1 1 2
M  V30 2 1 2 3
M  V30 3 2 3 4
M  V30 4 1 4 5
M  V30 5 2 5 6
M  V30 6 1 6 7
M  V30 7 1 7 8
M  V30 8 1 8 9
M  V30 9 1 8 10
M  V30 10 1 10 11
M  V30 11 2 11 12
M  V30 12 1 11 13
M  V30 13 2 13 14
M  V30 14 1 14 15
M  V30 15 2 15 16
M  V30 16 1 16 17
M  V30 17 2 17 18
M  V30 18 1 18 19
M  V30 19 1 19 20
M  V30 20 2 20 21
M  V30 21 1 21 22
M  V30 22 1 22 23
M  V30 23 1 18 24
M  V30 24 2 24 25
M  V30 25 1 25 26
M  V30 26 2 7 27
M  V30 27 1 27 3
M  V30 28 1 26 13
M  V30 29 1 25 15
M  V30 30 2 23 19
M  V30 31 1 1 28
M  V30 32 1 1 29
M  V30 33 1 1 30
M  V30 34 1 4 31
M  V30 35 1 5 32
M  V30 36 1 6 33
M  V30 37 1 8 34 CFG=1
M  V30 38 1 9 35
M  V30 39 1 9 36
M  V30 40 1 9 37
M  V30 41 1 10 38
M  V30 42 1 14 39
M  V30 43 1 16 40
M  V30 44 1 17 41
M  V30 45 1 20 42
M  V30 46 1 22 43
M  V30 47 1 23 44
M  V30 48 1 26 45
M  V30 49 1 27 46
M  V30 END BOND
M  V30 END CTAB
M  END
>  <Dataset>  (426) 
ChEMBL_Kinases

>  <Ligand_Instance>  (426) 
nan

>  <PDB_ID>  (426) 
nan

>  <Standardized_SMILES>  (426) 
COc1cccc([C@H](C)NC(=O)c2cc3ccc(-c4cn[nH]c4)nc3[nH]2)c1

>  <Name>  (426) 
nan

>  <Pocket>  (426) 
nan

>  <ATP_Site>  (426) 
nan

>  <Peripheral>  (426) 
nan

>  <Num_H_Atoms_ProtBoundConf>  (426) 
nan

>  <Num_Resolved_Atoms>  (426) 
nan

>  <Num_Not_Resolved_Atoms>  (426) 
nan

$$$$
CHEMBL1923183
     RDKit          3D

  0  0  0  0  0  0  0  0  0  0999 V3000
M  V30 BEGIN CTAB
M  V30 COUNTS 42 45 0 0 0
M  V30 BEGIN ATOM
M  V30 1 C 0.567298 -7.014212 -2.713691 0
M  V30 2 O 0.873428 -5.661628 -2.862935 0
M  V30 3 C -0.096419 -4.671966 -2.809162 0
M  V30 4 C -1.425833 -4.875308 -2.610918 0
M  V30 5 C -2.331822 -3.835074 -2.569978 0
M  V30 6 C -1.802648 -2.581683 -2.742316 0
M  V30 7 C -0.449636 -2.294497 -2.950372 0
M  V30 8 C -0.079275 -0.864554 -3.118144 0
M  V30 9 N 0.198164 -0.288349 -1.803217 0
M  V30 10 C 1.358424 -0.472406 -1.043292 0
M  V30 11 O 2.296728 -1.191544 -1.472794 0
M  V30 12 C 1.389721 0.244669 0.299149 0
M  V30 13 N 0.892443 0.913104 1.052850 0
M  V30 14 C 1.314964 1.337757 2.229776 0
M  V30 15 C 0.638241 2.177807 3.128150 0
M  V30 16 C 1.273416 2.493577 4.306726 0
M  V30 17 C 0.563691 3.379140 5.260040 0
M  V30 18 C 1.008869 3.819174 6.488419 0
M  V30 19 C 0.037759 4.624176 7.047867 0
M  V30 20 N -0.978312 4.668242 6.168155 0
M  V30 21 N -0.659505 3.924722 5.105158 0
M  V30 22 C 2.533595 2.059473 4.703260 0
M  V30 23 C 3.200424 1.233652 3.821859 0
M  V30 24 C 2.551917 0.913684 2.623096 0
M  V30 25 S 3.024837 -0.101220 1.212018 0
M  V30 26 C 0.393253 -3.384006 -2.979067 0
M  V30 27 H 1.309854 -7.669923 -3.255022 0
M  V30 28 H 0.646950 -7.345077 -1.652603 0
M  V30 29 H -0.437517 -7.313159 -3.052232 0
M  V30 30 H -1.779956 -5.889777 -2.481606 0
M  V30 31 H -3.392183 -3.974501 -2.414010 0
M  V30 32 H -2.509151 -1.761068 -2.711138 0
M  V30 33 H 0.852964 -0.801493 -3.718003 0
M  V30 34 H -0.918671 -0.358278 -3.613335 0
M  V30 35 H -0.581243 0.326444 -1.416288 0
M  V30 36 H -0.364348 2.607395 2.966557 0
M  V30 37 H 1.960027 3.562422 6.915740 0
M  V30 38 H 0.051643 5.140725 8.009190 0
M  V30 39 H -1.905461 5.171807 6.215638 0
M  V30 40 H 3.014878 2.318117 5.631072 0
M  V30 41 H 4.183568 0.812177 3.979736 0
M  V30 42 H 1.439819 -3.171088 -3.142617 0
M  V30 END ATOM
M  V30 BEGIN BOND
M  V30 1 1 1 2
M  V30 2 1 2 3
M  V30 3 2 3 4
M  V30 4 1 4 5
M  V30 5 2 5 6
M  V30 6 1 6 7
M  V30 7 1 7 8
M  V30 8 1 8 9
M  V30 9 1 9 10
M  V30 10 2 10 11
M  V30 11 1 10 12
M  V30 12 2 12 13
M  V30 13 1 13 14
M  V30 14 2 14 15
M  V30 15 1 15 16
M  V30 16 1 16 17
M  V30 17 1 17 18
M  V30 18 2 18 19
M  V30 19 1 19 20
M  V30 20 1 20 21
M  V30 21 2 16 22
M  V30 22 1 22 23
M  V30 23 2 23 24
M  V30 24 1 24 25
M  V30 25 2 7 26
M  V30 26 1 26 3
M  V30 27 1 25 12
M  V30 28 1 24 14
M  V30 29 2 21 17
M  V30 30 1 1 27
M  V30 31 1 1 28
M  V30 32 1 1 29
M  V30 33 1 4 30
M  V30 34 1 5 31
M  V30 35 1 6 32
M  V30 36 1 8 33
M  V30 37 1 8 34
M  V30 38 1 9 35
M  V30 39 1 15 36
M  V30 40 1 18 37
M  V30 41 1 19 38
M  V30 42 1 20 39
M  V30 43 1 22 40
M  V30 44 1 23 41
M  V30 45 1 26 42
M  V30 END BOND
M  V30 END CTAB
M  END
>  <Dataset>  (427) 
ChEMBL_Kinases

>  <Ligand_Instance>  (427) 
nan

>  <PDB_ID>  (427) 
nan

>  <Standardized_SMILES>  (427) 
COc1cccc(CNC(=O)c2nc3cc(-c4cc[nH]n4)ccc3s2)c1

>  <Name>  (427) 
nan

>  <Pocket>  (427) 
nan

>  <ATP_Site>  (427) 
nan

>  <Peripheral>  (427) 
nan

>  <Num_H_Atoms_ProtBoundConf>  (427) 
nan

>  <Num_Resolved_Atoms>  (427) 
nan

>  <Num_Not_Resolved_Atoms>  (427) 
nan

$$$$
CHEMBL192374
     RDKit          3D

  0  0  0  0  0  0  0  0  0  0999 V3000
M  V30 BEGIN CTAB
M  V30 COUNTS 40 43 0 0 0
M  V30 BEGIN ATOM
M  V30 1 Cl -0.199338 -5.967977 2.975402 0
M  V30 2 C 0.235463 -4.439038 2.390003 0
M  V30 3 C 1.252564 -3.764094 2.988287 0
M  V30 4 C 1.625042 -2.499046 2.469015 0
M  V30 5 C 0.869506 -2.080472 1.341369 0
M  V30 6 C -0.144636 -2.850338 0.742911 0
M  V30 7 C -0.270690 -2.072555 -0.489094 0
M  V30 8 N -0.367528 -1.411249 -1.539728 0
M  V30 9 C 0.109320 -0.068134 -1.485515 0
M  V30 10 N 0.359033 1.035705 -0.786977 0
M  V30 11 C 0.794677 2.152712 -1.236332 0
M  V30 12 N 1.001449 3.357984 -0.217536 0
M  V30 13 C 0.577292 2.668348 0.956868 0
M  V30 14 C 1.707270 2.007339 1.527870 0
M  V30 15 C 1.265700 1.043172 2.500892 0
M  V30 16 C -0.136566 0.866838 2.769635 0
M  V30 17 N -0.540439 -0.144744 3.586103 0
M  V30 18 C -1.897875 0.009094 3.387729 0
M  V30 19 N -2.229445 0.982228 2.571616 0
M  V30 20 C -1.013788 1.595833 2.122159 0
M  V30 21 C -0.756452 2.561824 1.164474 0
M  V30 22 N 1.106519 2.366654 -2.489300 0
M  V30 23 C 0.948955 1.376213 -3.443292 0
M  V30 24 C 0.454754 0.190463 -2.860319 0
M  V30 25 Br 0.263130 -1.161657 -4.231552 0
M  V30 26 C -0.473019 -4.064680 1.281321 0
M  V30 27 Cl -1.679946 -4.760233 0.384405 0
M  V30 28 H 1.777966 -4.109911 3.838150 0
M  V30 29 H 2.425078 -1.993939 2.997392 0
M  V30 30 H 1.351203 -1.141770 1.058789 0
M  V30 31 H -1.049940 -3.082075 -0.998939 0
M  V30 32 H 0.731826 -2.828835 -1.041767 0
M  V30 33 H -0.943947 -1.706209 -2.313474 0
M  V30 34 H 1.257865 4.159009 -0.712615 0
M  V30 35 H 2.690071 2.256782 1.264952 0
M  V30 36 H 2.091543 0.534570 2.999946 0
M  V30 37 H -0.117079 -0.826089 4.149506 0
M  V30 38 H -2.727658 -0.580333 3.823099 0
M  V30 39 H -1.447155 3.126872 0.721608 0
M  V30 40 H 1.302752 1.413293 -4.461235 0
M  V30 END ATOM
M  V30 BEGIN BOND
M  V30 1 1 1 2
M  V30 2 2 2 3
M  V30 3 1 3 4
M  V30 4 2 4 5
M  V30 5 1 5 6
M  V30 6 1 6 7
M  V30 7 1 7 8
M  V30 8 1 8 9
M  V30 9 2 9 10
M  V30 10 1 10 11
M  V30 11 1 11 12
M  V30 12 1 12 13
M  V30 13 2 13 14
M  V30 14 1 14 15
M  V30 15 2 15 16
M  V30 16 1 16 17
M  V30 17 1 17 18
M  V30 18 2 18 19
M  V30 19 1 19 20
M  V30 20 2 20 21
M  V30 21 2 11 22
M  V30 22 1 22 23
M  V30 23 2 23 24
M  V30 24 1 24 25
M  V30 25 2 6 26
M  V30 26 1 26 27
M  V30 27 1 26 2
M  V30 28 1 24 9
M  V30 29 1 21 13
M  V30 30 1 20 16
M  V30 31 1 3 28
M  V30 32 1 4 29
M  V30 33 1 5 30
M  V30 34 1 7 31
M  V30 35 1 7 32
M  V30 36 1 8 33
M  V30 37 1 12 34
M  V30 38 1 14 35
M  V30 39 1 15 36
M  V30 40 1 17 37
M  V30 41 1 18 38
M  V30 42 1 21 39
M  V30 43 1 23 40
M  V30 END BOND
M  V30 END CTAB
M  END
>  <Dataset>  (428) 
ChEMBL_Kinases

>  <Ligand_Instance>  (428) 
nan

>  <PDB_ID>  (428) 
nan

>  <Standardized_SMILES>  (428) 
Clc1cccc(CNc2nc(Nc3ccc4[nH]cnc4c3)ncc2Br)c1Cl

>  <Name>  (428) 
nan

>  <Pocket>  (428) 
nan

>  <ATP_Site>  (428) 
nan

>  <Peripheral>  (428) 
nan

>  <Num_H_Atoms_ProtBoundConf>  (428) 
nan

>  <Num_Resolved_Atoms>  (428) 
nan

>  <Num_Not_Resolved_Atoms>  (428) 
nan

$$$$
CHEMBL1923972
     RDKit          3D

  0  0  0  0  0  0  0  0  0  0999 V3000
M  V30 BEGIN CTAB
M  V30 COUNTS 45 48 0 0 0
M  V30 BEGIN ATOM
M  V30 1 C 1.286991 -5.285456 4.022890 0
M  V30 2 N 0.064241 -5.436809 3.259990 0
M  V30 3 C -0.297759 -4.414044 2.316126 0
M  V30 4 N 0.496933 -3.321229 2.144750 0
M  V30 5 C 0.152727 -2.360535 1.255318 0
M  V30 6 N 0.823680 -1.209906 0.957526 0
M  V30 7 C 0.112067 -0.564109 0.019202 0
M  V30 8 C 0.514321 0.719108 -0.558271 0
M  V30 9 C -0.228863 1.369483 -1.521651 0
M  V30 10 C 0.226374 2.576786 -2.009599 0
M  V30 11 C 1.418912 3.142797 -1.544495 0
M  V30 12 C 2.138818 2.468638 -0.581374 0
M  V30 13 C 3.422277 2.903608 0.044991 0
M  V30 14 N 3.071329 3.654545 1.236477 0
M  V30 15 C 2.588121 4.985550 1.348497 0
M  V30 16 C 2.267937 5.628361 2.633634 0
M  V30 17 O 2.428492 5.645050 0.270669 0
M  V30 18 N 1.652270 1.303260 -0.143946 0
M  V30 19 C -1.016258 -1.295158 -0.288880 0
M  V30 20 C -1.001439 -2.439802 0.490918 0
M  V30 21 C -1.826000 -3.537258 0.644245 0
M  V30 22 C -1.436731 -4.474202 1.549648 0
M  V30 23 N -2.412756 -5.425711 1.497213 0
M  V30 24 C -3.346364 -5.052908 0.585476 0
M  V30 25 N -2.971847 -3.865202 0.052857 0
M  V30 26 C -3.681501 -3.111841 -0.956203 0
M  V30 27 H 2.106063 -5.638609 3.340793 0
M  V30 28 H 1.274177 -5.840229 4.983674 0
M  V30 29 H 1.456433 -4.206247 4.173474 0
M  V30 30 H -0.602982 -6.244662 3.331753 0
M  V30 31 H 1.734650 -0.893937 1.391542 0
M  V30 32 H -1.149246 0.924947 -1.876289 0
M  V30 33 H -0.327954 3.124305 -2.771529 0
M  V30 34 H 1.831211 4.074501 -1.881648 0
M  V30 35 H 3.949578 3.540400 -0.698736 0
M  V30 36 H 4.013194 2.026241 0.345737 0
M  V30 37 H 3.172481 3.184342 2.186705 0
M  V30 38 H 1.891044 4.900830 3.388118 0
M  V30 39 H 1.410267 6.334220 2.477349 0
M  V30 40 H 3.096569 6.198865 3.081064 0
M  V30 41 H -1.778481 -1.041155 -0.999288 0
M  V30 42 H -4.242165 -5.587742 0.309578 0
M  V30 43 H -2.960394 -2.966466 -1.808756 0
M  V30 44 H -3.995893 -2.128596 -0.600087 0
M  V30 45 H -4.495690 -3.737031 -1.379316 0
M  V30 END ATOM
M  V30 BEGIN BOND
M  V30 1 1 1 2
M  V30 2 1 2 3
M  V30 3 2 3 4
M  V30 4 1 4 5
M  V30 5 1 5 6
M  V30 6 1 6 7
M  V30 7 1 7 8
M  V30 8 2 8 9
M  V30 9 1 9 10
M  V30 10 2 10 11
M  V30 11 1 11 12
M  V30 12 1 12 13
M  V30 13 1 13 14
M  V30 14 1 14 15
M  V30 15 1 15 16
M  V30 16 2 15 17
M  V30 17 2 12 18
M  V30 18 2 7 19
M  V30 19 1 19 20
M  V30 20 1 20 21
M  V30 21 2 21 22
M  V30 22 1 22 23
M  V30 23 2 23 24
M  V30 24 1 24 25
M  V30 25 1 25 26
M  V30 26 1 22 3
M  V30 27 2 20 5
M  V30 28 1 25 21
M  V30 29 1 18 8
M  V30 30 1 1 27
M  V30 31 1 1 28
M  V30 32 1 1 29
M  V30 33 1 2 30
M  V30 34 1 6 31
M  V30 35 1 9 32
M  V30 36 1 10 33
M  V30 37 1 11 34
M  V30 38 1 13 35
M  V30 39 1 13 36
M  V30 40 1 14 37
M  V30 41 1 16 38
M  V30 42 1 16 39
M  V30 43 1 16 40
M  V30 44 1 19 41
M  V30 45 1 24 42
M  V30 46 1 26 43
M  V30 47 1 26 44
M  V30 48 1 26 45
M  V30 END BOND
M  V30 END CTAB
M  END
>  <Dataset>  (429) 
ChEMBL_Kinases

>  <Ligand_Instance>  (429) 
nan

>  <PDB_ID>  (429) 
nan

>  <Standardized_SMILES>  (429) 
CNc1nc2[nH]c(-c3cccc(CNC(C)=O)n3)cc2c2c1ncn2C

>  <Name>  (429) 
nan

>  <Pocket>  (429) 
nan

>  <ATP_Site>  (429) 
nan

>  <Peripheral>  (429) 
nan

>  <Num_H_Atoms_ProtBoundConf>  (429) 
nan

>  <Num_Resolved_Atoms>  (429) 
nan

>  <Num_Not_Resolved_Atoms>  (429) 
nan

$$$$
CHEMBL1923973
     RDKit          3D

  0  0  0  0  0  0  0  0  0  0999 V3000
M  V30 BEGIN CTAB
M  V30 COUNTS 48 51 0 0 0
M  V30 BEGIN ATOM
M  V30 1 C -2.678387 -4.436370 5.315829 0
M  V30 2 N -2.373632 -3.707614 4.163865 0
M  V30 3 C -2.067616 -2.977304 3.010860 0
M  V30 4 N -1.151034 -2.027361 2.798521 0
M  V30 5 C -1.019498 -1.426121 1.604703 0
M  V30 6 N -0.140154 -0.474846 1.274393 0
M  V30 7 C -0.463091 -0.276449 -0.012799 0
M  V30 8 C 0.290893 0.677561 -0.795637 0
M  V30 9 C -0.011178 0.928713 -2.154818 0
M  V30 10 C 0.746037 1.870849 -2.896184 0
M  V30 11 C 1.809690 2.558213 -2.259288 0
M  V30 12 C 2.122089 2.311868 -0.893396 0
M  V30 13 C 3.224560 2.990827 -0.191677 0
M  V30 14 C 2.787685 4.134546 0.688743 0
M  V30 15 N 3.853166 1.992933 0.669042 0
M  V30 16 C 5.048878 1.299602 0.935832 0
M  V30 17 C 5.091359 0.306048 2.033898 0
M  V30 18 O 6.081625 1.518362 0.245062 0
M  V30 19 N 1.219369 1.504109 -0.839690 0
M  V30 20 C -1.494808 -1.066784 -0.458507 0
M  V30 21 C -1.868945 -1.834212 0.618984 0
M  V30 22 C -2.839838 -2.792241 0.721612 0
M  V30 23 C -2.933588 -3.379126 1.969118 0
M  V30 24 N -3.936104 -4.297837 1.834601 0
M  V30 25 C -4.372280 -4.215554 0.568307 0
M  V30 26 N -3.712143 -3.286475 -0.156428 0
M  V30 27 C -3.998526 -3.010683 -1.539049 0
M  V30 28 H -2.025928 -5.305872 5.569018 0
M  V30 29 H -2.930609 -3.829513 6.245993 0
M  V30 30 H -3.700476 -4.943055 5.099842 0
M  V30 31 H -1.589563 -3.294806 4.779058 0
M  V30 32 H 0.579394 -0.031345 1.868889 0
M  V30 33 H -0.841650 0.397777 -2.678407 0
M  V30 34 H 0.490347 2.058411 -3.977948 0
M  V30 35 H 2.386781 3.300444 -2.873963 0
M  V30 36 H 4.003743 3.330731 -0.905725 0
M  V30 37 H 3.520643 4.196906 1.520055 0
M  V30 38 H 1.810304 3.915596 1.135450 0
M  V30 39 H 2.797328 5.101375 0.132866 0
M  V30 40 H 3.046834 1.734031 1.311312 0
M  V30 41 H 5.562146 0.757406 2.919550 0
M  V30 42 H 5.694918 -0.580803 1.747173 0
M  V30 43 H 4.052543 0.020266 2.304380 0
M  V30 44 H -1.820866 -0.983146 -1.473403 0
M  V30 45 H -5.174101 -4.850469 0.214844 0
M  V30 46 H -3.425861 -3.773695 -2.147327 0
M  V30 47 H -3.813527 -1.989824 -1.839611 0
M  V30 48 H -5.092905 -3.282282 -1.713222 0
M  V30 END ATOM
M  V30 BEGIN BOND
M  V30 1 1 1 2
M  V30 2 1 2 3
M  V30 3 2 3 4
M  V30 4 1 4 5
M  V30 5 1 5 6
M  V30 6 1 6 7
M  V30 7 1 7 8
M  V30 8 2 8 9
M  V30 9 1 9 10
M  V30 10 2 10 11
M  V30 11 1 11 12
M  V30 12 1 12 13
M  V30 13 1 13 14
M  V30 14 1 13 15
M  V30 15 1 15 16
M  V30 16 1 16 17
M  V30 17 2 16 18
M  V30 18 2 12 19
M  V30 19 2 7 20
M  V30 20 1 20 21
M  V30 21 1 21 22
M  V30 22 2 22 23
M  V30 23 1 23 24
M  V30 24 2 24 25
M  V30 25 1 25 26
M  V30 26 1 26 27
M  V30 27 1 23 3
M  V30 28 2 21 5
M  V30 29 1 26 22
M  V30 30 1 19 8
M  V30 31 1 1 28
M  V30 32 1 1 29
M  V30 33 1 1 30
M  V30 34 1 2 31
M  V30 35 1 6 32
M  V30 36 1 9 33
M  V30 37 1 10 34
M  V30 38 1 11 35
M  V30 39 1 13 36
M  V30 40 1 14 37
M  V30 41 1 14 38
M  V30 42 1 14 39
M  V30 43 1 15 40
M  V30 44 1 17 41
M  V30 45 1 17 42
M  V30 46 1 17 43
M  V30 47 1 20 44
M  V30 48 1 25 45
M  V30 49 1 27 46
M  V30 50 1 27 47
M  V30 51 1 27 48
M  V30 END BOND
M  V30 END CTAB
M  END
>  <Dataset>  (430) 
ChEMBL_Kinases

>  <Ligand_Instance>  (430) 
nan

>  <PDB_ID>  (430) 
nan

>  <Standardized_SMILES>  (430) 
CNc1nc2[nH]c(-c3cccc(C(C)NC(C)=O)n3)cc2c2c1ncn2C

>  <Name>  (430) 
nan

>  <Pocket>  (430) 
nan

>  <ATP_Site>  (430) 
nan

>  <Peripheral>  (430) 
nan

>  <Num_H_Atoms_ProtBoundConf>  (430) 
nan

>  <Num_Resolved_Atoms>  (430) 
nan

>  <Num_Not_Resolved_Atoms>  (430) 
nan

$$$$
CHEMBL1923974
     RDKit          3D

  0  0  0  0  0  0  0  0  0  0999 V3000
M  V30 BEGIN CTAB
M  V30 COUNTS 49 53 0 0 0
M  V30 BEGIN ATOM
M  V30 1 C -1.885668 -4.999766 4.509306 0
M  V30 2 N -2.652681 -5.070354 3.273418 0
M  V30 3 C -2.373135 -4.208690 2.163916 0
M  V30 4 N -1.353223 -3.313152 2.311312 0
M  V30 5 C -1.018838 -2.463338 1.321727 0
M  V30 6 N -0.075204 -1.509704 1.224711 0
M  V30 7 C -0.193561 -0.966767 0.000539 0
M  V30 8 C 0.679415 0.111681 -0.455388 0
M  V30 9 C 0.582591 0.688509 -1.704389 0
M  V30 10 C 1.407586 1.708431 -2.136646 0
M  V30 11 C 2.386901 2.169222 -1.250411 0
M  V30 12 C 2.472533 1.580271 0.001258 0
M  V30 13 C 3.523216 2.079569 0.942882 0
M  V30 14 N 3.270631 3.387245 1.546026 0
M  V30 15 C 1.932537 3.916152 1.478603 0
M  V30 16 C 1.606635 5.238289 2.070649 0
M  V30 17 O 1.035423 3.240687 0.908175 0
M  V30 18 C 4.870427 1.509648 0.991678 0
M  V30 19 C 3.929622 1.010744 1.999756 0
M  V30 20 N 1.639860 0.590320 0.363899 0
M  V30 21 C -1.206954 -1.537572 -0.741202 0
M  V30 22 C -1.724886 -2.499308 0.129956 0
M  V30 23 C -2.758158 -3.395658 -0.039743 0
M  V30 24 C -3.090673 -4.261562 0.983200 0
M  V30 25 N -4.122041 -5.058912 0.632155 0
M  V30 26 C -4.434934 -4.682159 -0.628789 0
M  V30 27 N -3.619698 -3.679465 -1.046290 0
M  V30 28 C -3.649371 -3.012110 -2.344535 0
M  V30 29 H -0.821540 -4.720975 4.284119 0
M  V30 30 H -1.839341 -6.030373 4.922447 0
M  V30 31 H -2.341391 -4.293604 5.220107 0
M  V30 32 H -3.439344 -5.756545 3.151280 0
M  V30 33 H 0.585793 -1.283340 1.980875 0
M  V30 34 H -0.172784 0.317192 -2.358303 0
M  V30 35 H 1.299201 2.137256 -3.130066 0
M  V30 36 H 3.035270 2.967839 -1.584630 0
M  V30 37 H 4.031083 3.910320 2.004335 0
M  V30 38 H 1.979986 6.090321 1.476478 0
M  V30 39 H 2.022034 5.349474 3.096067 0
M  V30 40 H 0.496435 5.302239 2.188213 0
M  V30 41 H 5.654434 2.217072 1.391146 0
M  V30 42 H 5.270005 0.831048 0.238831 0
M  V30 43 H 3.551853 -0.013854 1.858760 0
M  V30 44 H 3.953854 1.313271 3.054214 0
M  V30 45 H -1.519917 -1.300657 -1.741295 0
M  V30 46 H -5.222124 -5.110248 -1.233529 0
M  V30 47 H -2.685215 -3.067081 -2.883184 0
M  V30 48 H -4.393676 -3.554962 -2.984249 0
M  V30 49 H -4.030070 -1.984093 -2.211787 0
M  V30 END ATOM
M  V30 BEGIN BOND
M  V30 1 1 1 2
M  V30 2 1 2 3
M  V30 3 2 3 4
M  V30 4 1 4 5
M  V30 5 1 5 6
M  V30 6 1 6 7
M  V30 7 1 7 8
M  V30 8 2 8 9
M  V30 9 1 9 10
M  V30 10 2 10 11
M  V30 11 1 11 12
M  V30 12 1 12 13
M  V30 13 1 13 14
M  V30 14 1 14 15
M  V30 15 1 15 16
M  V30 16 2 15 17
M  V30 17 1 13 18
M  V30 18 1 18 19
M  V30 19 2 12 20
M  V30 20 2 7 21
M  V30 21 1 21 22
M  V30 22 1 22 23
M  V30 23 2 23 24
M  V30 24 1 24 25
M  V30 25 2 25 26
M  V30 26 1 26 27
M  V30 27 1 27 28
M  V30 28 1 24 3
M  V30 29 2 22 5
M  V30 30 1 27 23
M  V30 31 1 20 8
M  V30 32 1 19 13
M  V30 33 1 1 29
M  V30 34 1 1 30
M  V30 35 1 1 31
M  V30 36 1 2 32
M  V30 37 1 6 33
M  V30 38 1 9 34
M  V30 39 1 10 35
M  V30 40 1 11 36
M  V30 41 1 14 37
M  V30 42 1 16 38
M  V30 43 1 16 39
M  V30 44 1 16 40
M  V30 45 1 18 41
M  V30 46 1 18 42
M  V30 47 1 19 43
M  V30 48 1 19 44
M  V30 49 1 21 45
M  V30 50 1 26 46
M  V30 51 1 28 47
M  V30 52 1 28 48
M  V30 53 1 28 49
M  V30 END BOND
M  V30 END CTAB
M  END
>  <Dataset>  (431) 
ChEMBL_Kinases

>  <Ligand_Instance>  (431) 
nan

>  <PDB_ID>  (431) 
nan

>  <Standardized_SMILES>  (431) 
CNc1nc2[nH]c(-c3cccc(C4(NC(C)=O)CC4)n3)cc2c2c1ncn2C

>  <Name>  (431) 
nan

>  <Pocket>  (431) 
nan

>  <ATP_Site>  (431) 
nan

>  <Peripheral>  (431) 
nan

>  <Num_H_Atoms_ProtBoundConf>  (431) 
nan

>  <Num_Resolved_Atoms>  (431) 
nan

>  <Num_Not_Resolved_Atoms>  (431) 
nan

$$$$
CHEMBL1923975
     RDKit          3D

  0  0  0  0  0  0  0  0  0  0999 V3000
M  V30 BEGIN CTAB
M  V30 COUNTS 48 51 0 0 0
M  V30 BEGIN ATOM
M  V30 1 C -3.606690 -5.102786 3.907766 0
M  V30 2 N -2.409880 -4.416828 3.398456 0
M  V30 3 C -2.908809 -3.817868 2.278540 0
M  V30 4 N -1.617774 -3.213197 2.220620 0
M  V30 5 C -1.196972 -2.345486 1.282144 0
M  V30 6 N -0.030232 -1.630016 1.031598 0
M  V30 7 C -0.131839 -0.865652 -0.064063 0
M  V30 8 C 0.889702 0.010827 -0.597340 0
M  V30 9 C 0.639078 0.741907 -1.747489 0
M  V30 10 C 1.640347 1.560525 -2.215321 0
M  V30 11 C 2.840518 1.635186 -1.548125 0
M  V30 12 C 3.062579 0.898267 -0.406831 0
M  V30 13 C 4.407135 1.105433 0.177634 0
M  V30 14 N 4.303327 2.237964 1.079822 0
M  V30 15 C 4.531333 3.597130 0.588254 0
M  V30 16 C 3.986796 2.082902 2.436921 0
M  V30 17 C 3.858243 3.169533 3.408544 0
M  V30 18 O 3.854081 0.843260 2.553102 0
M  V30 19 N 2.088818 0.089999 0.063563 0
M  V30 20 C -1.402288 -1.020165 -0.635621 0
M  V30 21 C -1.964794 -1.916629 0.233826 0
M  V30 22 C -3.232317 -2.424714 0.171559 0
M  V30 23 C -3.380193 -3.248670 1.215552 0
M  V30 24 N -4.651629 -3.805947 1.209759 0
M  V30 25 C -5.284242 -3.286608 0.113380 0
M  V30 26 N -4.381075 -2.458302 -0.478997 0
M  V30 27 C -4.479008 -1.635260 -1.678806 0
M  V30 28 H -3.472154 -5.569795 4.904997 0
M  V30 29 H -4.464074 -4.392445 4.065716 0
M  V30 30 H -3.916849 -5.871775 3.185756 0
M  V30 31 H -1.715971 -4.670916 4.072313 0
M  V30 32 H 0.791346 -1.742570 1.688494 0
M  V30 33 H -0.327276 0.638785 -2.221238 0
M  V30 34 H 1.382598 2.107856 -3.119615 0
M  V30 35 H 3.542019 2.309798 -2.018312 0
M  V30 36 H 5.203192 1.247799 -0.576701 0
M  V30 37 H 4.633682 0.222821 0.843870 0
M  V30 38 H 4.943457 3.542905 -0.439860 0
M  V30 39 H 5.282721 4.083945 1.239283 0
M  V30 40 H 3.605927 4.211625 0.644332 0
M  V30 41 H 2.808279 3.373537 3.711764 0
M  V30 42 H 4.412073 2.938443 4.352999 0
M  V30 43 H 4.297931 4.081727 3.007334 0
M  V30 44 H -1.863757 -0.583620 -1.509465 0
M  V30 45 H -6.285162 -3.460348 -0.253718 0
M  V30 46 H -5.433000 -1.939381 -2.185222 0
M  V30 47 H -4.443911 -0.561799 -1.495008 0
M  V30 48 H -3.661259 -1.918609 -2.401442 0
M  V30 END ATOM
M  V30 BEGIN BOND
M  V30 1 1 1 2
M  V30 2 1 2 3
M  V30 3 2 3 4
M  V30 4 1 4 5
M  V30 5 1 5 6
M  V30 6 1 6 7
M  V30 7 1 7 8
M  V30 8 2 8 9
M  V30 9 1 9 10
M  V30 10 2 10 11
M  V30 11 1 11 12
M  V30 12 1 12 13
M  V30 13 1 13 14
M  V30 14 1 14 15
M  V30 15 1 14 16
M  V30 16 1 16 17
M  V30 17 2 16 18
M  V30 18 2 12 19
M  V30 19 2 7 20
M  V30 20 1 20 21
M  V30 21 1 21 22
M  V30 22 2 22 23
M  V30 23 1 23 24
M  V30 24 2 24 25
M  V30 25 1 25 26
M  V30 26 1 26 27
M  V30 27 1 23 3
M  V30 28 2 21 5
M  V30 29 1 26 22
M  V30 30 1 19 8
M  V30 31 1 1 28
M  V30 32 1 1 29
M  V30 33 1 1 30
M  V30 34 1 2 31
M  V30 35 1 6 32
M  V30 36 1 9 33
M  V30 37 1 10 34
M  V30 38 1 11 35
M  V30 39 1 13 36
M  V30 40 1 13 37
M  V30 41 1 15 38
M  V30 42 1 15 39
M  V30 43 1 15 40
M  V30 44 1 17 41
M  V30 45 1 17 42
M  V30 46 1 17 43
M  V30 47 1 20 44
M  V30 48 1 25 45
M  V30 49 1 27 46
M  V30 50 1 27 47
M  V30 51 1 27 48
M  V30 END BOND
M  V30 END CTAB
M  END
>  <Dataset>  (432) 
ChEMBL_Kinases

>  <Ligand_Instance>  (432) 
nan

>  <PDB_ID>  (432) 
nan

>  <Standardized_SMILES>  (432) 
CNc1nc2[nH]c(-c3cccc(CN(C)C(C)=O)n3)cc2c2c1ncn2C

>  <Name>  (432) 
nan

>  <Pocket>  (432) 
nan

>  <ATP_Site>  (432) 
nan

>  <Peripheral>  (432) 
nan

>  <Num_H_Atoms_ProtBoundConf>  (432) 
nan

>  <Num_Resolved_Atoms>  (432) 
nan

>  <Num_Not_Resolved_Atoms>  (432) 
nan

$$$$
CHEMBL1923985
     RDKit          3D

  0  0  0  0  0  0  0  0  0  0999 V3000
M  V30 BEGIN CTAB
M  V30 COUNTS 46 49 0 0 0
M  V30 BEGIN ATOM
M  V30 1 C 0.964866 -5.214588 3.883859 0
M  V30 2 N -0.079865 -5.363043 2.881583 0
M  V30 3 C -0.338877 -4.338731 1.926127 0
M  V30 4 N 0.412875 -3.198246 1.956887 0
M  V30 5 C 0.162054 -2.219069 1.039072 0
M  V30 6 N 0.738952 -1.014297 0.842407 0
M  V30 7 C 0.161013 -0.369615 -0.196571 0
M  V30 8 C 0.544159 0.955755 -0.675793 0
M  V30 9 C -0.116905 1.517466 -1.748367 0
M  V30 10 C 0.297924 2.777837 -2.151818 0
M  V30 11 C 1.331787 3.380278 -1.463000 0
M  V30 12 C 1.982816 2.793791 -0.384212 0
M  V30 13 C 3.091478 3.523527 0.298641 0
M  V30 14 N 2.538865 4.314805 1.359423 0
M  V30 15 C 2.190824 3.527515 2.484891 0
M  V30 16 O 2.399103 2.283276 2.422333 0
M  V30 17 C 1.596340 3.985647 3.765303 0
M  V30 18 O 1.421912 2.862477 4.589883 0
M  V30 19 N 1.561082 1.581446 -0.020000 0
M  V30 20 C -0.831650 -1.191185 -0.693466 0
M  V30 21 C -0.825014 -2.335893 0.077506 0
M  V30 22 C -1.601672 -3.476190 0.020796 0
M  V30 23 C -1.322063 -4.447651 0.963496 0
M  V30 24 N -2.180755 -5.461258 0.736574 0
M  V30 25 C -2.957631 -5.130606 -0.301471 0
M  V30 26 N -2.601738 -3.897465 -0.750262 0
M  V30 27 C -3.141383 -3.145971 -1.820400 0
M  V30 28 H 1.536001 -6.155116 4.030984 0
M  V30 29 H 1.653489 -4.387325 3.633888 0
M  V30 30 H 0.510927 -4.987939 4.866311 0
M  V30 31 H -0.649252 -6.230429 2.858921 0
M  V30 32 H 1.535850 -0.675383 1.456169 0
M  V30 33 H -0.924668 1.009816 -2.262139 0
M  V30 34 H -0.206448 3.228929 -2.985480 0
M  V30 35 H 1.609265 4.349406 -1.817742 0
M  V30 36 H 3.607645 4.195240 -0.424319 0
M  V30 37 H 3.850657 2.829364 0.700305 0
M  V30 38 H 2.340486 5.346320 1.474732 0
M  V30 39 H 2.253701 4.695700 4.288068 0
M  V30 40 H 0.600845 4.478439 3.564830 0
M  V30 41 H 1.151477 2.093847 4.019481 0
M  V30 42 H -1.481727 -0.976854 -1.521218 0
M  V30 43 H -3.756589 -5.731060 -0.741213 0
M  V30 44 H -4.038240 -3.710105 -2.214932 0
M  V30 45 H -3.571985 -2.205372 -1.415449 0
M  V30 46 H -2.531632 -2.913957 -2.666715 0
M  V30 END ATOM
M  V30 BEGIN BOND
M  V30 1 1 1 2
M  V30 2 1 2 3
M  V30 3 2 3 4
M  V30 4 1 4 5
M  V30 5 1 5 6
M  V30 6 1 6 7
M  V30 7 1 7 8
M  V30 8 2 8 9
M  V30 9 1 9 10
M  V30 10 2 10 11
M  V30 11 1 11 12
M  V30 12 1 12 13
M  V30 13 1 13 14
M  V30 14 1 14 15
M  V30 15 2 15 16
M  V30 16 1 15 17
M  V30 17 1 17 18
M  V30 18 2 12 19
M  V30 19 2 7 20
M  V30 20 1 20 21
M  V30 21 1 21 22
M  V30 22 2 22 23
M  V30 23 1 23 24
M  V30 24 2 24 25
M  V30 25 1 25 26
M  V30 26 1 26 27
M  V30 27 1 23 3
M  V30 28 2 21 5
M  V30 29 1 26 22
M  V30 30 1 19 8
M  V30 31 1 1 28
M  V30 32 1 1 29
M  V30 33 1 1 30
M  V30 34 1 2 31
M  V30 35 1 6 32
M  V30 36 1 9 33
M  V30 37 1 10 34
M  V30 38 1 11 35
M  V30 39 1 13 36
M  V30 40 1 13 37
M  V30 41 1 14 38
M  V30 42 1 17 39
M  V30 43 1 17 40
M  V30 44 1 18 41
M  V30 45 1 20 42
M  V30 46 1 25 43
M  V30 47 1 27 44
M  V30 48 1 27 45
M  V30 49 1 27 46
M  V30 END BOND
M  V30 END CTAB
M  END
>  <Dataset>  (433) 
ChEMBL_Kinases

>  <Ligand_Instance>  (433) 
nan

>  <PDB_ID>  (433) 
nan

>  <Standardized_SMILES>  (433) 
CNc1nc2[nH]c(-c3cccc(CNC(=O)CO)n3)cc2c2c1ncn2C

>  <Name>  (433) 
nan

>  <Pocket>  (433) 
nan

>  <ATP_Site>  (433) 
nan

>  <Peripheral>  (433) 
nan

>  <Num_H_Atoms_ProtBoundConf>  (433) 
nan

>  <Num_Resolved_Atoms>  (433) 
nan

>  <Num_Not_Resolved_Atoms>  (433) 
nan

$$$$
CHEMBL1923977
     RDKit          3D

  0  0  0  0  0  0  0  0  0  0999 V3000
M  V30 BEGIN CTAB
M  V30 COUNTS 54 57 0 0 0
M  V30 BEGIN ATOM
M  V30 1 C 0.096044 -4.791103 5.800548 0
M  V30 2 N 0.746725 -5.582309 4.765982 0
M  V30 3 C 1.064813 -4.919900 3.531750 0
M  V30 4 N 0.782403 -3.624304 3.321323 0
M  V30 5 C 1.091829 -3.006642 2.141798 0
M  V30 6 N 0.898776 -1.735514 1.734069 0
M  V30 7 C 1.375302 -1.589235 0.476400 0
M  V30 8 C 1.341707 -0.338806 -0.300466 0
M  V30 9 C 1.873614 -0.349160 -1.579279 0
M  V30 10 C 1.816321 0.852132 -2.261070 0
M  V30 11 C 1.255161 1.958184 -1.659872 0
M  V30 12 C 0.727430 1.959691 -0.385521 0
M  V30 13 C 0.109778 3.074678 0.333186 0
M  V30 14 N -1.318304 3.197124 0.169122 0
M  V30 15 C -1.992224 3.709726 -0.973844 0
M  V30 16 O -1.239181 4.081829 -1.907590 0
M  V30 17 C -3.490544 3.775572 -1.004197 0
M  V30 18 C -3.955668 2.336746 -0.821953 0
M  V30 19 C -4.037160 4.578402 0.141966 0
M  V30 20 C -3.968807 4.328341 -2.315967 0
M  V30 21 N 0.799477 0.757585 0.261313 0
M  V30 22 C 1.888034 -2.804899 0.069765 0
M  V30 23 C 1.718781 -3.704854 1.101179 0
M  V30 24 C 2.023837 -5.054261 1.294076 0
M  V30 25 C 1.688637 -5.630237 2.507585 0
M  V30 26 N 2.092345 -6.932371 2.428039 0
M  V30 27 C 2.637011 -7.105276 1.224049 0
M  V30 28 N 2.612676 -5.959000 0.489570 0
M  V30 29 C 3.101088 -5.728386 -0.858939 0
M  V30 30 H -0.430055 -5.432617 6.545040 0
M  V30 31 H -0.614835 -4.057466 5.369795 0
M  V30 32 H 0.843598 -4.201595 6.374747 0
M  V30 33 H 0.982267 -6.571128 4.879511 0
M  V30 34 H 0.443477 -1.010024 2.339277 0
M  V30 35 H 2.308098 -1.212353 -2.040384 0
M  V30 36 H 2.193213 0.971097 -3.252184 0
M  V30 37 H 1.211495 2.892114 -2.186685 0
M  V30 38 H 0.319138 2.980287 1.417881 0
M  V30 39 H 0.644642 3.998498 0.018187 0
M  V30 40 H -1.963435 2.883546 0.957132 0
M  V30 41 H -5.010832 2.182575 -1.120607 0
M  V30 42 H -3.251955 1.710896 -1.426074 0
M  V30 43 H -3.750005 2.069533 0.237370 0
M  V30 44 H -4.337107 5.603836 -0.158052 0
M  V30 45 H -3.321061 4.619595 0.985436 0
M  V30 46 H -4.952140 4.086694 0.507148 0
M  V30 47 H -4.677927 5.186371 -2.211004 0
M  V30 48 H -3.074058 4.708908 -2.888607 0
M  V30 49 H -4.491714 3.551877 -2.927078 0
M  V30 50 H 2.343009 -3.054198 -0.863581 0
M  V30 51 H 3.063043 -8.035338 0.832342 0
M  V30 52 H 3.407283 -6.704909 -1.299517 0
M  V30 53 H 2.276363 -5.373089 -1.528050 0
M  V30 54 H 3.990553 -5.070316 -0.876360 0
M  V30 END ATOM
M  V30 BEGIN BOND
M  V30 1 1 1 2
M  V30 2 1 2 3
M  V30 3 2 3 4
M  V30 4 1 4 5
M  V30 5 1 5 6
M  V30 6 1 6 7
M  V30 7 1 7 8
M  V30 8 2 8 9
M  V30 9 1 9 10
M  V30 10 2 10 11
M  V30 11 1 11 12
M  V30 12 1 12 13
M  V30 13 1 13 14
M  V30 14 1 14 15
M  V30 15 2 15 16
M  V30 16 1 15 17
M  V30 17 1 17 18
M  V30 18 1 17 19
M  V30 19 1 17 20
M  V30 20 2 12 21
M  V30 21 2 7 22
M  V30 22 1 22 23
M  V30 23 1 23 24
M  V30 24 2 24 25
M  V30 25 1 25 26
M  V30 26 2 26 27
M  V30 27 1 27 28
M  V30 28 1 28 29
M  V30 29 1 25 3
M  V30 30 2 23 5
M  V30 31 1 28 24
M  V30 32 1 21 8
M  V30 33 1 1 30
M  V30 34 1 1 31
M  V30 35 1 1 32
M  V30 36 1 2 33
M  V30 37 1 6 34
M  V30 38 1 9 35
M  V30 39 1 10 36
M  V30 40 1 11 37
M  V30 41 1 13 38
M  V30 42 1 13 39
M  V30 43 1 14 40
M  V30 44 1 18 41
M  V30 45 1 18 42
M  V30 46 1 18 43
M  V30 47 1 19 44
M  V30 48 1 19 45
M  V30 49 1 19 46
M  V30 50 1 20 47
M  V30 51 1 20 48
M  V30 52 1 20 49
M  V30 53 1 22 50
M  V30 54 1 27 51
M  V30 55 1 29 52
M  V30 56 1 29 53
M  V30 57 1 29 54
M  V30 END BOND
M  V30 END CTAB
M  END
>  <Dataset>  (434) 
ChEMBL_Kinases

>  <Ligand_Instance>  (434) 
nan

>  <PDB_ID>  (434) 
nan

>  <Standardized_SMILES>  (434) 
CNc1nc2[nH]c(-c3cccc(CNC(=O)C(C)(C)C)n3)cc2c2c1ncn2C

>  <Name>  (434) 
nan

>  <Pocket>  (434) 
nan

>  <ATP_Site>  (434) 
nan

>  <Peripheral>  (434) 
nan

>  <Num_H_Atoms_ProtBoundConf>  (434) 
nan

>  <Num_Resolved_Atoms>  (434) 
nan

>  <Num_Not_Resolved_Atoms>  (434) 
nan

$$$$
CHEMBL1923978
     RDKit          3D

  0  0  0  0  0  0  0  0  0  0999 V3000
M  V30 BEGIN CTAB
M  V30 COUNTS 49 53 0 0 0
M  V30 BEGIN ATOM
M  V30 1 C -1.832641 -6.838194 3.499590 0
M  V30 2 N -1.508720 -5.781136 2.667512 0
M  V30 3 C -1.177456 -4.701785 1.819106 0
M  V30 4 N -0.403733 -3.622594 1.997070 0
M  V30 5 C -0.222916 -2.708139 1.031542 0
M  V30 6 N 0.516187 -1.598717 1.065115 0
M  V30 7 C 0.319646 -1.101063 -0.165452 0
M  V30 8 C 0.966526 0.146536 -0.610580 0
M  V30 9 C 0.740539 0.632982 -1.877191 0
M  V30 10 C 1.387593 1.804485 -2.203638 0
M  V30 11 C 2.221174 2.478914 -1.338399 0
M  V30 12 C 2.422417 1.951163 -0.064242 0
M  V30 13 C 3.262874 2.475277 1.058260 0
M  V30 14 N 2.411803 3.310792 1.879423 0
M  V30 15 C 1.970898 4.630751 1.636105 0
M  V30 16 O 2.378355 5.139178 0.562054 0
M  V30 17 C 1.092138 5.310360 2.617374 0
M  V30 18 C 1.077089 4.906280 4.035300 0
M  V30 19 C -0.000839 4.386612 3.149186 0
M  V30 20 N 1.780092 0.806637 0.232446 0
M  V30 21 C -0.513238 -1.880116 -0.928703 0
M  V30 22 C -0.876562 -2.948205 -0.139521 0
M  V30 23 C -1.691766 -4.008801 -0.442235 0
M  V30 24 C -1.851195 -4.938391 0.595294 0
M  V30 25 N -2.684099 -5.863717 0.047222 0
M  V30 26 C -2.968422 -5.482103 -1.199341 0
M  V30 27 N -2.373900 -4.347930 -1.527693 0
M  V30 28 C -2.455064 -3.639167 -2.793038 0
M  V30 29 H -2.590417 -6.558284 4.283530 0
M  V30 30 H -1.010803 -7.421782 3.983434 0
M  V30 31 H -2.453163 -7.600530 2.884747 0
M  V30 32 H -0.940336 -5.401259 3.502094 0
M  V30 33 H 1.083080 -1.253423 1.869905 0
M  V30 34 H 0.092016 0.136614 -2.593671 0
M  V30 35 H 1.270154 2.259277 -3.176411 0
M  V30 36 H 2.764394 3.388938 -1.506687 0
M  V30 37 H 3.660972 1.642465 1.632437 0
M  V30 38 H 4.056128 3.120547 0.616543 0
M  V30 39 H 2.076281 2.866233 2.778353 0
M  V30 40 H 0.775883 6.359598 2.403911 0
M  V30 41 H 0.852916 5.587827 4.853638 0
M  V30 42 H 1.885546 4.167649 4.315549 0
M  V30 43 H -1.018771 4.865371 3.210608 0
M  V30 44 H -0.054267 3.341890 2.814017 0
M  V30 45 H -0.798023 -1.658131 -1.946355 0
M  V30 46 H -3.624112 -6.053051 -1.863559 0
M  V30 47 H -3.105915 -4.216466 -3.472685 0
M  V30 48 H -2.871609 -2.622681 -2.688075 0
M  V30 49 H -1.443832 -3.578158 -3.258291 0
M  V30 END ATOM
M  V30 BEGIN BOND
M  V30 1 1 1 2
M  V30 2 1 2 3
M  V30 3 2 3 4
M  V30 4 1 4 5
M  V30 5 1 5 6
M  V30 6 1 6 7
M  V30 7 1 7 8
M  V30 8 2 8 9
M  V30 9 1 9 10
M  V30 10 2 10 11
M  V30 11 1 11 12
M  V30 12 1 12 13
M  V30 13 1 13 14
M  V30 14 1 14 15
M  V30 15 2 15 16
M  V30 16 1 15 17
M  V30 17 1 17 18
M  V30 18 1 18 19
M  V30 19 2 12 20
M  V30 20 2 7 21
M  V30 21 1 21 22
M  V30 22 1 22 23
M  V30 23 2 23 24
M  V30 24 1 24 25
M  V30 25 2 25 26
M  V30 26 1 26 27
M  V30 27 1 27 28
M  V30 28 1 24 3
M  V30 29 2 22 5
M  V30 30 1 27 23
M  V30 31 1 20 8
M  V30 32 1 19 17
M  V30 33 1 1 29
M  V30 34 1 1 30
M  V30 35 1 1 31
M  V30 36 1 2 32
M  V30 37 1 6 33
M  V30 38 1 9 34
M  V30 39 1 10 35
M  V30 40 1 11 36
M  V30 41 1 13 37
M  V30 42 1 13 38
M  V30 43 1 14 39
M  V30 44 1 17 40
M  V30 45 1 18 41
M  V30 46 1 18 42
M  V30 47 1 19 43
M  V30 48 1 19 44
M  V30 49 1 21 45
M  V30 50 1 26 46
M  V30 51 1 28 47
M  V30 52 1 28 48
M  V30 53 1 28 49
M  V30 END BOND
M  V30 END CTAB
M  END
>  <Dataset>  (435) 
ChEMBL_Kinases

>  <Ligand_Instance>  (435) 
nan

>  <PDB_ID>  (435) 
nan

>  <Standardized_SMILES>  (435) 
CNc1nc2[nH]c(-c3cccc(CNC(=O)C4CC4)n3)cc2c2c1ncn2C

>  <Name>  (435) 
nan

>  <Pocket>  (435) 
nan

>  <ATP_Site>  (435) 
nan

>  <Peripheral>  (435) 
nan

>  <Num_H_Atoms_ProtBoundConf>  (435) 
nan

>  <Num_Resolved_Atoms>  (435) 
nan

>  <Num_Not_Resolved_Atoms>  (435) 
nan

$$$$
CHEMBL1923979
     RDKit          3D

  0  0  0  0  0  0  0  0  0  0999 V3000
M  V30 BEGIN CTAB
M  V30 COUNTS 52 56 0 0 0
M  V30 BEGIN ATOM
M  V30 1 C -2.129146 -5.058296 3.634047 0
M  V30 2 N -1.460992 -5.602771 2.462170 0
M  V30 3 C -0.677646 -4.760560 1.637133 0
M  V30 4 N -0.542378 -3.457464 1.924332 0
M  V30 5 C 0.206487 -2.620027 1.147728 0
M  V30 6 N 0.506342 -1.307637 1.199260 0
M  V30 7 C 1.290231 -0.955206 0.190947 0
M  V30 8 C 1.804578 0.388311 -0.058814 0
M  V30 9 C 2.609278 0.701465 -1.122251 0
M  V30 10 C 3.033182 2.009576 -1.262397 0
M  V30 11 C 2.662462 3.001395 -0.354185 0
M  V30 12 C 1.843578 2.638560 0.712934 0
M  V30 13 C 1.413775 3.654415 1.710291 0
M  V30 14 N 0.157939 4.196863 1.228896 0
M  V30 15 C -0.837770 3.236727 1.481625 0
M  V30 16 O -0.845498 2.072604 2.010668 0
M  V30 17 C -2.287549 3.014362 1.312609 0
M  V30 18 C -2.811600 1.900975 2.225985 0
M  V30 19 C -2.768162 3.004366 -0.117460 0
M  V30 20 C -3.231674 4.028495 0.856873 0
M  V30 21 N 1.441080 1.350302 0.828565 0
M  V30 22 C 1.521652 -2.103879 -0.571625 0
M  V30 23 C 0.831437 -3.149597 0.044040 0
M  V30 24 C 0.746043 -4.481506 -0.326569 0
M  V30 25 C -0.031823 -5.244822 0.519338 0
M  V30 26 N -0.024184 -6.505444 0.040979 0
M  V30 27 C 0.738779 -6.508195 -1.067981 0
M  V30 28 N 1.231359 -5.263208 -1.321690 0
M  V30 29 C 2.081738 -4.774866 -2.375474 0
M  V30 30 H -1.763810 -4.010695 3.808045 0
M  V30 31 H -3.247012 -5.077352 3.496444 0
M  V30 32 H -1.889278 -5.703248 4.504335 0
M  V30 33 H -1.585146 -6.612588 2.266460 0
M  V30 34 H 0.124509 -0.722800 1.970492 0
M  V30 35 H 2.874160 -0.091070 -1.801451 0
M  V30 36 H 3.667364 2.219365 -2.118200 0
M  V30 37 H 3.010387 4.028221 -0.487204 0
M  V30 38 H 2.196178 4.464246 1.721874 0
M  V30 39 H 1.360172 3.290676 2.732670 0
M  V30 40 H -0.367315 4.966213 0.781204 0
M  V30 41 H -2.443302 2.028127 3.250546 0
M  V30 42 H -3.915478 1.897349 2.223690 0
M  V30 43 H -2.424275 0.953961 1.801625 0
M  V30 44 H -3.371835 2.126121 -0.392382 0
M  V30 45 H -2.071781 3.367617 -0.922448 0
M  V30 46 H -4.283670 3.917894 1.209372 0
M  V30 47 H -2.960768 5.092818 0.703318 0
M  V30 48 H 2.132959 -2.151772 -1.478457 0
M  V30 49 H 1.002299 -7.324562 -1.752292 0
M  V30 50 H 1.603612 -3.958442 -2.985777 0
M  V30 51 H 2.196295 -5.630662 -3.101878 0
M  V30 52 H 3.048558 -4.370899 -2.036273 0
M  V30 END ATOM
M  V30 BEGIN BOND
M  V30 1 1 1 2
M  V30 2 1 2 3
M  V30 3 2 3 4
M  V30 4 1 4 5
M  V30 5 1 5 6
M  V30 6 1 6 7
M  V30 7 1 7 8
M  V30 8 2 8 9
M  V30 9 1 9 10
M  V30 10 2 10 11
M  V30 11 1 11 12
M  V30 12 1 12 13
M  V30 13 1 13 14
M  V30 14 1 14 15
M  V30 15 2 15 16
M  V30 16 1 15 17
M  V30 17 1 17 18
M  V30 18 1 17 19
M  V30 19 1 19 20
M  V30 20 2 12 21
M  V30 21 2 7 22
M  V30 22 1 22 23
M  V30 23 1 23 24
M  V30 24 2 24 25
M  V30 25 1 25 26
M  V30 26 2 26 27
M  V30 27 1 27 28
M  V30 28 1 28 29
M  V30 29 1 25 3
M  V30 30 2 23 5
M  V30 31 1 28 24
M  V30 32 1 21 8
M  V30 33 1 20 17
M  V30 34 1 1 30
M  V30 35 1 1 31
M  V30 36 1 1 32
M  V30 37 1 2 33
M  V30 38 1 6 34
M  V30 39 1 9 35
M  V30 40 1 10 36
M  V30 41 1 11 37
M  V30 42 1 13 38
M  V30 43 1 13 39
M  V30 44 1 14 40
M  V30 45 1 18 41
M  V30 46 1 18 42
M  V30 47 1 18 43
M  V30 48 1 19 44
M  V30 49 1 19 45
M  V30 50 1 20 46
M  V30 51 1 20 47
M  V30 52 1 22 48
M  V30 53 1 27 49
M  V30 54 1 29 50
M  V30 55 1 29 51
M  V30 56 1 29 52
M  V30 END BOND
M  V30 END CTAB
M  END
>  <Dataset>  (436) 
ChEMBL_Kinases

>  <Ligand_Instance>  (436) 
nan

>  <PDB_ID>  (436) 
nan

>  <Standardized_SMILES>  (436) 
CNc1nc2[nH]c(-c3cccc(CNC(=O)C4(C)CC4)n3)cc2c2c1ncn2C

>  <Name>  (436) 
nan

>  <Pocket>  (436) 
nan

>  <ATP_Site>  (436) 
nan

>  <Peripheral>  (436) 
nan

>  <Num_H_Atoms_ProtBoundConf>  (436) 
nan

>  <Num_Resolved_Atoms>  (436) 
nan

>  <Num_Not_Resolved_Atoms>  (436) 
nan

$$$$
CHEMBL1923980
     RDKit          3D

  0  0  0  0  0  0  0  0  0  0999 V3000
M  V30 BEGIN CTAB
M  V30 COUNTS 54 57 0 0 0
M  V30 BEGIN ATOM
M  V30 1 C 1.610588 -5.685798 4.902676 0
M  V30 2 N 1.999348 -6.264323 3.609546 0
M  V30 3 C 1.998926 -5.378913 2.478620 0
M  V30 4 N 1.668499 -4.097734 2.574946 0
M  V30 5 C 1.653308 -3.228505 1.547680 0
M  V30 6 N 1.361844 -1.910056 1.397468 0
M  V30 7 C 1.515949 -1.537570 0.120966 0
M  V30 8 C 1.278915 -0.165820 -0.364272 0
M  V30 9 C 1.456124 0.161998 -1.692432 0
M  V30 10 C 1.201025 1.483033 -2.003397 0
M  V30 11 C 0.799660 2.405585 -1.059724 0
M  V30 12 C 0.631427 2.045543 0.260555 0
M  V30 13 C 0.206290 2.900379 1.398161 0
M  V30 14 N -1.227724 2.876013 1.583800 0
M  V30 15 C -2.190324 3.571180 0.808175 0
M  V30 16 O -1.717815 4.268492 -0.124083 0
M  V30 17 C -3.628329 3.437658 1.132237 0
M  V30 18 C -4.506364 4.228057 0.215768 0
M  V30 19 C -4.388846 3.830182 -1.222615 0
M  V30 20 C -5.967103 4.037883 0.622735 0
M  V30 21 N 0.887056 0.748175 0.539468 0
M  V30 22 C 1.924279 -2.608382 -0.653734 0
M  V30 23 C 1.994146 -3.627151 0.272786 0
M  V30 24 C 2.349650 -4.973696 0.128599 0
M  V30 25 C 2.356530 -5.852356 1.211574 0
M  V30 26 N 2.726431 -7.065443 0.823400 0
M  V30 27 C 2.962413 -7.007710 -0.483298 0
M  V30 28 N 2.740354 -5.754213 -0.918954 0
M  V30 29 C 2.878426 -5.253165 -2.277192 0
M  V30 30 H 2.293055 -4.833005 5.097438 0
M  V30 31 H 0.563680 -5.342640 4.789579 0
M  V30 32 H 1.701020 -6.420691 5.706021 0
M  V30 33 H 2.269847 -7.253327 3.459603 0
M  V30 34 H 1.063661 -1.350723 2.245802 0
M  V30 35 H 1.771596 -0.583265 -2.409140 0
M  V30 36 H 1.324644 1.792973 -3.030485 0
M  V30 37 H 0.600494 3.441970 -1.288372 0
M  V30 38 H 0.701941 2.516609 2.308828 0
M  V30 39 H 0.507921 3.943897 1.162765 0
M  V30 40 H -1.611688 2.284830 2.372582 0
M  V30 41 H -3.864290 3.746192 2.179305 0
M  V30 42 H -3.922694 2.369791 1.076596 0
M  V30 43 H -4.317106 5.320476 0.297390 0
M  V30 44 H -5.220165 4.257814 -1.826799 0
M  V30 45 H -4.415498 2.737069 -1.377824 0
M  V30 46 H -3.455552 4.219147 -1.653348 0
M  V30 47 H -6.610797 4.824334 0.199846 0
M  V30 48 H -6.233189 3.014666 0.284974 0
M  V30 49 H -5.995112 4.120347 1.728348 0
M  V30 50 H 2.135001 -2.656311 -1.694535 0
M  V30 51 H 3.279040 -7.842268 -1.075200 0
M  V30 52 H 3.173241 -6.075314 -2.935380 0
M  V30 53 H 1.905104 -4.871689 -2.678851 0
M  V30 54 H 3.672124 -4.467679 -2.359900 0
M  V30 END ATOM
M  V30 BEGIN BOND
M  V30 1 1 1 2
M  V30 2 1 2 3
M  V30 3 2 3 4
M  V30 4 1 4 5
M  V30 5 1 5 6
M  V30 6 1 6 7
M  V30 7 1 7 8
M  V30 8 2 8 9
M  V30 9 1 9 10
M  V30 10 2 10 11
M  V30 11 1 11 12
M  V30 12 1 12 13
M  V30 13 1 13 14
M  V30 14 1 14 15
M  V30 15 2 15 16
M  V30 16 1 15 17
M  V30 17 1 17 18
M  V30 18 1 18 19
M  V30 19 1 18 20
M  V30 20 2 12 21
M  V30 21 2 7 22
M  V30 22 1 22 23
M  V30 23 1 23 24
M  V30 24 2 24 25
M  V30 25 1 25 26
M  V30 26 2 26 27
M  V30 27 1 27 28
M  V30 28 1 28 29
M  V30 29 1 25 3
M  V30 30 2 23 5
M  V30 31 1 28 24
M  V30 32 1 21 8
M  V30 33 1 1 30
M  V30 34 1 1 31
M  V30 35 1 1 32
M  V30 36 1 2 33
M  V30 37 1 6 34
M  V30 38 1 9 35
M  V30 39 1 10 36
M  V30 40 1 11 37
M  V30 41 1 13 38
M  V30 42 1 13 39
M  V30 43 1 14 40
M  V30 44 1 17 41
M  V30 45 1 17 42
M  V30 46 1 18 43
M  V30 47 1 19 44
M  V30 48 1 19 45
M  V30 49 1 19 46
M  V30 50 1 20 47
M  V30 51 1 20 48
M  V30 52 1 20 49
M  V30 53 1 22 50
M  V30 54 1 27 51
M  V30 55 1 29 52
M  V30 56 1 29 53
M  V30 57 1 29 54
M  V30 END BOND
M  V30 END CTAB
M  END
>  <Dataset>  (437) 
ChEMBL_Kinases

>  <Ligand_Instance>  (437) 
nan

>  <PDB_ID>  (437) 
nan

>  <Standardized_SMILES>  (437) 
CNc1nc2[nH]c(-c3cccc(CNC(=O)CC(C)C)n3)cc2c2c1ncn2C

>  <Name>  (437) 
nan

>  <Pocket>  (437) 
nan

>  <ATP_Site>  (437) 
nan

>  <Peripheral>  (437) 
nan

>  <Num_H_Atoms_ProtBoundConf>  (437) 
nan

>  <Num_Resolved_Atoms>  (437) 
nan

>  <Num_Not_Resolved_Atoms>  (437) 
nan

$$$$
CHEMBL1923981
     RDKit          3D

  0  0  0  0  0  0  0  0  0  0999 V3000
M  V30 BEGIN CTAB
M  V30 COUNTS 50 54 0 0 0
M  V30 BEGIN ATOM
M  V30 1 C -0.091708 -3.947874 5.499230 0
M  V30 2 N -0.398310 -4.744146 4.326307 0
M  V30 3 C -0.228116 -4.274117 2.996832 0
M  V30 4 N 0.237166 -3.037945 2.764528 0
M  V30 5 C 0.426893 -2.516456 1.550712 0
M  V30 6 N 0.859522 -1.361528 1.008658 0
M  V30 7 C 0.820504 -1.442983 -0.332272 0
M  V30 8 C 1.235512 -0.338163 -1.187971 0
M  V30 9 C 1.185301 -0.433867 -2.583042 0
M  V30 10 C 1.584719 0.633780 -3.322310 0
M  V30 11 C 2.045298 1.828531 -2.765347 0
M  V30 12 C 2.077094 1.875799 -1.368535 0
M  V30 13 C 2.547998 3.087380 -0.655616 0
M  V30 14 N 1.453254 4.009088 -0.376258 0
M  V30 15 C 0.601929 3.618335 0.708554 0
M  V30 16 O 0.969528 2.521673 1.230511 0
M  V30 17 C -0.551638 4.383966 1.164619 0
M  V30 18 C -1.253869 3.845953 2.223171 0
M  V30 19 N -2.336725 4.475678 2.720751 0
M  V30 20 C -2.787203 5.641279 2.225174 0
M  V30 21 C -2.080838 6.169818 1.170209 0
M  V30 22 N -0.985904 5.562936 0.643826 0
M  V30 23 N 1.674827 0.801954 -0.683481 0
M  V30 24 C 0.351285 -2.679922 -0.714963 0
M  V30 25 C 0.111187 -3.335946 0.482419 0
M  V30 26 C -0.376784 -4.631224 0.627599 0
M  V30 27 C -0.546017 -5.099983 1.935407 0
M  V30 28 N -1.026700 -6.373385 1.835277 0
M  V30 29 C -1.146400 -6.671036 0.528211 0
M  V30 30 N -0.752876 -5.616044 -0.207415 0
M  V30 31 C -0.726049 -5.524137 -1.638527 0
M  V30 32 H -0.435511 -2.899126 5.267701 0
M  V30 33 H -0.663716 -4.280429 6.385914 0
M  V30 34 H 1.001924 -3.923561 5.674412 0
M  V30 35 H -0.760134 -5.706688 4.503968 0
M  V30 36 H 1.162077 -0.570718 1.632905 0
M  V30 37 H 0.836527 -1.338613 -3.059367 0
M  V30 38 H 1.556598 0.587979 -4.416407 0
M  V30 39 H 2.371645 2.700710 -3.309073 0
M  V30 40 H 3.023844 2.832750 0.297873 0
M  V30 41 H 3.334544 3.613919 -1.253839 0
M  V30 42 H 1.216748 4.914572 -0.869930 0
M  V30 43 H -1.027002 2.918396 2.737577 0
M  V30 44 H -3.662861 6.099766 2.666548 0
M  V30 45 H -2.405324 7.095777 0.746353 0
M  V30 46 H 0.241299 -2.955214 -1.740484 0
M  V30 47 H -1.510843 -7.632899 0.175938 0
M  V30 48 H -1.424296 -4.701374 -1.941219 0
M  V30 49 H -1.151621 -6.443063 -2.100609 0
M  V30 50 H 0.304743 -5.381034 -2.035252 0
M  V30 END ATOM
M  V30 BEGIN BOND
M  V30 1 1 1 2
M  V30 2 1 2 3
M  V30 3 2 3 4
M  V30 4 1 4 5
M  V30 5 1 5 6
M  V30 6 1 6 7
M  V30 7 1 7 8
M  V30 8 2 8 9
M  V30 9 1 9 10
M  V30 10 2 10 11
M  V30 11 1 11 12
M  V30 12 1 12 13
M  V30 13 1 13 14
M  V30 14 1 14 15
M  V30 15 2 15 16
M  V30 16 1 15 17
M  V30 17 2 17 18
M  V30 18 1 18 19
M  V30 19 2 19 20
M  V30 20 1 20 21
M  V30 21 2 21 22
M  V30 22 2 12 23
M  V30 23 2 7 24
M  V30 24 1 24 25
M  V30 25 1 25 26
M  V30 26 2 26 27
M  V30 27 1 27 28
M  V30 28 2 28 29
M  V30 29 1 29 30
M  V30 30 1 30 31
M  V30 31 1 27 3
M  V30 32 2 25 5
M  V30 33 1 30 26
M  V30 34 1 23 8
M  V30 35 1 22 17
M  V30 36 1 1 32
M  V30 37 1 1 33
M  V30 38 1 1 34
M  V30 39 1 2 35
M  V30 40 1 6 36
M  V30 41 1 9 37
M  V30 42 1 10 38
M  V30 43 1 11 39
M  V30 44 1 13 40
M  V30 45 1 13 41
M  V30 46 1 14 42
M  V30 47 1 18 43
M  V30 48 1 20 44
M  V30 49 1 21 45
M  V30 50 1 24 46
M  V30 51 1 29 47
M  V30 52 1 31 48
M  V30 53 1 31 49
M  V30 54 1 31 50
M  V30 END BOND
M  V30 END CTAB
M  END
>  <Dataset>  (438) 
ChEMBL_Kinases

>  <Ligand_Instance>  (438) 
nan

>  <PDB_ID>  (438) 
nan

>  <Standardized_SMILES>  (438) 
CNc1nc2[nH]c(-c3cccc(CNC(=O)c4cnccn4)n3)cc2c2c1ncn2C

>  <Name>  (438) 
nan

>  <Pocket>  (438) 
nan

>  <ATP_Site>  (438) 
nan

>  <Peripheral>  (438) 
nan

>  <Num_H_Atoms_ProtBoundConf>  (438) 
nan

>  <Num_Resolved_Atoms>  (438) 
nan

>  <Num_Not_Resolved_Atoms>  (438) 
nan

$$$$
CHEMBL1923982
     RDKit          3D

  0  0  0  0  0  0  0  0  0  0999 V3000
M  V30 BEGIN CTAB
M  V30 COUNTS 47 51 0 0 0
M  V30 BEGIN ATOM
M  V30 1 C -1.509014 -6.994368 -2.505010 0
M  V30 2 N -1.101366 -5.849001 -1.835118 0
M  V30 3 C -0.682055 -4.672046 -1.147164 0
M  V30 4 N 0.351759 -3.853391 -1.392329 0
M  V30 5 C 0.598211 -2.779786 -0.628851 0
M  V30 6 N 1.571347 -1.866837 -0.725870 0
M  V30 7 C 1.285453 -1.062563 0.306531 0
M  V30 8 C 2.083096 0.120584 0.635697 0
M  V30 9 C 3.192302 0.499813 -0.089955 0
M  V30 10 C 3.950187 1.624722 0.224892 0
M  V30 11 C 3.510630 2.335591 1.318829 0
M  V30 12 C 2.410363 1.995888 2.072454 0
M  V30 13 C 1.870467 2.717261 3.253469 0
M  V30 14 N 0.837784 3.632715 2.784499 0
M  V30 15 C 0.995323 4.898055 2.143366 0
M  V30 16 O 2.240547 5.163945 2.018674 0
M  V30 17 C -0.238946 5.630265 1.761348 0
M  V30 18 C -1.549719 5.213365 1.958402 0
M  V30 19 S -2.378105 6.537436 1.281040 0
M  V30 20 N -0.942322 7.546405 0.786120 0
M  V30 21 N 0.054844 6.752274 1.197565 0
M  V30 22 N 1.756912 0.893192 1.677034 0
M  V30 23 C 0.175165 -1.456244 1.023724 0
M  V30 24 C -0.285047 -2.597766 0.405239 0
M  V30 25 C -1.369429 -3.365382 0.747487 0
M  V30 26 C -1.586734 -4.475877 -0.078871 0
M  V30 27 N -2.680942 -5.066575 0.439289 0
M  V30 28 C -3.066721 -4.340247 1.496422 0
M  V30 29 N -2.280673 -3.273904 1.724658 0
M  V30 30 C -2.377954 -2.270167 2.759136 0
M  V30 31 H -0.836461 -7.887911 -2.493746 0
M  V30 32 H -1.942197 -6.876420 -3.532035 0
M  V30 33 H -2.431588 -7.426797 -1.943456 0
M  V30 34 H -0.325684 -5.830584 -2.585327 0
M  V30 35 H 2.315339 -1.841532 -1.430049 0
M  V30 36 H 3.507648 -0.080708 -0.941025 0
M  V30 37 H 4.814131 1.936070 -0.325712 0
M  V30 38 H 4.061241 3.206141 1.609308 0
M  V30 39 H 2.672980 3.285072 3.783261 0
M  V30 40 H 1.396484 1.969069 3.912005 0
M  V30 41 H -0.154633 3.308849 2.941772 0
M  V30 42 H -1.847411 4.300352 2.416342 0
M  V30 43 H -0.216329 -0.944895 1.884975 0
M  V30 44 H -3.938666 -4.629749 2.079045 0
M  V30 45 H -2.552690 -1.275493 2.309004 0
M  V30 46 H -1.490973 -2.293789 3.433251 0
M  V30 47 H -3.276467 -2.499303 3.391275 0
M  V30 END ATOM
M  V30 BEGIN BOND
M  V30 1 1 1 2
M  V30 2 1 2 3
M  V30 3 2 3 4
M  V30 4 1 4 5
M  V30 5 1 5 6
M  V30 6 1 6 7
M  V30 7 1 7 8
M  V30 8 2 8 9
M  V30 9 1 9 10
M  V30 10 2 10 11
M  V30 11 1 11 12
M  V30 12 1 12 13
M  V30 13 1 13 14
M  V30 14 1 14 15
M  V30 15 2 15 16
M  V30 16 1 15 17
M  V30 17 2 17 18
M  V30 18 1 18 19
M  V30 19 1 19 20
M  V30 20 2 20 21
M  V30 21 2 12 22
M  V30 22 2 7 23
M  V30 23 1 23 24
M  V30 24 1 24 25
M  V30 25 2 25 26
M  V30 26 1 26 27
M  V30 27 2 27 28
M  V30 28 1 28 29
M  V30 29 1 29 30
M  V30 30 1 26 3
M  V30 31 2 24 5
M  V30 32 1 29 25
M  V30 33 1 22 8
M  V30 34 1 21 17
M  V30 35 1 1 31
M  V30 36 1 1 32
M  V30 37 1 1 33
M  V30 38 1 2 34
M  V30 39 1 6 35
M  V30 40 1 9 36
M  V30 41 1 10 37
M  V30 42 1 11 38
M  V30 43 1 13 39
M  V30 44 1 13 40
M  V30 45 1 14 41
M  V30 46 1 18 42
M  V30 47 1 23 43
M  V30 48 1 28 44
M  V30 49 1 30 45
M  V30 50 1 30 46
M  V30 51 1 30 47
M  V30 END BOND
M  V30 END CTAB
M  END
>  <Dataset>  (439) 
ChEMBL_Kinases

>  <Ligand_Instance>  (439) 
nan

>  <PDB_ID>  (439) 
nan

>  <Standardized_SMILES>  (439) 
CNc1nc2[nH]c(-c3cccc(CNC(=O)c4csnn4)n3)cc2c2c1ncn2C

>  <Name>  (439) 
nan

>  <Pocket>  (439) 
nan

>  <ATP_Site>  (439) 
nan

>  <Peripheral>  (439) 
nan

>  <Num_H_Atoms_ProtBoundConf>  (439) 
nan

>  <Num_Resolved_Atoms>  (439) 
nan

>  <Num_Not_Resolved_Atoms>  (439) 
nan

$$$$
CHEMBL1923983
     RDKit          3D

  0  0  0  0  0  0  0  0  0  0999 V3000
M  V30 BEGIN CTAB
M  V30 COUNTS 49 52 0 0 0
M  V30 BEGIN ATOM
M  V30 1 C 1.316941 -7.211983 2.102983 0
M  V30 2 N 0.839067 -6.052832 1.590633 0
M  V30 3 C 0.345852 -4.806129 1.049721 0
M  V30 4 N 0.895936 -3.583812 1.000766 0
M  V30 5 C 0.245342 -2.557155 0.416015 0
M  V30 6 N 0.683592 -1.305786 0.291009 0
M  V30 7 C -0.334099 -0.727247 -0.363438 0
M  V30 8 C -0.275558 0.706618 -0.723352 0
M  V30 9 C -1.321431 1.324615 -1.365899 0
M  V30 10 C -1.293905 2.661028 -1.695629 0
M  V30 11 C -0.110520 3.287580 -1.306707 0
M  V30 12 C 0.969791 2.743896 -0.666473 0
M  V30 13 C 2.227309 3.322200 -0.217755 0
M  V30 14 N 2.244073 3.819068 1.136052 0
M  V30 15 C 2.245163 2.931703 2.243266 0
M  V30 16 O 2.231025 1.674142 2.012251 0
M  V30 17 C 2.262814 3.122114 3.700416 0
M  V30 18 O 2.271890 4.406718 4.149531 0
M  V30 19 C 1.133411 5.112761 3.901633 0
M  V30 20 N 0.789948 1.444242 -0.417637 0
M  V30 21 C -1.358684 -1.609227 -0.624882 0
M  V30 22 C -0.991112 -2.831658 -0.113766 0
M  V30 23 C -1.614152 -4.058960 -0.095733 0
M  V30 24 C -0.929355 -5.082897 0.502671 0
M  V30 25 N -1.766659 -6.137118 0.381182 0
M  V30 26 C -2.860669 -5.704981 -0.252810 0
M  V30 27 N -2.816534 -4.397316 -0.576993 0
M  V30 28 C -3.875717 -3.727139 -1.243171 0
M  V30 29 H 2.350444 -7.576028 1.847911 0
M  V30 30 H 0.634668 -8.107012 1.819255 0
M  V30 31 H 1.296093 -7.334184 3.238008 0
M  V30 32 H 1.719947 -5.603478 2.008460 0
M  V30 33 H 1.576626 -0.896101 0.616710 0
M  V30 34 H -2.223738 0.786033 -1.645134 0
M  V30 35 H -2.067083 3.195032 -2.187544 0
M  V30 36 H -0.029572 4.347396 -1.534037 0
M  V30 37 H 3.078078 2.624434 -0.327489 0
M  V30 38 H 2.471974 4.187228 -0.903743 0
M  V30 39 H 2.283452 4.826248 1.384852 0
M  V30 40 H 1.326939 2.612220 4.099914 0
M  V30 41 H 3.096710 2.561210 4.183430 0
M  V30 42 H 1.203431 6.180865 4.225625 0
M  V30 43 H 0.376491 4.702158 4.679896 0
M  V30 44 H 0.689014 5.091339 2.915652 0
M  V30 45 H -2.207866 -1.257678 -1.138131 0
M  V30 46 H -3.614305 -6.491023 -0.401120 0
M  V30 47 H -3.694141 -3.764485 -2.354354 0
M  V30 48 H -3.970978 -2.680814 -0.958932 0
M  V30 49 H -4.857043 -4.273259 -1.137513 0
M  V30 END ATOM
M  V30 BEGIN BOND
M  V30 1 1 1 2
M  V30 2 1 2 3
M  V30 3 2 3 4
M  V30 4 1 4 5
M  V30 5 1 5 6
M  V30 6 1 6 7
M  V30 7 1 7 8
M  V30 8 2 8 9
M  V30 9 1 9 10
M  V30 10 2 10 11
M  V30 11 1 11 12
M  V30 12 1 12 13
M  V30 13 1 13 14
M  V30 14 1 14 15
M  V30 15 2 15 16
M  V30 16 1 15 17
M  V30 17 1 17 18
M  V30 18 1 18 19
M  V30 19 2 12 20
M  V30 20 2 7 21
M  V30 21 1 21 22
M  V30 22 1 22 23
M  V30 23 2 23 24
M  V30 24 1 24 25
M  V30 25 2 25 26
M  V30 26 1 26 27
M  V30 27 1 27 28
M  V30 28 1 24 3
M  V30 29 2 22 5
M  V30 30 1 27 23
M  V30 31 1 20 8
M  V30 32 1 1 29
M  V30 33 1 1 30
M  V30 34 1 1 31
M  V30 35 1 2 32
M  V30 36 1 6 33
M  V30 37 1 9 34
M  V30 38 1 10 35
M  V30 39 1 11 36
M  V30 40 1 13 37
M  V30 41 1 13 38
M  V30 42 1 14 39
M  V30 43 1 17 40
M  V30 44 1 17 41
M  V30 45 1 19 42
M  V30 46 1 19 43
M  V30 47 1 19 44
M  V30 48 1 21 45
M  V30 49 1 26 46
M  V30 50 1 28 47
M  V30 51 1 28 48
M  V30 52 1 28 49
M  V30 END BOND
M  V30 END CTAB
M  END
>  <Dataset>  (440) 
ChEMBL_Kinases

>  <Ligand_Instance>  (440) 
nan

>  <PDB_ID>  (440) 
nan

>  <Standardized_SMILES>  (440) 
CNc1nc2[nH]c(-c3cccc(CNC(=O)COC)n3)cc2c2c1ncn2C

>  <Name>  (440) 
nan

>  <Pocket>  (440) 
nan

>  <ATP_Site>  (440) 
nan

>  <Peripheral>  (440) 
nan

>  <Num_H_Atoms_ProtBoundConf>  (440) 
nan

>  <Num_Resolved_Atoms>  (440) 
nan

>  <Num_Not_Resolved_Atoms>  (440) 
nan

$$$$
CHEMBL1923984
     RDKit          3D

  0  0  0  0  0  0  0  0  0  0999 V3000
M  V30 BEGIN CTAB
M  V30 COUNTS 52 55 0 0 0
M  V30 BEGIN ATOM
M  V30 1 C -3.743978 -6.082267 1.069652 0
M  V30 2 N -2.778927 -5.136273 0.682640 0
M  V30 3 C -1.813801 -4.189856 0.295630 0
M  V30 4 N -1.809091 -2.847086 0.397017 0
M  V30 5 C -0.776066 -2.115611 -0.048745 0
M  V30 6 N -0.616295 -0.792201 -0.024507 0
M  V30 7 C 0.577614 -0.634390 -0.594975 0
M  V30 8 C 1.219616 0.666037 -0.794390 0
M  V30 9 C 2.465682 0.745033 -1.414905 0
M  V30 10 C 2.989627 2.019791 -1.567925 0
M  V30 11 C 2.332670 3.153650 -1.137134 0
M  V30 12 C 1.083604 3.007236 -0.520451 0
M  V30 13 C 0.434496 4.288218 -0.062008 0
M  V30 14 N 0.950417 4.455958 1.307255 0
M  V30 15 C 0.276767 3.563373 2.181091 0
M  V30 16 O -0.636268 2.776952 1.763242 0
M  V30 17 C 0.363175 3.265152 3.632744 0
M  V30 18 C -0.662455 2.200190 3.964896 0
M  V30 19 O -1.957714 2.591945 3.676564 0
M  V30 20 C -2.810520 1.546492 4.021203 0
M  V30 21 N 0.602002 1.770241 -0.386365 0
M  V30 22 C 1.158310 -1.848997 -0.971355 0
M  V30 23 C 0.256704 -2.822021 -0.606392 0
M  V30 24 C 0.342623 -4.184340 -0.753262 0
M  V30 25 C -0.751498 -4.920851 -0.277929 0
M  V30 26 N -0.391333 -6.189973 -0.545668 0
M  V30 27 C 0.813015 -6.225308 -1.131596 0
M  V30 28 N 1.300400 -4.982171 -1.275592 0
M  V30 29 C 2.570636 -4.620065 -1.864692 0
M  V30 30 H -4.750175 -5.929624 0.573855 0
M  V30 31 H -3.479389 -7.127198 0.634849 0
M  V30 32 H -3.897665 -6.247444 2.158950 0
M  V30 33 H -3.459154 -4.414152 1.104254 0
M  V30 34 H -1.280329 -0.093575 0.351167 0
M  V30 35 H 2.986916 -0.148711 -1.758651 0
M  V30 36 H 3.967128 2.105614 -2.052683 0
M  V30 37 H 2.825145 4.084712 -1.303090 0
M  V30 38 H -0.657638 4.222078 -0.050646 0
M  V30 39 H 0.814542 5.130008 -0.661037 0
M  V30 40 H 1.636377 5.001813 1.861958 0
M  V30 41 H 1.355048 2.840898 3.924416 0
M  V30 42 H 0.215513 4.159865 4.273368 0
M  V30 43 H -0.436200 1.280122 3.378358 0
M  V30 44 H -0.619939 1.957534 5.042277 0
M  V30 45 H -2.702864 1.328377 5.123484 0
M  V30 46 H -2.429077 0.644960 3.491977 0
M  V30 47 H -3.871939 1.729940 3.786184 0
M  V30 48 H 2.112277 -1.964656 -1.443219 0
M  V30 49 H 1.246133 -7.197126 -1.412305 0
M  V30 50 H 2.451221 -3.956640 -2.727337 0
M  V30 51 H 3.069062 -5.544475 -2.243744 0
M  V30 52 H 3.279936 -4.217722 -1.082740 0
M  V30 END ATOM
M  V30 BEGIN BOND
M  V30 1 1 1 2
M  V30 2 1 2 3
M  V30 3 2 3 4
M  V30 4 1 4 5
M  V30 5 1 5 6
M  V30 6 1 6 7
M  V30 7 1 7 8
M  V30 8 2 8 9
M  V30 9 1 9 10
M  V30 10 2 10 11
M  V30 11 1 11 12
M  V30 12 1 12 13
M  V30 13 1 13 14
M  V30 14 1 14 15
M  V30 15 2 15 16
M  V30 16 1 15 17
M  V30 17 1 17 18
M  V30 18 1 18 19
M  V30 19 1 19 20
M  V30 20 2 12 21
M  V30 21 2 7 22
M  V30 22 1 22 23
M  V30 23 1 23 24
M  V30 24 2 24 25
M  V30 25 1 25 26
M  V30 26 2 26 27
M  V30 27 1 27 28
M  V30 28 1 28 29
M  V30 29 1 25 3
M  V30 30 2 23 5
M  V30 31 1 28 24
M  V30 32 1 21 8
M  V30 33 1 1 30
M  V30 34 1 1 31
M  V30 35 1 1 32
M  V30 36 1 2 33
M  V30 37 1 6 34
M  V30 38 1 9 35
M  V30 39 1 10 36
M  V30 40 1 11 37
M  V30 41 1 13 38
M  V30 42 1 13 39
M  V30 43 1 14 40
M  V30 44 1 17 41
M  V30 45 1 17 42
M  V30 46 1 18 43
M  V30 47 1 18 44
M  V30 48 1 20 45
M  V30 49 1 20 46
M  V30 50 1 20 47
M  V30 51 1 22 48
M  V30 52 1 27 49
M  V30 53 1 29 50
M  V30 54 1 29 51
M  V30 55 1 29 52
M  V30 END BOND
M  V30 END CTAB
M  END
>  <Dataset>  (441) 
ChEMBL_Kinases

>  <Ligand_Instance>  (441) 
nan

>  <PDB_ID>  (441) 
nan

>  <Standardized_SMILES>  (441) 
CNc1nc2[nH]c(-c3cccc(CNC(=O)CCOC)n3)cc2c2c1ncn2C

>  <Name>  (441) 
nan

>  <Pocket>  (441) 
nan

>  <ATP_Site>  (441) 
nan

>  <Peripheral>  (441) 
nan

>  <Num_H_Atoms_ProtBoundConf>  (441) 
nan

>  <Num_Resolved_Atoms>  (441) 
nan

>  <Num_Not_Resolved_Atoms>  (441) 
nan

$$$$
CHEMBL1923976
     RDKit          3D

  0  0  0  0  0  0  0  0  0  0999 V3000
M  V30 BEGIN CTAB
M  V30 COUNTS 48 51 0 0 0
M  V30 BEGIN ATOM
M  V30 1 C 2.039409 -4.975352 1.212658 0
M  V30 2 C 2.902121 -4.822414 -0.004404 0
M  V30 3 C 3.440797 -3.446704 -0.140943 0
M  V30 4 O 2.945850 -2.847799 0.874893 0
M  V30 5 N 4.285294 -2.941778 -1.144095 0
M  V30 6 C 4.559736 -1.538285 -0.878051 0
M  V30 7 C 3.333639 -0.780694 -1.274385 0
M  V30 8 C 3.323033 -0.328119 -2.580520 0
M  V30 9 C 2.193031 0.379293 -2.971716 0
M  V30 10 C 1.153801 0.610039 -2.105944 0
M  V30 11 C 1.207767 0.137932 -0.808493 0
M  V30 12 C 0.112565 0.356419 0.136240 0
M  V30 13 C -1.038350 1.052724 -0.167811 0
M  V30 14 C -1.779306 1.008756 1.015560 0
M  V30 15 C -1.051755 0.298854 1.962957 0
M  V30 16 N -1.535650 0.100180 3.205899 0
M  V30 17 C -2.735277 0.569940 3.601597 0
M  V30 18 N -3.223534 0.340580 4.933757 0
M  V30 19 C -2.370234 -0.420174 5.841208 0
M  V30 20 C -3.478744 1.280175 2.677785 0
M  V30 21 N -4.693839 1.865726 2.782493 0
M  V30 22 C -4.937379 2.417486 1.594327 0
M  V30 23 N -3.951821 2.233425 0.699559 0
M  V30 24 C -3.863377 2.681016 -0.672318 0
M  V30 25 C -3.026462 1.511568 1.387935 0
M  V30 26 N 0.125923 -0.102031 1.401704 0
M  V30 27 N 2.311458 -0.546919 -0.443460 0
M  V30 28 H 2.252955 -5.971507 1.700418 0
M  V30 29 H 0.952842 -4.983478 0.981833 0
M  V30 30 H 2.246195 -4.238099 2.019136 0
M  V30 31 H 2.318063 -5.149349 -0.885679 0
M  V30 32 H 3.783250 -5.504791 0.062337 0
M  V30 33 H 4.566853 -3.619069 -1.881157 0
M  V30 34 H 4.779449 -1.340661 0.183340 0
M  V30 35 H 5.443182 -1.181608 -1.448314 0
M  V30 36 H 4.077059 -0.449609 -3.344535 0
M  V30 37 H 2.104176 0.766022 -3.969889 0
M  V30 38 H 0.285128 1.168948 -2.448825 0
M  V30 39 H -1.330263 1.531903 -1.091079 0
M  V30 40 H -4.160169 0.730634 5.176104 0
M  V30 41 H -1.848165 -1.246699 5.276685 0
M  V30 42 H -2.898450 -0.771934 6.733210 0
M  V30 43 H -1.537689 0.259824 6.134033 0
M  V30 44 H -5.838829 2.956537 1.382406 0
M  V30 45 H -3.084212 3.461297 -0.759339 0
M  V30 46 H -4.828542 3.148387 -0.945662 0
M  V30 47 H -3.696216 1.828379 -1.349499 0
M  V30 48 H 0.908713 -0.656190 1.832768 0
M  V30 END ATOM
M  V30 BEGIN BOND
M  V30 1 1 1 2
M  V30 2 1 2 3
M  V30 3 2 3 4
M  V30 4 1 3 5
M  V30 5 1 5 6
M  V30 6 1 6 7
M  V30 7 2 7 8
M  V30 8 1 8 9
M  V30 9 2 9 10
M  V30 10 1 10 11
M  V30 11 1 11 12
M  V30 12 2 12 13
M  V30 13 1 13 14
M  V30 14 2 14 15
M  V30 15 1 15 16
M  V30 16 2 16 17
M  V30 17 1 17 18
M  V30 18 1 18 19
M  V30 19 1 17 20
M  V30 20 1 20 21
M  V30 21 2 21 22
M  V30 22 1 22 23
M  V30 23 1 23 24
M  V30 24 1 23 25
M  V30 25 1 15 26
M  V30 26 2 11 27
M  V30 27 1 27 7
M  V30 28 1 26 12
M  V30 29 1 25 14
M  V30 30 2 25 20
M  V30 31 1 1 28
M  V30 32 1 1 29
M  V30 33 1 1 30
M  V30 34 1 2 31
M  V30 35 1 2 32
M  V30 36 1 5 33
M  V30 37 1 6 34
M  V30 38 1 6 35
M  V30 39 1 8 36
M  V30 40 1 9 37
M  V30 41 1 10 38
M  V30 42 1 13 39
M  V30 43 1 18 40
M  V30 44 1 19 41
M  V30 45 1 19 42
M  V30 46 1 19 43
M  V30 47 1 22 44
M  V30 48 1 24 45
M  V30 49 1 24 46
M  V30 50 1 24 47
M  V30 51 1 26 48
M  V30 END BOND
M  V30 END CTAB
M  END
>  <Dataset>  (442) 
ChEMBL_Kinases

>  <Ligand_Instance>  (442) 
nan

>  <PDB_ID>  (442) 
nan

>  <Standardized_SMILES>  (442) 
CCC(=O)NCc1cccc(-c2cc3c(nc(NC)c4ncn(C)c43)[nH]2)n1

>  <Name>  (442) 
nan

>  <Pocket>  (442) 
nan

>  <ATP_Site>  (442) 
nan

>  <Peripheral>  (442) 
nan

>  <Num_H_Atoms_ProtBoundConf>  (442) 
nan

>  <Num_Resolved_Atoms>  (442) 
nan

>  <Num_Not_Resolved_Atoms>  (442) 
nan

$$$$
CHEMBL2029617
     RDKit          3D

  0  0  0  0  0  0  0  0  0  0999 V3000
M  V30 BEGIN CTAB
M  V30 COUNTS 44 47 0 0 0
M  V30 BEGIN ATOM
M  V30 1 C 1.443529 -3.071168 1.663003 0
M  V30 2 N 0.919447 -2.327750 0.539987 0
M  V30 3 C 0.310053 -3.292636 -0.372537 0
M  V30 4 C 0.805755 -3.015280 -1.749583 0
M  V30 5 C 1.434383 -1.664122 -1.664748 0
M  V30 6 C 1.935656 -1.652717 -0.235721 0
M  V30 7 C 2.232421 -0.284609 0.175854 0
M  V30 8 C 3.522682 0.209527 -0.049452 0
M  V30 9 O 4.464787 -0.639577 -0.661297 0
M  V30 10 C 3.953471 1.476326 0.282696 0
M  V30 11 C 3.055451 2.332711 0.883280 0
M  V30 12 O 3.449777 3.612837 1.231872 0
M  V30 13 C 1.784446 1.854550 1.108404 0
M  V30 14 C 0.876159 2.726126 1.717888 0
M  V30 15 O 1.223038 3.891999 2.039226 0
M  V30 16 C -0.393911 2.217332 1.931446 0
M  V30 17 C -0.778816 0.941525 1.581493 0
M  V30 18 C -2.123165 0.433184 1.818784 0
M  V30 19 C -2.444660 -0.852399 1.446352 0
M  V30 20 C -3.695489 -1.402580 1.638492 0
M  V30 21 C -4.693761 -0.651238 2.230716 0
M  V30 22 C -4.389562 0.649844 2.614329 0
M  V30 23 C -3.130673 1.165473 2.406903 0
M  V30 24 O 0.118844 0.171177 1.012777 0
M  V30 25 C 1.350386 0.587974 0.777389 0
M  V30 26 H 1.209306 -4.157808 1.606436 0
M  V30 27 H 2.525472 -2.975445 1.790161 0
M  V30 28 H 0.960146 -2.723191 2.611728 0
M  V30 29 H -0.774871 -3.209419 -0.343584 0
M  V30 30 H 0.547133 -4.351838 -0.056331 0
M  V30 31 H -0.031926 -2.940261 -2.485414 0
M  V30 32 H 1.528599 -3.757200 -2.135193 0
M  V30 33 H 2.296922 -1.530221 -2.357199 0
M  V30 34 H 0.690643 -0.848272 -1.761422 0
M  V30 35 H 2.880636 -2.239422 -0.240841 0
M  V30 36 H 4.476390 -0.787559 -1.644241 0
M  V30 37 H 4.973294 1.772453 0.069708 0
M  V30 38 H 3.336270 4.376436 0.591022 0
M  V30 39 H -1.076876 2.897542 2.398916 0
M  V30 40 H -1.698632 -1.452622 0.989635 0
M  V30 41 H -3.895023 -2.425394 1.324416 0
M  V30 42 H -5.643298 -1.123373 2.356494 0
M  V30 43 H -5.192752 1.207711 3.073624 0
M  V30 44 H -2.943796 2.180553 2.722119 0
M  V30 END ATOM
M  V30 BEGIN BOND
M  V30 1 1 1 2
M  V30 2 1 2 3
M  V30 3 1 3 4
M  V30 4 1 4 5
M  V30 5 1 5 6
M  V30 6 1 6 7
M  V30 7 2 7 8
M  V30 8 1 8 9
M  V30 9 1 8 10
M  V30 10 2 10 11
M  V30 11 1 11 12
M  V30 12 1 11 13
M  V30 13 1 13 14
M  V30 14 2 14 15
M  V30 15 1 14 16
M  V30 16 2 16 17
M  V30 17 1 17 18
M  V30 18 2 18 19
M  V30 19 1 19 20
M  V30 20 2 20 21
M  V30 21 1 21 22
M  V30 22 2 22 23
M  V30 23 1 17 24
M  V30 24 1 24 25
M  V30 25 1 6 2
M  V30 26 1 25 7
M  V30 27 2 25 13
M  V30 28 1 23 18
M  V30 29 1 1 26
M  V30 30 1 1 27
M  V30 31 1 1 28
M  V30 32 1 3 29
M  V30 33 1 3 30
M  V30 34 1 4 31
M  V30 35 1 4 32
M  V30 36 1 5 33
M  V30 37 1 5 34
M  V30 38 1 6 35
M  V30 39 1 9 36
M  V30 40 1 10 37
M  V30 41 1 12 38
M  V30 42 1 16 39
M  V30 43 1 19 40
M  V30 44 1 20 41
M  V30 45 1 21 42
M  V30 46 1 22 43
M  V30 47 1 23 44
M  V30 END BOND
M  V30 END CTAB
M  END
>  <Dataset>  (443) 
ChEMBL_Kinases

>  <Ligand_Instance>  (443) 
nan

>  <PDB_ID>  (443) 
nan

>  <Standardized_SMILES>  (443) 
CN1CCCC1c1c(O)cc(O)c2c(=O)cc(-c3ccccc3)oc12

>  <Name>  (443) 
nan

>  <Pocket>  (443) 
nan

>  <ATP_Site>  (443) 
nan

>  <Peripheral>  (443) 
nan

>  <Num_H_Atoms_ProtBoundConf>  (443) 
nan

>  <Num_Resolved_Atoms>  (443) 
nan

>  <Num_Not_Resolved_Atoms>  (443) 
nan

$$$$
CHEMBL2029615
     RDKit          3D

  0  0  0  0  0  0  0  0  0  0999 V3000
M  V30 BEGIN CTAB
M  V30 COUNTS 47 50 0 0 0
M  V30 BEGIN ATOM
M  V30 1 C 0.759960 -2.458958 3.034289 0
M  V30 2 N 0.899550 -2.109827 1.629249 0
M  V30 3 C 0.527331 -3.196299 0.763941 0
M  V30 4 C 0.641424 -2.907704 -0.688969 0
M  V30 5 C 1.755352 -1.926023 -1.012853 0
M  V30 6 C 2.728534 -2.073512 0.114451 0
M  V30 7 C 2.114075 -1.436312 1.333142 0 CFG=1
M  V30 8 C 1.941953 0.015130 1.197965 0
M  V30 9 C 3.178901 0.675898 1.250486 0
M  V30 10 O 4.420692 0.056405 1.413905 0
M  V30 11 C 3.300023 2.052303 1.142817 0
M  V30 12 C 2.177133 2.831677 0.976460 0
M  V30 13 O 2.208743 4.219522 0.859136 0
M  V30 14 C 0.970600 2.181195 0.926671 0
M  V30 15 C -0.238859 2.863773 0.764941 0
M  V30 16 O -0.147569 4.118574 0.664179 0
M  V30 17 C -1.399403 2.123016 0.730635 0
M  V30 18 C -1.452243 0.750929 0.844779 0
M  V30 19 C -2.755305 0.102851 0.793580 0
M  V30 20 C -3.960228 0.744201 0.608932 0
M  V30 21 C -5.174087 0.130147 0.575494 0
M  V30 22 C -5.222302 -1.248739 0.738282 0
M  V30 23 C -4.060832 -1.996206 0.931454 0
M  V30 24 C -2.891037 -1.267631 0.947244 0
M  V30 25 O -0.298531 0.119198 0.996417 0
M  V30 26 C 0.836305 0.812711 1.033293 0
M  V30 27 H 0.345391 -3.472657 3.200996 0
M  V30 28 H 1.739921 -2.362025 3.588187 0
M  V30 29 H 0.081967 -1.711411 3.492850 0
M  V30 30 H -0.470802 -3.633999 0.969948 0
M  V30 31 H 1.231154 -4.049515 1.001259 0
M  V30 32 H 0.858542 -3.839580 -1.293989 0
M  V30 33 H -0.293752 -2.490978 -1.110005 0
M  V30 34 H 1.355306 -0.886343 -1.103392 0
M  V30 35 H 2.253000 -2.210867 -1.942525 0
M  V30 36 H 2.866848 -3.148816 0.325082 0
M  V30 37 H 3.748742 -1.690184 -0.099269 0
M  V30 38 H 2.812125 -1.632704 2.187945 0
M  V30 39 H 5.216627 0.193435 0.835254 0
M  V30 40 H 4.239513 2.596621 1.180560 0
M  V30 41 H 2.207006 4.627606 -0.068780 0
M  V30 42 H -2.240487 2.796168 0.600792 0
M  V30 43 H -3.956277 1.810352 0.479652 0
M  V30 44 H -6.078699 0.701777 0.422813 0
M  V30 45 H -6.156017 -1.817860 0.725133 0
M  V30 46 H -4.040287 -3.075141 1.063885 0
M  V30 47 H -1.989915 -1.824467 1.095280 0
M  V30 END ATOM
M  V30 BEGIN BOND
M  V30 1 1 1 2
M  V30 2 1 2 3
M  V30 3 1 3 4
M  V30 4 1 4 5
M  V30 5 1 5 6
M  V30 6 1 6 7
M  V30 7 1 7 8
M  V30 8 2 8 9
M  V30 9 1 9 10
M  V30 10 1 9 11
M  V30 11 2 11 12
M  V30 12 1 12 13
M  V30 13 1 12 14
M  V30 14 1 14 15
M  V30 15 2 15 16
M  V30 16 1 15 17
M  V30 17 2 17 18
M  V30 18 1 18 19
M  V30 19 2 19 20
M  V30 20 1 20 21
M  V30 21 2 21 22
M  V30 22 1 22 23
M  V30 23 2 23 24
M  V30 24 1 18 25
M  V30 25 1 25 26
M  V30 26 1 7 2
M  V30 27 1 26 8
M  V30 28 2 26 14
M  V30 29 1 24 19
M  V30 30 1 1 27
M  V30 31 1 1 28
M  V30 32 1 1 29
M  V30 33 1 3 30
M  V30 34 1 3 31
M  V30 35 1 4 32
M  V30 36 1 4 33
M  V30 37 1 5 34
M  V30 38 1 5 35
M  V30 39 1 6 36
M  V30 40 1 6 37
M  V30 41 1 7 38 CFG=1
M  V30 42 1 10 39
M  V30 43 1 11 40
M  V30 44 1 13 41
M  V30 45 1 17 42
M  V30 46 1 20 43
M  V30 47 1 21 44
M  V30 48 1 22 45
M  V30 49 1 23 46
M  V30 50 1 24 47
M  V30 END BOND
M  V30 END CTAB
M  END
>  <Dataset>  (444) 
ChEMBL_Kinases

>  <Ligand_Instance>  (444) 
nan

>  <PDB_ID>  (444) 
nan

>  <Standardized_SMILES>  (444) 
CN1CCCC[C@H]1c1c(O)cc(O)c2c(=O)cc(-c3ccccc3)oc12

>  <Name>  (444) 
nan

>  <Pocket>  (444) 
nan

>  <ATP_Site>  (444) 
nan

>  <Peripheral>  (444) 
nan

>  <Num_H_Atoms_ProtBoundConf>  (444) 
nan

>  <Num_Resolved_Atoms>  (444) 
nan

>  <Num_Not_Resolved_Atoms>  (444) 
nan

$$$$
CHEMBL202961
     RDKit          3D

  0  0  0  0  0  0  0  0  0  0999 V3000
M  V30 BEGIN CTAB
M  V30 COUNTS 58 61 0 0 0
M  V30 BEGIN ATOM
M  V30 1 C 1.607037 -2.183633 3.486257 0
M  V30 2 C 2.588718 -2.468865 2.372800 0
M  V30 3 O 3.071910 -1.269280 1.820500 0
M  V30 4 C 3.755995 -0.293852 2.490862 0
M  V30 5 C 4.054471 -0.396396 3.842726 0
M  V30 6 C 4.746417 0.565980 4.567780 0
M  V30 7 C 5.170025 1.709756 3.898442 0
M  V30 8 C 4.886101 1.839481 2.547409 0
M  V30 9 C 4.198716 0.870625 1.853410 0
M  V30 10 N 3.890579 0.954532 0.477494 0
M  V30 11 C 2.637828 0.965222 -0.190200 0
M  V30 12 C 1.483688 0.928223 0.549639 0
M  V30 13 C 0.308351 0.929959 -0.173581 0
M  V30 14 C -1.019620 0.895385 0.456108 0
M  V30 15 C -1.201514 1.507217 1.692828 0
M  V30 16 C -2.496725 1.417381 2.210362 0
M  V30 17 N -3.521405 0.796933 1.596590 0
M  V30 18 C -3.349931 0.202373 0.398312 0
M  V30 19 N -4.439228 -0.449055 -0.241903 0
M  V30 20 C -4.441899 -1.155229 -1.476055 0
M  V30 21 C -5.241262 -0.737238 -2.519718 0
M  V30 22 C -5.264424 -1.416547 -3.741222 0
M  V30 23 C -4.454676 -2.526922 -3.868621 0
M  V30 24 C -3.652411 -2.951735 -2.830344 0
M  V30 25 C -3.617435 -2.281712 -1.598049 0
M  V30 26 O -2.840653 -2.664199 -0.541313 0
M  V30 27 C -1.962192 -3.730924 -0.441788 0
M  V30 28 C -0.827270 -3.744430 -1.414013 0
M  V30 29 C -2.080255 0.279164 -0.131306 0
M  V30 30 C 0.393670 0.968579 -1.562906 0
M  V30 31 C 1.572231 1.005533 -2.274169 0
M  V30 32 N 2.717520 1.002649 -1.531555 0
M  V30 33 H 1.476851 -1.107193 3.688867 0
M  V30 34 H 1.850447 -2.720005 4.425205 0
M  V30 35 H 0.602729 -2.554245 3.127771 0
M  V30 36 H 2.116415 -3.032387 1.532272 0
M  V30 37 H 3.408187 -3.130121 2.728789 0
M  V30 38 H 3.754049 -1.260651 4.420677 0
M  V30 39 H 4.952428 0.435158 5.622776 0
M  V30 40 H 5.705000 2.443524 4.481944 0
M  V30 41 H 5.214627 2.723347 2.032674 0
M  V30 42 H 4.826623 1.010793 0.027099 0
M  V30 43 H 1.422341 0.901401 1.612288 0
M  V30 44 H -0.410464 2.013691 2.218939 0
M  V30 45 H -2.651223 1.889013 3.169396 0
M  V30 46 H -5.365465 -0.439227 0.199116 0
M  V30 47 H -5.875950 0.144676 -2.402128 0
M  V30 48 H -5.869482 -1.129268 -4.578372 0
M  V30 49 H -4.417184 -3.106426 -4.784809 0
M  V30 50 H -3.028347 -3.824995 -2.959562 0
M  V30 51 H -1.601168 -3.748349 0.628350 0
M  V30 52 H -2.575213 -4.665441 -0.517520 0
M  V30 53 H 0.127190 -3.612751 -0.828517 0
M  V30 54 H -0.809114 -4.731364 -1.926087 0
M  V30 55 H -0.942743 -2.941574 -2.172240 0
M  V30 56 H -1.870956 -0.169160 -1.084105 0
M  V30 57 H -0.533118 0.970218 -2.147791 0
M  V30 58 H 1.565790 1.034510 -3.352541 0
M  V30 END ATOM
M  V30 BEGIN BOND
M  V30 1 1 1 2
M  V30 2 1 2 3
M  V30 3 1 3 4
M  V30 4 2 4 5
M  V30 5 1 5 6
M  V30 6 2 6 7
M  V30 7 1 7 8
M  V30 8 2 8 9
M  V30 9 1 9 10
M  V30 10 1 10 11
M  V30 11 2 11 12
M  V30 12 1 12 13
M  V30 13 1 13 14
M  V30 14 2 14 15
M  V30 15 1 15 16
M  V30 16 2 16 17
M  V30 17 1 17 18
M  V30 18 1 18 19
M  V30 19 1 19 20
M  V30 20 2 20 21
M  V30 21 1 21 22
M  V30 22 2 22 23
M  V30 23 1 23 24
M  V30 24 2 24 25
M  V30 25 1 25 26
M  V30 26 1 26 27
M  V30 27 1 27 28
M  V30 28 2 18 29
M  V30 29 2 13 30
M  V30 30 1 30 31
M  V30 31 2 31 32
M  V30 32 1 9 4
M  V30 33 1 32 11
M  V30 34 1 29 14
M  V30 35 1 25 20
M  V30 36 1 1 33
M  V30 37 1 1 34
M  V30 38 1 1 35
M  V30 39 1 2 36
M  V30 40 1 2 37
M  V30 41 1 5 38
M  V30 42 1 6 39
M  V30 43 1 7 40
M  V30 44 1 8 41
M  V30 45 1 10 42
M  V30 46 1 12 43
M  V30 47 1 15 44
M  V30 48 1 16 45
M  V30 49 1 19 46
M  V30 50 1 21 47
M  V30 51 1 22 48
M  V30 52 1 23 49
M  V30 53 1 24 50
M  V30 54 1 27 51
M  V30 55 1 27 52
M  V30 56 1 28 53
M  V30 57 1 28 54
M  V30 58 1 28 55
M  V30 59 1 29 56
M  V30 60 1 30 57
M  V30 61 1 31 58
M  V30 END BOND
M  V30 END CTAB
M  END
>  <Dataset>  (445) 
ChEMBL_Kinases

>  <Ligand_Instance>  (445) 
nan

>  <PDB_ID>  (445) 
nan

>  <Standardized_SMILES>  (445) 
CCOc1ccccc1Nc1cc(-c2ccnc(Nc3ccccc3OCC)c2)ccn1

>  <Name>  (445) 
nan

>  <Pocket>  (445) 
nan

>  <ATP_Site>  (445) 
nan

>  <Peripheral>  (445) 
nan

>  <Num_H_Atoms_ProtBoundConf>  (445) 
nan

>  <Num_Resolved_Atoms>  (445) 
nan

>  <Num_Not_Resolved_Atoms>  (445) 
nan

$$$$
CHEMBL2029515
     RDKit          3D

  0  0  0  0  0  0  0  0  0  0999 V3000
M  V30 BEGIN CTAB
M  V30 COUNTS 21 22 0 0 0
M  V30 BEGIN ATOM
M  V30 1 C -0.450671 -1.622719 4.848452 0
M  V30 2 C -0.334882 -0.947944 3.524276 0
M  V30 3 O -1.397027 -0.775545 2.847797 0
M  V30 4 N 0.954375 -0.537996 3.097365 0
M  V30 5 C 0.935158 0.114638 1.776010 0
M  V30 6 N 1.050214 -0.384632 0.750174 0
M  V30 7 C 1.041301 0.148011 -0.465613 0
M  V30 8 C 1.180821 -0.463460 -1.693745 0
M  V30 9 C 1.139047 0.296827 -2.839670 0
M  V30 10 C 0.964433 1.664791 -2.883081 0
M  V30 11 F 0.917993 2.444220 -3.984402 0
M  V30 12 C 0.823157 2.294281 -1.666538 0
M  V30 13 C 0.866620 1.515998 -0.507693 0
M  V30 14 S 0.723167 1.954290 1.254390 0
M  V30 15 H -0.411426 -0.887356 5.682658 0
M  V30 16 H -1.420922 -2.149798 4.963287 0
M  V30 17 H 0.387007 -2.321113 4.980126 0
M  V30 18 H 1.823108 -0.666463 3.625383 0
M  V30 19 H 1.327578 -1.543635 -1.839733 0
M  V30 20 H 1.250731 -0.192716 -3.822549 0
M  V30 21 H 0.678061 3.345485 -1.478337 0
M  V30 END ATOM
M  V30 BEGIN BOND
M  V30 1 1 1 2
M  V30 2 2 2 3
M  V30 3 1 2 4
M  V30 4 1 4 5
M  V30 5 2 5 6
M  V30 6 1 6 7
M  V30 7 2 7 8
M  V30 8 1 8 9
M  V30 9 2 9 10
M  V30 10 1 10 11
M  V30 11 1 10 12
M  V30 12 2 12 13
M  V30 13 1 13 14
M  V30 14 1 14 5
M  V30 15 1 13 7
M  V30 16 1 1 15
M  V30 17 1 1 16
M  V30 18 1 1 17
M  V30 19 1 4 18
M  V30 20 1 8 19
M  V30 21 1 9 20
M  V30 22 1 12 21
M  V30 END BOND
M  V30 END CTAB
M  END
>  <Dataset>  (446) 
ChEMBL_Kinases

>  <Ligand_Instance>  (446) 
nan

>  <PDB_ID>  (446) 
nan

>  <Standardized_SMILES>  (446) 
CC(=O)Nc1nc2ccc(F)cc2s1

>  <Name>  (446) 
nan

>  <Pocket>  (446) 
nan

>  <ATP_Site>  (446) 
nan

>  <Peripheral>  (446) 
nan

>  <Num_H_Atoms_ProtBoundConf>  (446) 
nan

>  <Num_Resolved_Atoms>  (446) 
nan

>  <Num_Not_Resolved_Atoms>  (446) 
nan

$$$$
CHEMBL202943
     RDKit          3D

  0  0  0  0  0  0  0  0  0  0999 V3000
M  V30 BEGIN CTAB
M  V30 COUNTS 46 49 0 0 0
M  V30 BEGIN ATOM
M  V30 1 C -0.954882 -7.370113 1.144749 0
M  V30 2 C 0.385013 -6.749800 1.221836 0
M  V30 3 O 0.118120 -5.599802 1.602266 0
M  V30 4 C 1.776333 -6.293318 1.243554 0
M  V30 5 O 1.953332 -4.950053 1.532602 0
M  V30 6 C 1.520478 -3.850616 0.832094 0
M  V30 7 C 1.920640 -2.695903 1.518514 0
M  V30 8 C 1.622894 -1.413921 1.044469 0
M  V30 9 C 0.915609 -1.264248 -0.131068 0
M  V30 10 C 0.539729 0.012218 -0.733554 0
M  V30 11 C 0.858512 1.213610 -0.178239 0
M  V30 12 C 0.520808 2.453138 -0.716232 0
M  V30 13 C 0.903560 3.718428 -0.051174 0
M  V30 14 C 1.685726 4.816043 -0.350272 0
M  V30 15 N 1.605338 5.641284 0.722357 0
M  V30 16 N 0.823386 5.100341 1.639468 0
M  V30 17 C 0.353905 3.897804 1.215114 0
M  V30 18 C -0.538514 3.087187 2.048607 0
M  V30 19 C -1.812674 2.850121 1.528356 0
M  V30 20 C -2.683332 2.082982 2.295051 0
M  V30 21 C -2.253761 1.594675 3.524339 0
M  V30 22 C -0.979365 1.843090 4.023846 0
M  V30 23 N -0.180596 2.587925 3.244285 0
M  V30 24 C -0.188315 2.477608 -1.897677 0
M  V30 25 C -0.503172 1.253025 -2.447048 0
M  V30 26 N -0.152399 0.082732 -1.885761 0
M  V30 27 C 0.529119 -2.410045 -0.795259 0
M  V30 28 C 0.816247 -3.678917 -0.339285 0
M  V30 29 H -1.608338 -6.877708 0.410108 0
M  V30 30 H -1.462813 -7.403620 2.125457 0
M  V30 31 H -0.830111 -8.441529 0.839390 0
M  V30 32 H 2.246529 -6.551817 0.248664 0
M  V30 33 H 2.371078 -6.890482 1.983008 0
M  V30 34 H 2.483295 -2.633147 2.456887 0
M  V30 35 H 1.915114 -0.503416 1.547101 0
M  V30 36 H 1.406502 1.284406 0.736420 0
M  V30 37 H 2.170847 4.794191 -1.316438 0
M  V30 38 H 2.137435 6.537398 0.684887 0
M  V30 39 H -2.194533 3.203294 0.585391 0
M  V30 40 H -3.696071 1.860470 1.944538 0
M  V30 41 H -2.966663 1.001097 4.088060 0
M  V30 42 H -0.661604 1.450671 4.991169 0
M  V30 43 H -0.480692 3.389136 -2.366870 0
M  V30 44 H -1.060260 1.258722 -3.375471 0
M  V30 45 H -0.031521 -2.369184 -1.728411 0
M  V30 46 H 0.548363 -4.590427 -0.821927 0
M  V30 END ATOM
M  V30 BEGIN BOND
M  V30 1 1 1 2
M  V30 2 2 2 3
M  V30 3 1 2 4
M  V30 4 1 4 5
M  V30 5 1 5 6
M  V30 6 2 6 7
M  V30 7 1 7 8
M  V30 8 2 8 9
M  V30 9 1 9 10
M  V30 10 2 10 11
M  V30 11 1 11 12
M  V30 12 1 12 13
M  V30 13 2 13 14
M  V30 14 1 14 15
M  V30 15 1 15 16
M  V30 16 2 16 17
M  V30 17 1 17 18
M  V30 18 2 18 19
M  V30 19 1 19 20
M  V30 20 2 20 21
M  V30 21 1 21 22
M  V30 22 2 22 23
M  V30 23 2 12 24
M  V30 24 1 24 25
M  V30 25 2 25 26
M  V30 26 1 9 27
M  V30 27 2 27 28
M  V30 28 1 28 6
M  V30 29 1 26 10
M  V30 30 1 17 13
M  V30 31 1 23 18
M  V30 32 1 1 29
M  V30 33 1 1 30
M  V30 34 1 1 31
M  V30 35 1 4 32
M  V30 36 1 4 33
M  V30 37 1 7 34
M  V30 38 1 8 35
M  V30 39 1 11 36
M  V30 40 1 14 37
M  V30 41 1 15 38
M  V30 42 1 19 39
M  V30 43 1 20 40
M  V30 44 1 21 41
M  V30 45 1 22 42
M  V30 46 1 24 43
M  V30 47 1 25 44
M  V30 48 1 27 45
M  V30 49 1 28 46
M  V30 END BOND
M  V30 END CTAB
M  END
>  <Dataset>  (447) 
ChEMBL_Kinases

>  <Ligand_Instance>  (447) 
nan

>  <PDB_ID>  (447) 
nan

>  <Standardized_SMILES>  (447) 
CC(=O)COc1ccc(-c2cc(-c3c[nH]nc3-c3ccccn3)ccn2)cc1

>  <Name>  (447) 
nan

>  <Pocket>  (447) 
nan

>  <ATP_Site>  (447) 
nan

>  <Peripheral>  (447) 
nan

>  <Num_H_Atoms_ProtBoundConf>  (447) 
nan

>  <Num_Resolved_Atoms>  (447) 
nan

>  <Num_Not_Resolved_Atoms>  (447) 
nan

$$$$
CHEMBL202937
     RDKit          3D

  0  0  0  0  0  0  0  0  0  0999 V3000
M  V30 BEGIN CTAB
M  V30 COUNTS 49 52 0 0 0
M  V30 BEGIN ATOM
M  V30 1 C -1.121802 -5.826324 3.582058 0
M  V30 2 N -0.888058 -4.448037 3.197619 0
M  V30 3 C 0.291458 -3.805536 3.177686 0
M  V30 4 C 0.207343 -2.493999 2.766312 0
M  V30 5 C 1.177962 -1.418998 2.581750 0
M  V30 6 C 2.448282 -1.721003 3.325521 0
M  V30 7 N 3.086109 -2.941333 2.888815 0
M  V30 8 C 1.408672 -1.093826 1.154554 0
M  V30 9 C 2.089463 -1.901559 0.273817 0
M  V30 10 N 2.310196 -1.596365 -1.030487 0
M  V30 11 C 1.833895 -0.414520 -1.523493 0
M  V30 12 C 1.142412 0.448974 -0.706499 0
M  V30 13 C 0.608994 1.725506 -1.164511 0
M  V30 14 C 0.714021 2.213218 -2.375404 0
M  V30 15 C 0.189981 3.499055 -2.881721 0
M  V30 16 C 0.373904 3.895785 -4.189667 0
M  V30 17 C -0.143616 5.109721 -4.591053 0
M  V30 18 N -0.823291 5.941295 -3.782677 0
M  V30 19 C -1.024462 5.580826 -2.480985 0
M  V30 20 C -0.509711 4.367769 -2.071848 0
M  V30 21 C 0.951967 0.080868 0.607323 0
M  V30 22 C -1.164934 -2.357946 2.520765 0
M  V30 23 C -2.006320 -1.349723 2.090396 0
M  V30 24 C -3.348932 -1.496672 1.936574 0
M  V30 25 C -3.954837 -2.704871 2.213679 0
M  V30 26 C -3.165123 -3.748049 2.647086 0
M  V30 27 C -1.806844 -3.558804 2.790405 0
M  V30 28 H -0.173865 -6.385156 3.700723 0
M  V30 29 H -1.659998 -5.877483 4.560799 0
M  V30 30 H -1.733350 -6.365105 2.835439 0
M  V30 31 H 1.216656 -4.284229 3.461184 0
M  V30 32 H 0.705472 -0.505315 3.071977 0
M  V30 33 H 3.161997 -0.859175 3.296608 0
M  V30 34 H 2.161309 -1.815246 4.412887 0
M  V30 35 H 4.012712 -2.705038 2.408586 0
M  V30 36 H 3.431998 -3.470026 3.751639 0
M  V30 37 H 2.483286 -2.844628 0.599216 0
M  V30 38 H 2.013202 -0.178298 -2.561717 0
M  V30 39 H 0.069888 2.361584 -0.477218 0
M  V30 40 H 1.248101 1.611014 -3.104592 0
M  V30 41 H 0.917553 3.236883 -4.849030 0
M  V30 42 H 0.001992 5.417592 -5.615626 0
M  V30 43 H -1.570012 6.243012 -1.822485 0
M  V30 44 H -0.700527 4.147418 -1.048177 0
M  V30 45 H 0.399258 0.773882 1.258621 0
M  V30 46 H -1.601831 -0.395809 1.862552 0
M  V30 47 H -3.997398 -0.693252 1.597145 0
M  V30 48 H -5.025628 -2.806686 2.086234 0
M  V30 49 H -3.644643 -4.698843 2.864818 0
M  V30 END ATOM
M  V30 BEGIN BOND
M  V30 1 1 1 2
M  V30 2 1 2 3
M  V30 3 2 3 4
M  V30 4 1 4 5
M  V30 5 1 5 6
M  V30 6 1 6 7
M  V30 7 1 5 8
M  V30 8 2 8 9
M  V30 9 1 9 10
M  V30 10 2 10 11
M  V30 11 1 11 12
M  V30 12 1 12 13
M  V30 13 2 13 14
M  V30 14 1 14 15
M  V30 15 2 15 16
M  V30 16 1 16 17
M  V30 17 2 17 18
M  V30 18 1 18 19
M  V30 19 2 19 20
M  V30 20 2 12 21
M  V30 21 1 4 22
M  V30 22 2 22 23
M  V30 23 1 23 24
M  V30 24 2 24 25
M  V30 25 1 25 26
M  V30 26 2 26 27
M  V30 27 1 27 2
M  V30 28 1 21 8
M  V30 29 1 27 22
M  V30 30 1 20 15
M  V30 31 1 1 28
M  V30 32 1 1 29
M  V30 33 1 1 30
M  V30 34 1 3 31
M  V30 35 1 5 32
M  V30 36 1 6 33
M  V30 37 1 6 34
M  V30 38 1 7 35
M  V30 39 1 7 36
M  V30 40 1 9 37
M  V30 41 1 11 38
M  V30 42 1 13 39
M  V30 43 1 14 40
M  V30 44 1 16 41
M  V30 45 1 17 42
M  V30 46 1 19 43
M  V30 47 1 20 44
M  V30 48 1 21 45
M  V30 49 1 23 46
M  V30 50 1 24 47
M  V30 51 1 25 48
M  V30 52 1 26 49
M  V30 END BOND
M  V30 END CTAB
M  END
>  <Dataset>  (448) 
ChEMBL_Kinases

>  <Ligand_Instance>  (448) 
nan

>  <PDB_ID>  (448) 
nan

>  <Standardized_SMILES>  (448) 
Cn1cc(C(CN)c2cncc(/C=C/c3ccncc3)c2)c2ccccc21

>  <Name>  (448) 
nan

>  <Pocket>  (448) 
nan

>  <ATP_Site>  (448) 
nan

>  <Peripheral>  (448) 
nan

>  <Num_H_Atoms_ProtBoundConf>  (448) 
nan

>  <Num_Resolved_Atoms>  (448) 
nan

>  <Num_Not_Resolved_Atoms>  (448) 
nan

$$$$
CHEMBL2029367
     RDKit          3D

  0  0  0  0  0  0  0  0  0  0999 V3000
M  V30 BEGIN CTAB
M  V30 COUNTS 57 61 0 0 0
M  V30 BEGIN ATOM
M  V30 1 C 0.445018 0.023314 5.201792 0
M  V30 2 C 1.288362 0.793900 4.256790 0
M  V30 3 C 2.546970 1.112965 4.722129 0
M  V30 4 C 3.436259 1.837480 3.924386 0
M  V30 5 C 2.997028 2.214224 2.660274 0
M  V30 6 N 3.787156 2.964354 1.711068 0
M  V30 7 C 4.515395 2.065230 0.902463 0
M  V30 8 O 4.341769 0.844815 1.155038 0
M  V30 9 C 5.425236 2.516704 -0.173380 0
M  V30 10 N 5.792834 3.617580 -0.646400 0
M  V30 11 C 6.663486 3.637739 -1.658879 0
M  V30 12 C 7.158972 2.380551 -2.182160 0
M  V30 13 S 6.208156 1.208749 -1.028545 0
M  V30 14 C 1.738868 1.899526 2.185498 0
M  V30 15 C 0.873689 1.183405 2.987015 0
M  V30 16 N -0.456645 0.806973 2.583781 0
M  V30 17 C -1.596241 1.262864 3.137612 0
M  V30 18 N -2.763097 0.805861 2.637375 0
M  V30 19 C -2.831976 -0.071147 1.625749 0
M  V30 20 C -4.046576 -0.512919 1.144209 0
M  V30 21 C -4.117334 -1.428922 0.087543 0
M  V30 22 C -2.915776 -1.856799 -0.435383 0
M  V30 23 N -3.027236 -2.784747 -1.504470 0
M  V30 24 C -4.329552 -3.218407 -1.968406 0
M  V30 25 C -4.234287 -4.316784 -2.993507 0
M  V30 26 N -3.356136 -5.377728 -2.613313 0
M  V30 27 C -3.165942 -6.261554 -3.738456 0
M  V30 28 C -2.099355 -4.936849 -2.081598 0
M  V30 29 C -2.002499 -3.440253 -2.291139 0
M  V30 30 C -1.673881 -1.447209 0.008312 0
M  V30 31 C -1.655097 -0.536626 1.059939 0
M  V30 32 C -0.436746 -0.082415 1.555724 0
M  V30 33 O 0.588137 -0.530502 1.013581 0
M  V30 34 H -0.554473 -0.219302 4.837044 0
M  V30 35 H 0.309391 0.572567 6.179322 0
M  V30 36 H 0.933361 -0.944525 5.493346 0
M  V30 37 H 2.969326 0.864004 5.681877 0
M  V30 38 H 4.436989 2.131304 4.203868 0
M  V30 39 H 3.900077 3.994262 1.537019 0
M  V30 40 H 6.833293 4.703723 -1.900591 0
M  V30 41 H 7.926146 2.726335 -3.088060 0
M  V30 42 H 1.373277 2.180108 1.207832 0
M  V30 43 H -1.490831 1.968862 3.950669 0
M  V30 44 H -4.973121 -0.146294 1.589816 0
M  V30 45 H -5.084843 -1.749571 -0.260058 0
M  V30 46 H -4.845151 -3.615877 -1.045436 0
M  V30 47 H -4.893089 -2.378221 -2.423478 0
M  V30 48 H -4.047463 -3.900915 -3.998956 0
M  V30 49 H -5.265020 -4.775550 -3.050359 0
M  V30 50 H -3.952354 -6.055716 -4.515072 0
M  V30 51 H -3.327418 -7.325348 -3.428166 0
M  V30 52 H -2.163264 -6.154808 -4.187360 0
M  V30 53 H -2.051919 -5.139912 -0.987561 0
M  V30 54 H -1.274428 -5.468378 -2.580689 0
M  V30 55 H -2.068284 -3.194095 -3.367242 0
M  V30 56 H -0.973031 -3.164501 -1.985613 0
M  V30 57 H -0.754116 -1.795277 -0.415707 0
M  V30 END ATOM
M  V30 BEGIN BOND
M  V30 1 1 1 2
M  V30 2 2 2 3
M  V30 3 1 3 4
M  V30 4 2 4 5
M  V30 5 1 5 6
M  V30 6 1 6 7
M  V30 7 2 7 8
M  V30 8 1 7 9
M  V30 9 2 9 10
M  V30 10 1 10 11
M  V30 11 2 11 12
M  V30 12 1 12 13
M  V30 13 1 5 14
M  V30 14 2 14 15
M  V30 15 1 15 16
M  V30 16 1 16 17
M  V30 17 2 17 18
M  V30 18 1 18 19
M  V30 19 2 19 20
M  V30 20 1 20 21
M  V30 21 2 21 22
M  V30 22 1 22 23
M  V30 23 1 23 24
M  V30 24 1 24 25
M  V30 25 1 25 26
M  V30 26 1 26 27
M  V30 27 1 26 28
M  V30 28 1 28 29
M  V30 29 1 22 30
M  V30 30 2 30 31
M  V30 31 1 31 32
M  V30 32 2 32 33
M  V30 33 1 15 2
M  V30 34 1 32 16
M  V30 35 1 13 9
M  V30 36 1 31 19
M  V30 37 1 29 23
M  V30 38 1 1 34
M  V30 39 1 1 35
M  V30 40 1 1 36
M  V30 41 1 3 37
M  V30 42 1 4 38
M  V30 43 1 6 39
M  V30 44 1 11 40
M  V30 45 1 12 41
M  V30 46 1 14 42
M  V30 47 1 17 43
M  V30 48 1 20 44
M  V30 49 1 21 45
M  V30 50 1 24 46
M  V30 51 1 24 47
M  V30 52 1 25 48
M  V30 53 1 25 49
M  V30 54 1 27 50
M  V30 55 1 27 51
M  V30 56 1 27 52
M  V30 57 1 28 53
M  V30 58 1 28 54
M  V30 59 1 29 55
M  V30 60 1 29 56
M  V30 61 1 30 57
M  V30 END BOND
M  V30 END CTAB
M  END
>  <Dataset>  (449) 
ChEMBL_Kinases

>  <Ligand_Instance>  (449) 
nan

>  <PDB_ID>  (449) 
nan

>  <Standardized_SMILES>  (449) 
Cc1ccc(NC(=O)c2nccs2)cc1-n1cnc2ccc(N3CCN(C)CC3)cc2c1=O

>  <Name>  (449) 
nan

>  <Pocket>  (449) 
nan

>  <ATP_Site>  (449) 
nan

>  <Peripheral>  (449) 
nan

>  <Num_H_Atoms_ProtBoundConf>  (449) 
nan

>  <Num_Resolved_Atoms>  (449) 
nan

>  <Num_Not_Resolved_Atoms>  (449) 
nan

$$$$
CHEMBL202930
     RDKit          3D

  0  0  0  0  0  0  0  0  0  0999 V3000
M  V30 BEGIN CTAB
M  V30 COUNTS 41 44 0 0 0
M  V30 BEGIN ATOM
M  V30 1 C 2.554719 -5.885589 1.301487 0
M  V30 2 O 3.862477 -5.358234 1.155217 0
M  V30 3 C 3.977931 -3.990120 0.952007 0
M  V30 4 C 2.844046 -3.159135 0.897056 0
M  V30 5 C 3.038798 -1.786307 0.687623 0
M  V30 6 C 1.805716 -1.005242 0.654116 0
M  V30 7 C 0.634785 -1.555504 0.175263 0
M  V30 8 C -0.577280 -0.852351 0.125731 0
M  V30 9 C -0.513293 0.460568 0.601600 0
M  V30 10 C 0.626555 1.059165 1.089637 0
M  V30 11 C 1.782506 0.302444 1.106958 0
M  V30 12 N 0.301268 2.409677 1.480141 0
M  V30 13 C -1.080071 2.604648 1.209821 0
M  V30 14 O -1.583262 3.703551 1.472402 0
M  V30 15 C -1.651891 1.391428 0.646402 0
M  V30 16 C -2.933962 1.299932 0.331314 0
M  V30 17 C -3.945424 2.328000 0.430944 0
M  V30 18 C -5.138169 1.939905 1.049315 0
M  V30 19 C -6.005488 3.006979 1.043363 0
M  V30 20 C -5.368888 4.045992 0.431715 0
M  V30 21 N -4.129490 3.606802 0.073761 0
M  V30 22 C 4.285687 -1.202471 0.531318 0
M  V30 23 C 5.362447 -2.058452 0.593446 0
M  V30 24 C 5.222092 -3.415074 0.797597 0
M  V30 25 O 6.392126 -4.192053 0.842673 0
M  V30 26 H 2.598080 -6.972432 1.536852 0
M  V30 27 H 2.052333 -5.843018 0.298226 0
M  V30 28 H 1.938966 -5.353029 2.033483 0
M  V30 29 H 1.876569 -3.592313 1.014802 0
M  V30 30 H 0.593553 -2.572892 -0.190875 0
M  V30 31 H -1.487082 -1.293765 -0.251736 0
M  V30 32 H 2.705774 0.742487 1.486363 0
M  V30 33 H 1.021306 3.048772 1.879573 0
M  V30 34 H -3.158139 0.299285 -0.036801 0
M  V30 35 H -5.534507 1.040696 1.515293 0
M  V30 36 H -7.009844 3.163761 1.400866 0
M  V30 37 H -5.646872 5.065092 0.199513 0
M  V30 38 H -3.378452 4.124787 -0.423516 0
M  V30 39 H 4.303744 -0.140179 0.376147 0
M  V30 40 H 6.343951 -1.622933 0.473872 0
M  V30 41 H 6.569521 -4.888931 1.562115 0
M  V30 END ATOM
M  V30 BEGIN BOND
M  V30 1 1 1 2
M  V30 2 1 2 3
M  V30 3 2 3 4
M  V30 4 1 4 5
M  V30 5 1 5 6
M  V30 6 2 6 7
M  V30 7 1 7 8
M  V30 8 2 8 9
M  V30 9 1 9 10
M  V30 10 2 10 11
M  V30 11 1 10 12
M  V30 12 1 12 13
M  V30 13 2 13 14
M  V30 14 1 13 15
M  V30 15 2 15 16
M  V30 16 1 16 17
M  V30 17 2 17 18
M  V30 18 1 18 19
M  V30 19 2 19 20
M  V30 20 1 20 21
M  V30 21 2 5 22
M  V30 22 1 22 23
M  V30 23 2 23 24
M  V30 24 1 24 25
M  V30 25 1 24 3
M  V30 26 1 11 6
M  V30 27 1 21 17
M  V30 28 1 15 9
M  V30 29 1 1 26
M  V30 30 1 1 27
M  V30 31 1 1 28
M  V30 32 1 4 29
M  V30 33 1 7 30
M  V30 34 1 8 31
M  V30 35 1 11 32
M  V30 36 1 12 33
M  V30 37 1 16 34
M  V30 38 1 18 35
M  V30 39 1 19 36
M  V30 40 1 20 37
M  V30 41 1 21 38
M  V30 42 1 22 39
M  V30 43 1 23 40
M  V30 44 1 25 41
M  V30 END BOND
M  V30 END CTAB
M  END
>  <Dataset>  (450) 
ChEMBL_Kinases

>  <Ligand_Instance>  (450) 
nan

>  <PDB_ID>  (450) 
nan

>  <Standardized_SMILES>  (450) 
COc1cc(-c2ccc3c(c2)NC(=O)/C3=C\c2ccc[nH]2)ccc1O

>  <Name>  (450) 
nan

>  <Pocket>  (450) 
nan

>  <ATP_Site>  (450) 
nan

>  <Peripheral>  (450) 
nan

>  <Num_H_Atoms_ProtBoundConf>  (450) 
nan

>  <Num_Resolved_Atoms>  (450) 
nan

>  <Num_Not_Resolved_Atoms>  (450) 
nan

$$$$
CHEMBL202926
     RDKit          3D

  0  0  0  0  0  0  0  0  0  0999 V3000
M  V30 BEGIN CTAB
M  V30 COUNTS 51 55 0 0 0
M  V30 BEGIN ATOM
M  V30 1 C 5.570485 -4.217401 7.358523 0
M  V30 2 C 4.985408 -3.594810 6.136236 0
M  V30 3 C 3.889962 -2.739698 6.242284 0
M  V30 4 C 3.353609 -2.166914 5.105902 0
M  V30 5 C 3.894325 -2.434948 3.865642 0
M  V30 6 C 3.399120 -1.877443 2.595562 0
M  V30 7 O 3.926571 -2.149665 1.467438 0
M  V30 8 N 2.288892 -0.988213 2.530540 0
M  V30 9 C 1.823245 -0.457187 1.283882 0
M  V30 10 N 2.317656 0.696291 0.809418 0
M  V30 11 C 1.922118 1.247135 -0.353976 0
M  V30 12 C 0.961003 0.606632 -1.108802 0
M  V30 13 N 0.483038 1.122780 -2.358059 0
M  V30 14 C -0.514798 0.442697 -3.126006 0
M  V30 15 N -0.205098 -0.476428 -4.064249 0
M  V30 16 C -1.115542 -1.131248 -4.800586 0
M  V30 17 N -2.388853 -0.815351 -4.548160 0
M  V30 18 C -2.783904 0.080160 -3.639625 0
M  V30 19 C -1.827442 0.743283 -2.891886 0
M  V30 20 N -2.068300 1.723511 -1.885929 0
M  V30 21 C -3.287240 2.411929 -1.479509 0
M  V30 22 C -4.488153 1.572005 -1.551450 0
M  V30 23 C -5.342028 1.836535 -0.474850 0
M  V30 24 C -6.542046 1.175955 -0.312849 0
M  V30 25 C -6.950290 0.216816 -1.218855 0
M  V30 26 C -6.136653 -0.076101 -2.298183 0
M  V30 27 C -4.949693 0.599479 -2.429387 0
M  V30 28 O -4.180376 0.243252 -3.553659 0
M  V30 29 C 0.435617 -0.590506 -0.634564 0
M  V30 30 N 0.886680 -1.071861 0.538420 0
M  V30 31 C 4.979173 -3.283779 3.775976 0
M  V30 32 C 5.532108 -3.867850 4.897981 0
M  V30 33 H 6.617147 -4.512504 7.182302 0
M  V30 34 H 4.993362 -5.123367 7.671222 0
M  V30 35 H 5.463560 -3.489344 8.183299 0
M  V30 36 H 3.469376 -2.530636 7.202579 0
M  V30 37 H 2.509853 -1.503150 5.148047 0
M  V30 38 H 1.806083 -0.717954 3.400573 0
M  V30 39 H 2.327722 2.177262 -0.726293 0
M  V30 40 H 0.890092 2.013633 -2.687015 0
M  V30 41 H -0.816858 -1.860471 -5.541808 0
M  V30 42 H -1.182967 1.952021 -1.382328 0
M  V30 43 H -3.172602 2.795847 -0.452506 0
M  V30 44 H -3.475362 3.298994 -2.143738 0
M  V30 45 H -5.037580 2.586903 0.246717 0
M  V30 46 H -7.221462 1.359434 0.508434 0
M  V30 47 H -7.871097 -0.350409 -1.173518 0
M  V30 48 H -6.398200 -0.803598 -3.026522 0
M  V30 49 H -0.321984 -1.164526 -1.157152 0
M  V30 50 H 5.421546 -3.510473 2.818450 0
M  V30 51 H 6.378478 -4.523427 4.776697 0
M  V30 END ATOM
M  V30 BEGIN BOND
M  V30 1 1 1 2
M  V30 2 2 2 3
M  V30 3 1 3 4
M  V30 4 2 4 5
M  V30 5 1 5 6
M  V30 6 2 6 7
M  V30 7 1 6 8
M  V30 8 1 8 9
M  V30 9 2 9 10
M  V30 10 1 10 11
M  V30 11 2 11 12
M  V30 12 1 12 13
M  V30 13 1 13 14
M  V30 14 2 14 15
M  V30 15 1 15 16
M  V30 16 2 16 17
M  V30 17 1 17 18
M  V30 18 2 18 19
M  V30 19 1 19 20
M  V30 20 1 20 21
M  V30 21 1 21 22
M  V30 22 2 22 23
M  V30 23 1 23 24
M  V30 24 2 24 25
M  V30 25 1 25 26
M  V30 26 2 26 27
M  V30 27 1 27 28
M  V30 28 1 12 29
M  V30 29 2 29 30
M  V30 30 1 5 31
M  V30 31 2 31 32
M  V30 32 1 32 2
M  V30 33 1 30 9
M  V30 34 1 19 14
M  V30 35 1 27 22
M  V30 36 1 28 18
M  V30 37 1 1 33
M  V30 38 1 1 34
M  V30 39 1 1 35
M  V30 40 1 3 36
M  V30 41 1 4 37
M  V30 42 1 8 38
M  V30 43 1 11 39
M  V30 44 1 13 40
M  V30 45 1 16 41
M  V30 46 1 20 42
M  V30 47 1 21 43
M  V30 48 1 21 44
M  V30 49 1 23 45
M  V30 50 1 24 46
M  V30 51 1 25 47
M  V30 52 1 26 48
M  V30 53 1 29 49
M  V30 54 1 31 50
M  V30 55 1 32 51
M  V30 END BOND
M  V30 END CTAB
M  END
>  <Dataset>  (451) 
ChEMBL_Kinases

>  <Ligand_Instance>  (451) 
nan

>  <PDB_ID>  (451) 
nan

>  <Standardized_SMILES>  (451) 
Cc1ccc(C(=O)Nc2ncc(Nc3ncnc4c3NCc3ccccc3O4)cn2)cc1

>  <Name>  (451) 
nan

>  <Pocket>  (451) 
nan

>  <ATP_Site>  (451) 
nan

>  <Peripheral>  (451) 
nan

>  <Num_H_Atoms_ProtBoundConf>  (451) 
nan

>  <Num_Resolved_Atoms>  (451) 
nan

>  <Num_Not_Resolved_Atoms>  (451) 
nan

$$$$
CHEMBL202893
     RDKit          3D

  0  0  0  0  0  0  0  0  0  0999 V3000
M  V30 BEGIN CTAB
M  V30 COUNTS 56 59 0 0 0
M  V30 BEGIN ATOM
M  V30 1 C -1.828470 -2.123327 1.253158 0
M  V30 2 N -0.675281 -2.703519 1.828427 0
M  V30 3 C -0.463781 -2.517199 3.219252 0
M  V30 4 C 0.557841 -2.535069 1.093333 0 CFG=2
M  V30 5 C 0.873150 -1.078728 0.925324 0
M  V30 6 O 2.096427 -0.860671 0.239894 0
M  V30 7 C 2.478590 0.477938 -0.017816 0
M  V30 8 C 3.634458 0.855873 -0.652802 0
M  V30 9 N 3.941898 2.140259 -0.872719 0
M  V30 10 C 3.133170 3.167469 -0.482638 0
M  V30 11 C 1.935553 2.841358 0.172483 0
M  V30 12 C 1.018321 3.928376 0.587442 0
M  V30 13 C -0.113437 3.776978 1.236917 0
M  V30 14 C -1.014140 4.853107 1.642844 0
M  V30 15 C -0.799651 6.189782 1.348338 0
M  V30 16 C -1.661923 7.180684 1.761741 0
M  V30 17 N -2.735583 6.832315 2.468344 0
M  V30 18 C -2.999048 5.572416 2.783016 0
M  V30 19 C -2.152623 4.533751 2.384439 0
M  V30 20 C 1.654258 1.513753 0.379708 0
M  V30 21 C 0.444994 -3.126627 -0.298623 0
M  V30 22 C 0.131986 -4.550522 -0.334626 0
M  V30 23 C 0.288648 -5.477677 0.646108 0
M  V30 24 N -0.129251 -6.667263 0.181378 0
M  V30 25 C -0.556473 -6.508012 -1.100075 0
M  V30 26 C -1.081699 -7.422102 -2.019679 0
M  V30 27 C -1.450078 -7.011280 -3.281997 0
M  V30 28 C -1.306613 -5.678841 -3.666751 0
M  V30 29 C -0.777415 -4.828014 -2.699674 0
M  V30 30 C -0.397852 -5.181437 -1.438524 0
M  V30 31 H -2.063132 -2.548721 0.263798 0
M  V30 32 H -1.773136 -1.000677 1.181761 0
M  V30 33 H -2.681845 -2.311573 1.965433 0
M  V30 34 H -0.785172 -1.522054 3.520199 0
M  V30 35 H 0.595613 -2.690143 3.528875 0
M  V30 36 H -1.055245 -3.320888 3.745149 0
M  V30 37 H 1.361506 -3.042868 1.630640 0
M  V30 38 H 0.882120 -0.546750 1.885718 0
M  V30 39 H 0.028454 -0.631986 0.336104 0
M  V30 40 H 4.304964 0.081037 -0.980352 0
M  V30 41 H 3.408665 4.200020 -0.673895 0
M  V30 42 H 1.308440 4.937785 0.333654 0
M  V30 43 H -0.388364 2.771464 1.481175 0
M  V30 44 H 0.069380 6.468212 0.775561 0
M  V30 45 H -1.534033 8.236913 1.556759 0
M  V30 46 H -3.858079 5.216105 3.361276 0
M  V30 47 H -2.352216 3.498186 2.633845 0
M  V30 48 H 0.752315 1.235727 0.878861 0
M  V30 49 H -0.341844 -2.508872 -0.822668 0
M  V30 50 H 1.381280 -2.913516 -0.848074 0
M  V30 51 H 0.672901 -5.300948 1.620633 0
M  V30 52 H -0.108332 -7.537424 0.751593 0
M  V30 53 H -1.179375 -8.437406 -1.692996 0
M  V30 54 H -1.854537 -7.690648 -4.007119 0
M  V30 55 H -1.573178 -5.274913 -4.642991 0
M  V30 56 H -0.639621 -3.765699 -2.946319 0
M  V30 END ATOM
M  V30 BEGIN BOND
M  V30 1 1 1 2
M  V30 2 1 2 3
M  V30 3 1 2 4
M  V30 4 1 4 5
M  V30 5 1 5 6
M  V30 6 1 6 7
M  V30 7 2 7 8
M  V30 8 1 8 9
M  V30 9 2 9 10
M  V30 10 1 10 11
M  V30 11 1 11 12
M  V30 12 2 12 13
M  V30 13 1 13 14
M  V30 14 2 14 15
M  V30 15 1 15 16
M  V30 16 2 16 17
M  V30 17 1 17 18
M  V30 18 2 18 19
M  V30 19 2 11 20
M  V30 20 1 4 21
M  V30 21 1 21 22
M  V30 22 2 22 23
M  V30 23 1 23 24
M  V30 24 1 24 25
M  V30 25 2 25 26
M  V30 26 1 26 27
M  V30 27 2 27 28
M  V30 28 1 28 29
M  V30 29 2 29 30
M  V30 30 1 20 7
M  V30 31 1 30 22
M  V30 32 1 19 14
M  V30 33 1 30 25
M  V30 34 1 1 31
M  V30 35 1 1 32
M  V30 36 1 1 33
M  V30 37 1 3 34
M  V30 38 1 3 35
M  V30 39 1 3 36
M  V30 40 1 4 37 CFG=1
M  V30 41 1 5 38
M  V30 42 1 5 39
M  V30 43 1 8 40
M  V30 44 1 10 41
M  V30 45 1 12 42
M  V30 46 1 13 43
M  V30 47 1 15 44
M  V30 48 1 16 45
M  V30 49 1 18 46
M  V30 50 1 19 47
M  V30 51 1 20 48
M  V30 52 1 21 49
M  V30 53 1 21 50
M  V30 54 1 23 51
M  V30 55 1 24 52
M  V30 56 1 26 53
M  V30 57 1 27 54
M  V30 58 1 28 55
M  V30 59 1 29 56
M  V30 END BOND
M  V30 END CTAB
M  END
>  <Dataset>  (452) 
ChEMBL_Kinases

>  <Ligand_Instance>  (452) 
nan

>  <PDB_ID>  (452) 
nan

>  <Standardized_SMILES>  (452) 
CN(C)[C@H](COc1cncc(/C=C/c2ccncc2)c1)Cc1c[nH]c2ccccc12

>  <Name>  (452) 
nan

>  <Pocket>  (452) 
nan

>  <ATP_Site>  (452) 
nan

>  <Peripheral>  (452) 
nan

>  <Num_H_Atoms_ProtBoundConf>  (452) 
nan

>  <Num_Resolved_Atoms>  (452) 
nan

>  <Num_Not_Resolved_Atoms>  (452) 
nan

$$$$
CHEMBL202891
     RDKit          3D

  0  0  0  0  0  0  0  0  0  0999 V3000
M  V30 BEGIN CTAB
M  V30 COUNTS 41 44 0 0 0
M  V30 BEGIN ATOM
M  V30 1 C 1.667013 -5.891615 4.665416 0
M  V30 2 O 2.055693 -5.104167 3.554942 0
M  V30 3 C 1.503753 -3.862435 3.293127 0
M  V30 4 C 0.539228 -3.207237 4.015893 0
M  V30 5 C 0.084485 -1.968112 3.631815 0
M  V30 6 C 0.577198 -1.335914 2.509178 0
M  V30 7 C 0.031389 -0.023658 2.183948 0
M  V30 8 C 0.418745 0.729178 1.102001 0
M  V30 9 C -0.105573 1.971870 0.803353 0
M  V30 10 C 0.380734 2.700820 -0.386735 0
M  V30 11 C 1.036703 3.926736 -0.366638 0
M  V30 12 N 1.319313 4.263233 -1.641840 0
M  V30 13 N 0.871496 3.310376 -2.431888 0
M  V30 14 C 0.293249 2.336910 -1.731590 0
M  V30 15 C -0.342004 1.090459 -2.146763 0
M  V30 16 C 0.542635 0.231049 -2.812321 0
M  V30 17 C 0.141146 -1.016224 -3.294791 0
M  V30 18 C -1.165304 -1.414555 -3.110879 0
M  V30 19 C -1.987687 -0.525225 -2.448847 0
M  V30 20 N -1.603634 0.674758 -1.984084 0
M  V30 21 C -1.079039 2.508858 1.628917 0
M  V30 22 C -1.451001 1.733051 2.709179 0
M  V30 23 N -0.919430 0.505611 2.986587 0
M  V30 24 C 1.533403 -1.951457 1.766183 0
M  V30 25 C 1.986489 -3.206514 2.164782 0
M  V30 26 H 0.571752 -5.736944 4.807032 0
M  V30 27 H 1.879822 -6.961361 4.471690 0
M  V30 28 H 2.154851 -5.587876 5.610840 0
M  V30 29 H 0.179361 -3.736682 4.888395 0
M  V30 30 H -0.671177 -1.572530 4.289778 0
M  V30 31 H 1.165178 0.349718 0.443829 0
M  V30 32 H 1.242640 4.450188 0.568638 0
M  V30 33 H 1.816702 5.161797 -1.835853 0
M  V30 34 H 1.598338 0.466389 -3.002285 0
M  V30 35 H 0.834221 -1.666454 -3.805068 0
M  V30 36 H -1.500005 -2.375179 -3.475125 0
M  V30 37 H -3.019117 -0.814622 -2.291744 0
M  V30 38 H -1.506434 3.466884 1.428300 0
M  V30 39 H -2.206932 2.119799 3.373798 0
M  V30 40 H 1.937510 -1.484486 0.885915 0
M  V30 41 H 2.747125 -3.650487 1.537996 0
M  V30 END ATOM
M  V30 BEGIN BOND
M  V30 1 1 1 2
M  V30 2 1 2 3
M  V30 3 2 3 4
M  V30 4 1 4 5
M  V30 5 2 5 6
M  V30 6 1 6 7
M  V30 7 2 7 8
M  V30 8 1 8 9
M  V30 9 1 9 10
M  V30 10 2 10 11
M  V30 11 1 11 12
M  V30 12 1 12 13
M  V30 13 2 13 14
M  V30 14 1 14 15
M  V30 15 2 15 16
M  V30 16 1 16 17
M  V30 17 2 17 18
M  V30 18 1 18 19
M  V30 19 2 19 20
M  V30 20 2 9 21
M  V30 21 1 21 22
M  V30 22 2 22 23
M  V30 23 1 6 24
M  V30 24 2 24 25
M  V30 25 1 25 3
M  V30 26 1 23 7
M  V30 27 1 14 10
M  V30 28 1 20 15
M  V30 29 1 1 26
M  V30 30 1 1 27
M  V30 31 1 1 28
M  V30 32 1 4 29
M  V30 33 1 5 30
M  V30 34 1 8 31
M  V30 35 1 11 32
M  V30 36 1 12 33
M  V30 37 1 16 34
M  V30 38 1 17 35
M  V30 39 1 18 36
M  V30 40 1 19 37
M  V30 41 1 21 38
M  V30 42 1 22 39
M  V30 43 1 24 40
M  V30 44 1 25 41
M  V30 END BOND
M  V30 END CTAB
M  END
>  <Dataset>  (453) 
ChEMBL_Kinases

>  <Ligand_Instance>  (453) 
nan

>  <PDB_ID>  (453) 
nan

>  <Standardized_SMILES>  (453) 
COc1ccc(-c2cc(-c3c[nH]nc3-c3ccccn3)ccn2)cc1

>  <Name>  (453) 
GW679410X

>  <Pocket>  (453) 
nan

>  <ATP_Site>  (453) 
nan

>  <Peripheral>  (453) 
nan

>  <Num_H_Atoms_ProtBoundConf>  (453) 
nan

>  <Num_Resolved_Atoms>  (453) 
nan

>  <Num_Not_Resolved_Atoms>  (453) 
nan

$$$$
CHEMBL202851
     RDKit          3D

  0  0  0  0  0  0  0  0  0  0999 V3000
M  V30 BEGIN CTAB
M  V30 COUNTS 45 47 0 0 0
M  V30 BEGIN ATOM
M  V30 1 C 6.268273 -2.292600 4.052774 0
M  V30 2 S 5.606847 -2.719430 2.469985 0
M  V30 3 O 4.694253 -3.902472 2.580704 0
M  V30 4 O 6.770970 -3.080587 1.574689 0
M  V30 5 C 4.763637 -1.315051 1.781467 0
M  V30 6 C 4.188559 -1.657602 0.425425 0
M  V30 7 C 3.478811 -0.524183 -0.187417 0
M  V30 8 C 4.175445 0.350242 -0.991141 0
M  V30 9 C 3.500067 1.399272 -1.553414 0
M  V30 10 C 2.131475 1.586882 -1.322300 0
M  V30 11 C 1.403800 0.724747 -0.519420 0
M  V30 12 C -0.007373 0.988625 -0.320791 0
M  V30 13 O -0.277226 2.230380 -0.412964 0
M  V30 14 C -1.110195 0.086241 -0.045266 0
M  V30 15 C -1.197023 -1.280544 0.068724 0
M  V30 16 N -2.486183 -1.589058 0.326416 0
M  V30 17 N -3.199926 -0.472004 0.376380 0
M  V30 18 C -4.598773 -0.470266 0.631719 0
M  V30 19 C -5.566738 0.104338 -0.166482 0
M  V30 20 C -6.906034 0.056304 0.162537 0
M  V30 21 C -7.245752 -0.600586 1.342142 0
M  V30 22 F -8.553747 -0.688446 1.733044 0
M  V30 23 C -6.332545 -1.197830 2.188951 0
M  V30 24 C -5.005604 -1.115955 1.804677 0
M  V30 25 C -2.376517 0.592756 0.149414 0
M  V30 26 N -2.935015 1.922552 0.155640 0
M  V30 27 C 2.134038 -0.310345 0.018932 0
M  V30 28 H 6.958032 -3.072644 4.428181 0
M  V30 29 H 6.853828 -1.350023 3.914164 0
M  V30 30 H 5.423546 -2.097406 4.750946 0
M  V30 31 H 5.494705 -0.496396 1.625152 0
M  V30 32 H 4.001065 -0.967892 2.504313 0
M  V30 33 H 3.531428 -2.547309 0.574756 0
M  V30 34 H 5.030687 -2.008472 -0.198109 0
M  V30 35 H 5.224823 0.241674 -1.193500 0
M  V30 36 H 4.046788 2.095900 -2.191330 0
M  V30 37 H 1.691432 2.445557 -1.812427 0
M  V30 38 H -0.376296 -1.967538 -0.036144 0
M  V30 39 H -5.221376 0.598617 -1.070635 0
M  V30 40 H -7.660790 0.495619 -0.445016 0
M  V30 41 H -6.639354 -1.698512 3.096859 0
M  V30 42 H -4.269348 -1.580373 2.458359 0
M  V30 43 H -2.760976 2.466637 1.033847 0
M  V30 44 H -3.464386 2.250750 -0.694443 0
M  V30 45 H 1.647502 -1.006571 0.650749 0
M  V30 END ATOM
M  V30 BEGIN BOND
M  V30 1 1 1 2
M  V30 2 2 2 3
M  V30 3 2 2 4
M  V30 4 1 2 5
M  V30 5 1 5 6
M  V30 6 1 6 7
M  V30 7 2 7 8
M  V30 8 1 8 9
M  V30 9 2 9 10
M  V30 10 1 10 11
M  V30 11 1 11 12
M  V30 12 2 12 13
M  V30 13 1 12 14
M  V30 14 1 14 15
M  V30 15 2 15 16
M  V30 16 1 16 17
M  V30 17 1 17 18
M  V30 18 2 18 19
M  V30 19 1 19 20
M  V30 20 2 20 21
M  V30 21 1 21 22
M  V30 22 1 21 23
M  V30 23 2 23 24
M  V30 24 1 17 25
M  V30 25 1 25 26
M  V30 26 2 11 27
M  V30 27 1 27 7
M  V30 28 2 25 14
M  V30 29 1 24 18
M  V30 30 1 1 28
M  V30 31 1 1 29
M  V30 32 1 1 30
M  V30 33 1 5 31
M  V30 34 1 5 32
M  V30 35 1 6 33
M  V30 36 1 6 34
M  V30 37 1 8 35
M  V30 38 1 9 36
M  V30 39 1 10 37
M  V30 40 1 15 38
M  V30 41 1 19 39
M  V30 42 1 20 40
M  V30 43 1 23 41
M  V30 44 1 24 42
M  V30 45 1 26 43
M  V30 46 1 26 44
M  V30 47 1 27 45
M  V30 END BOND
M  V30 END CTAB
M  END
>  <Dataset>  (454) 
ChEMBL_Kinases

>  <Ligand_Instance>  (454) 
nan

>  <PDB_ID>  (454) 
nan

>  <Standardized_SMILES>  (454) 
CS(=O)(=O)CCc1cccc(C(=O)c2cnn(-c3ccc(F)cc3)c2N)c1

>  <Name>  (454) 
nan

>  <Pocket>  (454) 
nan

>  <ATP_Site>  (454) 
nan

>  <Peripheral>  (454) 
nan

>  <Num_H_Atoms_ProtBoundConf>  (454) 
nan

>  <Num_Resolved_Atoms>  (454) 
nan

>  <Num_Not_Resolved_Atoms>  (454) 
nan

$$$$
CHEMBL202838
     RDKit          3D

  0  0  0  0  0  0  0  0  0  0999 V3000
M  V30 BEGIN CTAB
M  V30 COUNTS 51 53 0 0 0
M  V30 BEGIN ATOM
M  V30 1 C -3.056424 -0.273651 3.039163 0
M  V30 2 O -2.540513 -1.582719 2.845630 0
M  V30 3 C -1.163277 -1.744141 2.763224 0
M  V30 4 C -0.271278 -0.684215 2.861554 0
M  V30 5 C 1.073546 -0.989838 2.761805 0
M  V30 6 N 1.940261 0.156648 2.872533 0
M  V30 7 C 2.151185 0.684890 1.589779 0
M  V30 8 O 1.815400 0.461706 0.385596 0
M  V30 9 C 3.007988 1.893480 1.303968 0
M  V30 10 C 2.968229 2.119595 -0.165434 0
M  V30 11 C 3.769052 3.289943 -0.666339 0
M  V30 12 C 3.376051 4.552327 -0.163563 0
M  V30 13 C 3.998345 5.779864 -0.499699 0
M  V30 14 C 3.490219 6.899766 0.076839 0
M  V30 15 C 2.357781 6.840864 0.998116 0
M  V30 16 S 2.023241 4.999624 1.010683 0
M  V30 17 C 1.537434 -2.286170 2.572250 0
M  V30 18 Cl 3.266251 -2.539890 2.462146 0
M  V30 19 C 0.611826 -3.316632 2.479256 0
M  V30 20 C -0.713498 -3.035991 2.574882 0
M  V30 21 N -1.639576 -4.138854 2.472468 0
M  V30 22 C -2.077045 -4.425068 1.150457 0
M  V30 23 O -1.591124 -3.671791 0.256996 0
M  V30 24 N -2.994180 -5.461520 0.746526 0
M  V30 25 C -3.292734 -5.562984 -0.664882 0
M  V30 26 C -2.551790 -6.355428 -1.534222 0
M  V30 27 N -2.910507 -6.385591 -2.846001 0
M  V30 28 C -3.962613 -5.661689 -3.291965 0
M  V30 29 C -4.325940 -5.708784 -4.689874 0
M  V30 30 N -4.621733 -5.758811 -5.824525 0
M  V30 31 C -4.709398 -4.864345 -2.421412 0
M  V30 32 N -4.353035 -4.832646 -1.110985 0
M  V30 33 H -4.160989 -0.293037 3.070023 0
M  V30 34 H -2.720019 0.137351 4.011704 0
M  V30 35 H -2.722285 0.357646 2.187150 0
M  V30 36 H -0.648537 0.318167 3.008957 0
M  V30 37 H 2.436767 0.681997 3.626605 0
M  V30 38 H 2.596430 2.722616 1.884888 0
M  V30 39 H 4.022131 1.585819 1.671346 0
M  V30 40 H 3.301261 1.187994 -0.669515 0
M  V30 41 H 1.916139 2.270789 -0.500522 0
M  V30 42 H 4.857678 3.046742 -0.485647 0
M  V30 43 H 3.681392 3.272643 -1.777362 0
M  V30 44 H 4.831128 5.823212 -1.177173 0
M  V30 45 H 3.904399 7.884214 -0.123044 0
M  V30 46 H 1.948474 7.788162 1.468960 0
M  V30 47 H 1.004228 -4.319367 2.331137 0
M  V30 48 H -2.050317 -4.774155 3.219900 0
M  V30 49 H -3.304370 -5.992680 1.589740 0
M  V30 50 H -1.718233 -6.913570 -1.116443 0
M  V30 51 H -5.539719 -4.309197 -2.841016 0
M  V30 END ATOM
M  V30 BEGIN BOND
M  V30 1 1 1 2
M  V30 2 1 2 3
M  V30 3 2 3 4
M  V30 4 1 4 5
M  V30 5 1 5 6
M  V30 6 1 6 7
M  V30 7 2 7 8
M  V30 8 1 7 9
M  V30 9 1 9 10
M  V30 10 1 10 11
M  V30 11 1 11 12
M  V30 12 2 12 13
M  V30 13 1 13 14
M  V30 14 2 14 15
M  V30 15 1 15 16
M  V30 16 2 5 17
M  V30 17 1 17 18
M  V30 18 1 17 19
M  V30 19 2 19 20
M  V30 20 1 20 21
M  V30 21 1 21 22
M  V30 22 2 22 23
M  V30 23 1 22 24
M  V30 24 1 24 25
M  V30 25 2 25 26
M  V30 26 1 26 27
M  V30 27 2 27 28
M  V30 28 1 28 29
M  V30 29 3 29 30
M  V30 30 1 28 31
M  V30 31 2 31 32
M  V30 32 1 20 3
M  V30 33 1 32 25
M  V30 34 1 16 12
M  V30 35 1 1 33
M  V30 36 1 1 34
M  V30 37 1 1 35
M  V30 38 1 4 36
M  V30 39 1 6 37
M  V30 40 1 9 38
M  V30 41 1 9 39
M  V30 42 1 10 40
M  V30 43 1 10 41
M  V30 44 1 11 42
M  V30 45 1 11 43
M  V30 46 1 13 44
M  V30 47 1 14 45
M  V30 48 1 15 46
M  V30 49 1 19 47
M  V30 50 1 21 48
M  V30 51 1 24 49
M  V30 52 1 26 50
M  V30 53 1 31 51
M  V30 END BOND
M  V30 END CTAB
M  END
>  <Dataset>  (455) 
ChEMBL_Kinases

>  <Ligand_Instance>  (455) 
nan

>  <PDB_ID>  (455) 
nan

>  <Standardized_SMILES>  (455) 
COc1cc(NC(=O)CCCc2cccs2)c(Cl)cc1NC(=O)Nc1cnc(C#N)cn1

>  <Name>  (455) 
nan

>  <Pocket>  (455) 
nan

>  <ATP_Site>  (455) 
nan

>  <Peripheral>  (455) 
nan

>  <Num_H_Atoms_ProtBoundConf>  (455) 
nan

>  <Num_Resolved_Atoms>  (455) 
nan

>  <Num_Not_Resolved_Atoms>  (455) 
nan

$$$$
CHEMBL202837
     RDKit          3D

  0  0  0  0  0  0  0  0  0  0999 V3000
M  V30 BEGIN CTAB
M  V30 COUNTS 45 47 0 0 0
M  V30 BEGIN ATOM
M  V30 1 C -1.812599 1.230134 -0.565405 0
M  V30 2 O -1.929258 0.302081 0.496802 0
M  V30 3 C -0.842150 0.118513 1.340162 0
M  V30 4 C 0.331823 0.816370 1.161025 0
M  V30 5 C 1.451078 0.695839 1.946048 0
M  V30 6 N 2.673635 1.389345 1.799897 0
M  V30 7 C 3.042489 2.347255 0.845252 0
M  V30 8 O 2.231885 2.695685 -0.040854 0
M  V30 9 C 4.353943 3.021370 0.773380 0
M  V30 10 C 4.409968 3.979325 -0.359697 0
M  V30 11 C 4.061388 5.292388 -0.220155 0
M  V30 12 C 4.130841 6.146061 -1.308023 0
M  V30 13 S 4.715747 5.127368 -2.668342 0
M  V30 14 C 4.833731 3.553114 -1.641813 0
M  V30 15 C 1.327495 -0.205445 2.971748 0
M  V30 16 Cl 2.690673 -0.466867 4.067269 0
M  V30 17 C 0.172960 -0.923995 3.187140 0
M  V30 18 C -0.928612 -0.779054 2.382514 0
M  V30 19 N -2.096816 -1.545669 2.648519 0
M  V30 20 C -2.136293 -2.796723 1.987127 0
M  V30 21 O -1.150476 -3.072575 1.257747 0
M  V30 22 N -3.182341 -3.777936 2.063992 0
M  V30 23 C -3.065873 -4.998911 1.327524 0
M  V30 24 C -3.587591 -4.989664 0.037021 0
M  V30 25 N -3.517068 -6.100840 -0.721510 0
M  V30 26 C -2.937614 -7.235696 -0.233484 0
M  V30 27 C -2.873760 -8.408847 -1.060732 0
M  V30 28 N -2.832231 -9.366269 -1.741383 0
M  V30 29 C -2.413053 -7.247037 1.062342 0
M  V30 30 N -2.491448 -6.116812 1.817286 0
M  V30 31 H -2.826605 1.323505 -1.024937 0
M  V30 32 H -1.054844 0.930155 -1.309090 0
M  V30 33 H -1.513968 2.225558 -0.128714 0
M  V30 34 H 0.341574 1.502781 0.331730 0
M  V30 35 H 3.453278 1.206376 2.467104 0
M  V30 36 H 5.188297 2.299985 0.653938 0
M  V30 37 H 4.552228 3.571901 1.741906 0
M  V30 38 H 3.721839 5.758680 0.688353 0
M  V30 39 H 3.929498 7.152350 -1.462833 0
M  V30 40 H 5.136254 2.570503 -1.912366 0
M  V30 41 H 0.147056 -1.612075 4.009232 0
M  V30 42 H -2.931154 -1.329336 3.256486 0
M  V30 43 H -3.940793 -3.427222 2.700935 0
M  V30 44 H -4.055369 -4.087370 -0.368590 0
M  V30 45 H -1.948930 -8.141302 1.465594 0
M  V30 END ATOM
M  V30 BEGIN BOND
M  V30 1 1 1 2
M  V30 2 1 2 3
M  V30 3 2 3 4
M  V30 4 1 4 5
M  V30 5 1 5 6
M  V30 6 1 6 7
M  V30 7 2 7 8
M  V30 8 1 7 9
M  V30 9 1 9 10
M  V30 10 1 10 11
M  V30 11 2 11 12
M  V30 12 1 12 13
M  V30 13 1 13 14
M  V30 14 2 5 15
M  V30 15 1 15 16
M  V30 16 1 15 17
M  V30 17 2 17 18
M  V30 18 1 18 19
M  V30 19 1 19 20
M  V30 20 2 20 21
M  V30 21 1 20 22
M  V30 22 1 22 23
M  V30 23 2 23 24
M  V30 24 1 24 25
M  V30 25 2 25 26
M  V30 26 1 26 27
M  V30 27 3 27 28
M  V30 28 1 26 29
M  V30 29 2 29 30
M  V30 30 1 18 3
M  V30 31 1 30 23
M  V30 32 2 14 10
M  V30 33 1 1 31
M  V30 34 1 1 32
M  V30 35 1 1 33
M  V30 36 1 4 34
M  V30 37 1 6 35
M  V30 38 1 9 36
M  V30 39 1 9 37
M  V30 40 1 11 38
M  V30 41 1 12 39
M  V30 42 1 14 40
M  V30 43 1 17 41
M  V30 44 1 19 42
M  V30 45 1 22 43
M  V30 46 1 24 44
M  V30 47 1 29 45
M  V30 END BOND
M  V30 END CTAB
M  END
>  <Dataset>  (456) 
ChEMBL_Kinases

>  <Ligand_Instance>  (456) 
nan

>  <PDB_ID>  (456) 
nan

>  <Standardized_SMILES>  (456) 
COc1cc(NC(=O)Cc2ccsc2)c(Cl)cc1NC(=O)Nc1cnc(C#N)cn1

>  <Name>  (456) 
nan

>  <Pocket>  (456) 
nan

>  <ATP_Site>  (456) 
nan

>  <Peripheral>  (456) 
nan

>  <Num_H_Atoms_ProtBoundConf>  (456) 
nan

>  <Num_Resolved_Atoms>  (456) 
nan

>  <Num_Not_Resolved_Atoms>  (456) 
nan

$$$$
CHEMBL202787
     RDKit          3D

  0  0  0  0  0  0  0  0  0  0999 V3000
M  V30 BEGIN CTAB
M  V30 COUNTS 55 58 0 0 0
M  V30 BEGIN ATOM
M  V30 1 C 2.643654 0.048313 9.173323 0
M  V30 2 N 3.188864 -0.967385 8.268328 0
M  V30 3 C 2.262686 -1.126205 7.177292 0
M  V30 4 C 2.314007 -0.655290 5.887901 0
M  V30 5 C 1.288752 -0.915672 5.014732 0
M  V30 6 C 1.392726 -0.407229 3.657869 0
M  V30 7 C 2.312874 0.274817 3.037255 0
M  V30 8 C 2.387642 0.771355 1.672818 0
M  V30 9 C 3.495362 1.443843 1.218621 0
M  V30 10 N 3.466003 1.855022 -0.056863 0
M  V30 11 C 2.388117 1.616021 -0.864824 0
M  V30 12 C 1.218402 0.929979 -0.460262 0
M  V30 13 O 0.426899 0.912763 -1.520499 0
M  V30 14 C -0.801118 0.401074 -1.810919 0
M  V30 15 C -0.963640 -1.099174 -1.823418 0 CFG=1
M  V30 16 N -0.623728 -1.648164 -0.533954 0
M  V30 17 C -2.416768 -1.476419 -2.056880 0
M  V30 18 C -2.973599 -0.980888 -3.322347 0
M  V30 19 C -3.849474 0.091608 -3.530861 0
M  V30 20 N -4.069786 0.135650 -4.849117 0
M  V30 21 C -3.398504 -0.837721 -5.529113 0
M  V30 22 C -3.396306 -1.090109 -6.902201 0
M  V30 23 C -2.588740 -2.170875 -7.214912 0
M  V30 24 C -1.851958 -2.949259 -6.358003 0
M  V30 25 C -1.948956 -2.586084 -5.034034 0
M  V30 26 C -2.711880 -1.533239 -4.558490 0
M  V30 27 C 1.317195 0.535104 0.875408 0
M  V30 28 C 0.202672 -1.647229 5.420193 0
M  V30 29 C 0.197913 -2.099247 6.726046 0
M  V30 30 N 1.198393 -1.855555 7.606423 0
M  V30 31 H 2.634989 1.052144 8.735302 0
M  V30 32 H 1.622729 -0.280528 9.504907 0
M  V30 33 H 3.288862 0.024141 10.075050 0
M  V30 34 H 3.917210 -1.637911 8.015291 0
M  V30 35 H 3.209422 -0.097759 5.687680 0
M  V30 36 H 0.533799 -0.631386 3.013588 0
M  V30 37 H 3.162020 0.492091 3.709965 0
M  V30 38 H 4.277857 1.577552 1.921516 0
M  V30 39 H 2.661898 2.064802 -1.827009 0
M  V30 40 H -1.142718 0.815669 -2.808310 0
M  V30 41 H -1.583336 0.851818 -1.109094 0
M  V30 42 H -0.310863 -1.484467 -2.631157 0
M  V30 43 H -1.421692 -1.532154 0.158401 0
M  V30 44 H -0.463953 -2.698771 -0.552073 0
M  V30 45 H -2.553761 -2.587174 -1.973590 0
M  V30 46 H -3.001080 -1.064041 -1.211581 0
M  V30 47 H -4.247126 0.734597 -2.755298 0
M  V30 48 H -4.704385 0.869511 -5.232346 0
M  V30 49 H -3.962042 -0.503615 -7.603753 0
M  V30 50 H -2.529795 -2.440622 -8.285136 0
M  V30 51 H -1.254314 -3.768981 -6.718846 0
M  V30 52 H -1.394493 -3.152651 -4.276850 0
M  V30 53 H 0.411395 0.050322 1.149152 0
M  V30 54 H -0.632315 -1.874211 4.768268 0
M  V30 55 H -0.680929 -2.689116 7.043658 0
M  V30 END ATOM
M  V30 BEGIN BOND
M  V30 1 1 1 2
M  V30 2 1 2 3
M  V30 3 2 3 4
M  V30 4 1 4 5
M  V30 5 1 5 6
M  V30 6 2 6 7
M  V30 7 1 7 8
M  V30 8 2 8 9
M  V30 9 1 9 10
M  V30 10 2 10 11
M  V30 11 1 11 12
M  V30 12 1 12 13
M  V30 13 1 13 14
M  V30 14 1 14 15
M  V30 15 1 15 16
M  V30 16 1 15 17
M  V30 17 1 17 18
M  V30 18 2 18 19
M  V30 19 1 19 20
M  V30 20 1 20 21
M  V30 21 2 21 22
M  V30 22 1 22 23
M  V30 23 2 23 24
M  V30 24 1 24 25
M  V30 25 2 25 26
M  V30 26 2 12 27
M  V30 27 2 5 28
M  V30 28 1 28 29
M  V30 29 2 29 30
M  V30 30 1 30 3
M  V30 31 1 27 8
M  V30 32 1 26 18
M  V30 33 1 26 21
M  V30 34 1 1 31
M  V30 35 1 1 32
M  V30 36 1 1 33
M  V30 37 1 2 34
M  V30 38 1 4 35
M  V30 39 1 6 36
M  V30 40 1 7 37
M  V30 41 1 9 38
M  V30 42 1 11 39
M  V30 43 1 14 40
M  V30 44 1 14 41
M  V30 45 1 15 42 CFG=3
M  V30 46 1 16 43
M  V30 47 1 16 44
M  V30 48 1 17 45
M  V30 49 1 17 46
M  V30 50 1 19 47
M  V30 51 1 20 48
M  V30 52 1 22 49
M  V30 53 1 23 50
M  V30 54 1 24 51
M  V30 55 1 25 52
M  V30 56 1 27 53
M  V30 57 1 28 54
M  V30 58 1 29 55
M  V30 END BOND
M  V30 END CTAB
M  END
>  <Dataset>  (457) 
ChEMBL_Kinases

>  <Ligand_Instance>  (457) 
nan

>  <PDB_ID>  (457) 
nan

>  <Standardized_SMILES>  (457) 
CNc1cc(/C=C/c2cncc(OC[C@@H](N)Cc3c[nH]c4ccccc34)c2)ccn1

>  <Name>  (457) 
nan

>  <Pocket>  (457) 
nan

>  <ATP_Site>  (457) 
nan

>  <Peripheral>  (457) 
nan

>  <Num_H_Atoms_ProtBoundConf>  (457) 
nan

>  <Num_Resolved_Atoms>  (457) 
nan

>  <Num_Not_Resolved_Atoms>  (457) 
nan

$$$$
CHEMBL1957946
     RDKit          3D

  0  0  0  0  0  0  0  0  0  0999 V3000
M  V30 BEGIN CTAB
M  V30 COUNTS 57 60 0 0 0
M  V30 BEGIN ATOM
M  V30 1 C 2.910810 -5.442601 -2.332444 0
M  V30 2 S 4.019143 -5.537788 -0.930699 0
M  V30 3 O 3.173940 -5.636405 0.307908 0
M  V30 4 O 5.005691 -6.640656 -1.070645 0
M  V30 5 N 4.835357 -3.993751 -0.852561 0
M  V30 6 C 4.127635 -2.779100 -0.648135 0
M  V30 7 C 3.144282 -2.531424 0.290273 0
M  V30 8 C 2.570303 -1.252158 0.316280 0
M  V30 9 C 2.972447 -0.246314 -0.577073 0
M  V30 10 C 2.161051 0.949081 -0.294347 0
M  V30 11 C 2.687230 1.968082 0.621125 0
M  V30 12 N 1.620719 2.981679 0.784000 0
M  V30 13 C 0.561010 2.349294 1.491645 0
M  V30 14 O 0.742566 1.133330 1.867692 0
M  V30 15 C -0.783323 2.718826 1.944270 0
M  V30 16 C -1.120818 3.897828 2.563518 0
M  V30 17 C -2.447304 4.045367 2.896504 0
M  V30 18 C -3.427224 3.117872 2.657511 0
M  V30 19 O -4.748318 3.305513 3.010313 0
M  V30 20 C -3.123255 1.928931 2.039362 0
M  V30 21 N -3.741773 0.802261 1.644893 0
M  V30 22 C -2.880373 -0.057295 1.077635 0
M  V30 23 C -3.023934 -1.408018 0.501268 0
M  V30 24 C -3.650484 -2.405467 1.468744 0
M  V30 25 C -4.172621 -3.518943 0.580101 0
M  V30 26 C -4.481067 -2.869185 -0.749413 0
M  V30 27 C -3.966395 -1.445175 -0.677469 0
M  V30 28 N -1.687701 0.548016 1.116631 0
M  V30 29 C -1.778802 1.756046 1.691237 0
M  V30 30 C 3.955267 -0.532686 -1.496134 0
M  V30 31 C 4.526962 -1.791077 -1.528525 0
M  V30 32 H 3.458784 -5.562791 -3.301078 0
M  V30 33 H 2.419758 -4.450764 -2.380894 0
M  V30 34 H 2.136691 -6.231535 -2.310787 0
M  V30 35 H 5.858464 -4.002390 -0.960702 0
M  V30 36 H 2.896424 -3.360593 0.933087 0
M  V30 37 H 1.826364 -1.235942 1.103794 0
M  V30 38 H 2.151979 1.488209 -1.333057 0
M  V30 39 H 1.091272 0.742358 -0.169779 0
M  V30 40 H 3.533418 2.500156 0.123632 0
M  V30 41 H 2.977847 1.684983 1.625910 0
M  V30 42 H 1.312432 3.968749 0.599182 0
M  V30 43 H -0.328793 4.606914 2.736382 0
M  V30 44 H -2.707599 4.984347 3.389029 0
M  V30 45 H -5.516240 2.820532 2.564500 0
M  V30 46 H -4.749957 0.613903 1.759700 0
M  V30 47 H -2.051442 -1.798738 0.133102 0
M  V30 48 H -4.509229 -1.944540 1.998473 0
M  V30 49 H -2.889452 -2.833307 2.142625 0
M  V30 50 H -5.099139 -3.958294 0.987467 0
M  V30 51 H -3.389083 -4.283467 0.405360 0
M  V30 52 H -3.990553 -3.408285 -1.589579 0
M  V30 53 H -5.568214 -2.841595 -0.959177 0
M  V30 54 H -4.771371 -0.708789 -0.486507 0
M  V30 55 H -3.439369 -1.179864 -1.639194 0
M  V30 56 H 4.148033 0.336570 -2.103865 0
M  V30 57 H 5.279969 -1.873664 -2.290000 0
M  V30 END ATOM
M  V30 BEGIN BOND
M  V30 1 1 1 2
M  V30 2 2 2 3
M  V30 3 2 2 4
M  V30 4 1 2 5
M  V30 5 1 5 6
M  V30 6 2 6 7
M  V30 7 1 7 8
M  V30 8 2 8 9
M  V30 9 1 9 10
M  V30 10 1 10 11
M  V30 11 1 11 12
M  V30 12 1 12 13
M  V30 13 2 13 14
M  V30 14 1 13 15
M  V30 15 2 15 16
M  V30 16 1 16 17
M  V30 17 2 17 18
M  V30 18 1 18 19
M  V30 19 1 18 20
M  V30 20 1 20 21
M  V30 21 1 21 22
M  V30 22 1 22 23
M  V30 23 1 23 24
M  V30 24 1 24 25
M  V30 25 1 25 26
M  V30 26 1 26 27
M  V30 27 2 22 28
M  V30 28 1 28 29
M  V30 29 1 9 30
M  V30 30 2 30 31
M  V30 31 1 31 6
M  V30 32 1 29 15
M  V30 33 2 29 20
M  V30 34 1 27 23
M  V30 35 1 1 32
M  V30 36 1 1 33
M  V30 37 1 1 34
M  V30 38 1 5 35
M  V30 39 1 7 36
M  V30 40 1 8 37
M  V30 41 1 10 38
M  V30 42 1 10 39
M  V30 43 1 11 40
M  V30 44 1 11 41
M  V30 45 1 12 42
M  V30 46 1 16 43
M  V30 47 1 17 44
M  V30 48 1 19 45
M  V30 49 1 21 46
M  V30 50 1 23 47
M  V30 51 1 24 48
M  V30 52 1 24 49
M  V30 53 1 25 50
M  V30 54 1 25 51
M  V30 55 1 26 52
M  V30 56 1 26 53
M  V30 57 1 27 54
M  V30 58 1 27 55
M  V30 59 1 30 56
M  V30 60 1 31 57
M  V30 END BOND
M  V30 END CTAB
M  END
>  <Dataset>  (458) 
ChEMBL_Kinases

>  <Ligand_Instance>  (458) 
nan

>  <PDB_ID>  (458) 
nan

>  <Standardized_SMILES>  (458) 
CS(=O)(=O)Nc1ccc(CCNC(=O)c2ccc(O)c3[nH]c(C4CCCC4)nc23)cc1

>  <Name>  (458) 
nan

>  <Pocket>  (458) 
nan

>  <ATP_Site>  (458) 
nan

>  <Peripheral>  (458) 
nan

>  <Num_H_Atoms_ProtBoundConf>  (458) 
nan

>  <Num_Resolved_Atoms>  (458) 
nan

>  <Num_Not_Resolved_Atoms>  (458) 
nan

$$$$
CHEMBL202737
     RDKit          3D

  0  0  0  0  0  0  0  0  0  0999 V3000
M  V30 BEGIN CTAB
M  V30 COUNTS 39 41 0 0 0
M  V30 BEGIN ATOM
M  V30 1 N 0.189176 -3.459020 0.336548 0
M  V30 2 C -0.355798 -2.428423 1.107590 0
M  V30 3 C -0.342233 -1.039300 1.098221 0
M  V30 4 C 0.420637 -0.324286 0.092357 0
M  V30 5 O 1.148617 -1.019572 -0.677478 0
M  V30 6 C 0.500650 1.095720 -0.196405 0
M  V30 7 C -0.588895 1.865847 0.103698 0
M  V30 8 C -0.538631 3.246654 -0.121084 0
M  V30 9 C 0.621385 3.821892 -0.649478 0
M  V30 10 C 1.716194 3.026933 -0.948818 0
M  V30 11 C 2.873432 3.684063 -1.478485 0
M  V30 12 C 3.860791 4.231139 -1.937617 0
M  V30 13 C 5.061958 4.881222 -2.496351 0
M  V30 14 O 5.763824 5.548456 -1.477264 0
M  V30 15 C 1.643419 1.658806 -0.717500 0
M  V30 16 C -1.103737 -0.603971 2.159637 0
M  V30 17 N -1.573031 -1.706856 2.803230 0
M  V30 18 N -1.119705 -2.795425 2.165593 0
M  V30 19 C -1.586628 -3.977834 2.801448 0
M  V30 20 C -2.682270 -4.528382 2.172068 0
M  V30 21 C -3.325140 -5.668624 2.596527 0
M  V30 22 C -2.819321 -6.297624 3.743413 0
M  V30 23 F -3.349692 -7.437335 4.285346 0
M  V30 24 C -1.714078 -5.759202 4.394497 0
M  V30 25 C -1.090292 -4.597247 3.929479 0
M  V30 26 H 0.075322 -3.594316 -0.696994 0
M  V30 27 H 0.786289 -4.243527 0.682396 0
M  V30 28 H -1.556791 1.624179 0.493281 0
M  V30 29 H -1.335314 3.975659 0.073609 0
M  V30 30 H 0.680083 4.897287 -0.833917 0
M  V30 31 H 5.735536 4.186697 -3.007620 0
M  V30 32 H 4.750359 5.679215 -3.209323 0
M  V30 33 H 5.486285 6.510565 -1.395636 0
M  V30 34 H 2.494910 1.050558 -0.952736 0
M  V30 35 H -1.290834 0.419170 2.441463 0
M  V30 36 H -3.145621 -4.122185 1.283865 0
M  V30 37 H -4.185376 -6.117063 2.118279 0
M  V30 38 H -1.285752 -6.214121 5.293102 0
M  V30 39 H -0.232763 -4.110551 4.367170 0
M  V30 END ATOM
M  V30 BEGIN BOND
M  V30 1 1 1 2
M  V30 2 2 2 3
M  V30 3 1 3 4
M  V30 4 2 4 5
M  V30 5 1 4 6
M  V30 6 2 6 7
M  V30 7 1 7 8
M  V30 8 2 8 9
M  V30 9 1 9 10
M  V30 10 1 10 11
M  V30 11 3 11 12
M  V30 12 1 12 13
M  V30 13 1 13 14
M  V30 14 2 10 15
M  V30 15 1 3 16
M  V30 16 2 16 17
M  V30 17 1 17 18
M  V30 18 1 18 19
M  V30 19 2 19 20
M  V30 20 1 20 21
M  V30 21 2 21 22
M  V30 22 1 22 23
M  V30 23 1 22 24
M  V30 24 2 24 25
M  V30 25 1 18 2
M  V30 26 1 25 19
M  V30 27 1 15 6
M  V30 28 1 1 26
M  V30 29 1 1 27
M  V30 30 1 7 28
M  V30 31 1 8 29
M  V30 32 1 9 30
M  V30 33 1 13 31
M  V30 34 1 13 32
M  V30 35 1 14 33
M  V30 36 1 15 34
M  V30 37 1 16 35
M  V30 38 1 20 36
M  V30 39 1 21 37
M  V30 40 1 24 38
M  V30 41 1 25 39
M  V30 END BOND
M  V30 END CTAB
M  END
>  <Dataset>  (459) 
ChEMBL_Kinases

>  <Ligand_Instance>  (459) 
nan

>  <PDB_ID>  (459) 
nan

>  <Standardized_SMILES>  (459) 
Nc1c(C(=O)c2cccc(C#CCO)c2)cnn1-c1ccc(F)cc1

>  <Name>  (459) 
nan

>  <Pocket>  (459) 
nan

>  <ATP_Site>  (459) 
nan

>  <Peripheral>  (459) 
nan

>  <Num_H_Atoms_ProtBoundConf>  (459) 
nan

>  <Num_Resolved_Atoms>  (459) 
nan

>  <Num_Not_Resolved_Atoms>  (459) 
nan

$$$$
CHEMBL202730
     RDKit          3D

  0  0  0  0  0  0  0  0  0  0999 V3000
M  V30 BEGIN CTAB
M  V30 COUNTS 55 59 0 0 0
M  V30 BEGIN ATOM
M  V30 1 C 2.273022 -2.409636 5.812699 0
M  V30 2 N 1.846608 -1.242059 5.063339 0
M  V30 3 C 0.418330 -1.218949 5.013526 0
M  V30 4 C 2.496043 -1.295916 3.773311 0
M  V30 5 C 2.130673 -0.124647 2.893280 0
M  V30 6 C 2.876758 -0.308821 1.584213 0
M  V30 7 N 2.582302 0.788582 0.659875 0
M  V30 8 C 3.250889 1.951599 0.545204 0
M  V30 9 N 2.645997 2.659418 -0.415714 0
M  V30 10 C 1.604232 1.969071 -0.915714 0
M  V30 11 C 0.660934 2.220974 -1.898947 0
M  V30 12 C -0.316015 1.295473 -2.199583 0
M  V30 13 C -0.359479 0.102285 -1.516193 0
M  V30 14 C -1.359782 -0.954449 -1.757693 0
M  V30 15 C -2.746227 -0.962180 -1.608081 0
M  V30 16 C -3.377158 0.262282 -1.130839 0
M  V30 17 C -3.014672 0.684779 0.144068 0
M  V30 18 C -3.565531 1.831187 0.666936 0
M  V30 19 C -4.481047 2.613117 -0.009321 0
M  V30 20 C -4.803778 2.136079 -1.283262 0
M  V30 21 N -4.266905 1.020306 -1.790666 0
M  V30 22 N -3.203850 -2.182475 -1.964116 0
M  V30 23 N -2.169715 -2.943311 -2.330837 0
M  V30 24 C -1.031973 -2.232929 -2.219245 0
M  V30 25 C 0.103861 -3.114497 -2.637451 0
M  V30 26 C -0.467406 -4.500041 -2.453170 0
M  V30 27 C -1.926715 -4.291713 -2.806577 0
M  V30 28 C 0.569447 -0.200862 -0.514651 0
M  V30 29 C 1.546529 0.750387 -0.229363 0
M  V30 30 H 2.266106 -2.257893 6.911409 0
M  V30 31 H 1.634364 -3.273387 5.527212 0
M  V30 32 H 3.299197 -2.684990 5.465130 0
M  V30 33 H -0.019093 -1.733416 4.139753 0
M  V30 34 H 0.034180 -1.767835 5.908332 0
M  V30 35 H 0.049553 -0.169792 5.115702 0
M  V30 36 H 2.339282 -2.271259 3.282895 0
M  V30 37 H 3.590374 -1.219292 3.971830 0
M  V30 38 H 1.051352 -0.006655 2.748910 0
M  V30 39 H 2.493183 0.778358 3.425317 0
M  V30 40 H 3.948408 -0.353473 1.817980 0
M  V30 41 H 2.625345 -1.274745 1.103256 0
M  V30 42 H 4.108624 2.158885 1.174623 0
M  V30 43 H 0.688071 3.161625 -2.443783 0
M  V30 44 H -1.073649 1.468264 -2.971314 0
M  V30 45 H -2.296709 0.145869 0.776405 0
M  V30 46 H -3.272689 2.151075 1.667404 0
M  V30 47 H -4.911259 3.512063 0.404494 0
M  V30 48 H -5.520108 2.713024 -1.860760 0
M  V30 49 H 1.027627 -2.925975 -2.073706 0
M  V30 50 H 0.277999 -2.888549 -3.710239 0
M  V30 51 H -0.324419 -4.823467 -1.402556 0
M  V30 52 H 0.018593 -5.225272 -3.143738 0
M  V30 53 H -1.977336 -4.285641 -3.913832 0
M  V30 54 H -2.584602 -5.038895 -2.326501 0
M  V30 55 H 0.557319 -1.132617 0.037998 0
M  V30 END ATOM
M  V30 BEGIN BOND
M  V30 1 1 1 2
M  V30 2 1 2 3
M  V30 3 1 2 4
M  V30 4 1 4 5
M  V30 5 1 5 6
M  V30 6 1 6 7
M  V30 7 1 7 8
M  V30 8 2 8 9
M  V30 9 1 9 10
M  V30 10 2 10 11
M  V30 11 1 11 12
M  V30 12 2 12 13
M  V30 13 1 13 14
M  V30 14 1 14 15
M  V30 15 1 15 16
M  V30 16 2 16 17
M  V30 17 1 17 18
M  V30 18 2 18 19
M  V30 19 1 19 20
M  V30 20 2 20 21
M  V30 21 2 15 22
M  V30 22 1 22 23
M  V30 23 1 23 24
M  V30 24 1 24 25
M  V30 25 1 25 26
M  V30 26 1 26 27
M  V30 27 1 13 28
M  V30 28 2 28 29
M  V30 29 1 29 7
M  V30 30 1 29 10
M  V30 31 2 24 14
M  V30 32 1 21 16
M  V30 33 1 27 23
M  V30 34 1 1 30
M  V30 35 1 1 31
M  V30 36 1 1 32
M  V30 37 1 3 33
M  V30 38 1 3 34
M  V30 39 1 3 35
M  V30 40 1 4 36
M  V30 41 1 4 37
M  V30 42 1 5 38
M  V30 43 1 5 39
M  V30 44 1 6 40
M  V30 45 1 6 41
M  V30 46 1 8 42
M  V30 47 1 11 43
M  V30 48 1 12 44
M  V30 49 1 17 45
M  V30 50 1 18 46
M  V30 51 1 19 47
M  V30 52 1 20 48
M  V30 53 1 25 49
M  V30 54 1 25 50
M  V30 55 1 26 51
M  V30 56 1 26 52
M  V30 57 1 27 53
M  V30 58 1 27 54
M  V30 59 1 28 55
M  V30 END BOND
M  V30 END CTAB
M  END
>  <Dataset>  (460) 
ChEMBL_Kinases

>  <Ligand_Instance>  (460) 
nan

>  <PDB_ID>  (460) 
nan

>  <Standardized_SMILES>  (460) 
CN(C)CCCn1cnc2ccc(-c3c(-c4ccccn4)nn4c3CCC4)cc21

>  <Name>  (460) 
nan

>  <Pocket>  (460) 
nan

>  <ATP_Site>  (460) 
nan

>  <Peripheral>  (460) 
nan

>  <Num_H_Atoms_ProtBoundConf>  (460) 
nan

>  <Num_Resolved_Atoms>  (460) 
nan

>  <Num_Not_Resolved_Atoms>  (460) 
nan

$$$$
CHEMBL202635
     RDKit          3D

  0  0  0  0  0  0  0  0  0  0999 V3000
M  V30 BEGIN CTAB
M  V30 COUNTS 49 51 0 0 0
M  V30 BEGIN ATOM
M  V30 1 C 1.467817 -2.636721 2.235207 0
M  V30 2 O 0.258366 -2.016583 2.537697 0
M  V30 3 C -0.112016 -0.761493 2.092007 0
M  V30 4 C 0.682425 0.015051 1.290551 0
M  V30 5 C 0.266976 1.257968 0.877959 0
M  V30 6 C 1.197907 1.984118 -0.015750 0
M  V30 7 N 2.529207 1.431111 0.025128 0
M  V30 8 C 3.118793 1.755145 1.301123 0
M  V30 9 C 4.467342 1.103801 1.482130 0
M  V30 10 C 4.832101 0.335711 0.226360 0
M  V30 11 C 4.736093 1.268023 -0.964412 0
M  V30 12 C 3.353373 1.890476 -1.061166 0
M  V30 13 C -0.982808 1.748543 1.280086 0
M  V30 14 Cl -1.454444 3.365560 0.733133 0
M  V30 15 C -1.835456 1.022364 2.083831 0
M  V30 16 C -1.306290 -0.199182 2.422040 0
M  V30 17 N -2.210528 -1.028652 3.250228 0
M  V30 18 C -2.988971 -1.831197 2.417569 0
M  V30 19 O -2.565707 -1.511038 1.203063 0
M  V30 20 N -3.891895 -2.731157 1.835836 0
M  V30 21 C -4.419977 -3.291159 0.651631 0
M  V30 22 C -5.503850 -2.738867 0.029179 0
M  V30 23 N -5.979384 -3.305752 -1.128650 0
M  V30 24 C -5.280772 -4.403911 -1.542238 0
M  V30 25 C -5.762577 -5.033475 -2.766272 0
M  V30 26 N -6.150225 -5.516877 -3.751458 0
M  V30 27 C -4.177508 -4.999361 -0.947759 0
M  V30 28 N -3.793906 -4.365259 0.182577 0
M  V30 29 H 1.458229 -3.672305 2.636793 0
M  V30 30 H 2.368620 -2.167578 2.677321 0
M  V30 31 H 1.623416 -2.731931 1.135839 0
M  V30 32 H 1.644783 -0.450853 1.017025 0
M  V30 33 H 0.861468 2.039622 -1.076715 0
M  V30 34 H 1.208350 3.072941 0.315833 0
M  V30 35 H 3.216064 2.883241 1.293049 0
M  V30 36 H 2.410299 1.516495 2.105303 0
M  V30 37 H 5.227003 1.920043 1.615798 0
M  V30 38 H 4.472711 0.440021 2.357672 0
M  V30 39 H 5.885245 0.020211 0.306031 0
M  V30 40 H 4.132101 -0.501410 0.113590 0
M  V30 41 H 5.507285 2.047964 -0.888361 0
M  V30 42 H 4.933272 0.677653 -1.899878 0
M  V30 43 H 3.456101 3.004867 -0.947243 0
M  V30 44 H 2.845274 1.643558 -2.021635 0
M  V30 45 H -2.799307 1.377697 2.401398 0
M  V30 46 H -2.682810 -1.403165 4.041501 0
M  V30 47 H -4.159718 -2.925655 2.805382 0
M  V30 48 H -5.886883 -1.851518 0.552673 0
M  V30 49 H -3.622686 -5.854533 -1.275409 0
M  V30 END ATOM
M  V30 BEGIN BOND
M  V30 1 1 1 2
M  V30 2 1 2 3
M  V30 3 2 3 4
M  V30 4 1 4 5
M  V30 5 1 5 6
M  V30 6 1 6 7
M  V30 7 1 7 8
M  V30 8 1 8 9
M  V30 9 1 9 10
M  V30 10 1 10 11
M  V30 11 1 11 12
M  V30 12 2 5 13
M  V30 13 1 13 14
M  V30 14 1 13 15
M  V30 15 2 15 16
M  V30 16 1 16 17
M  V30 17 1 17 18
M  V30 18 2 18 19
M  V30 19 1 18 20
M  V30 20 1 20 21
M  V30 21 2 21 22
M  V30 22 1 22 23
M  V30 23 2 23 24
M  V30 24 1 24 25
M  V30 25 3 25 26
M  V30 26 1 24 27
M  V30 27 2 27 28
M  V30 28 1 16 3
M  V30 29 1 28 21
M  V30 30 1 12 7
M  V30 31 1 1 29
M  V30 32 1 1 30
M  V30 33 1 1 31
M  V30 34 1 4 32
M  V30 35 1 6 33
M  V30 36 1 6 34
M  V30 37 1 8 35
M  V30 38 1 8 36
M  V30 39 1 9 37
M  V30 40 1 9 38
M  V30 41 1 10 39
M  V30 42 1 10 40
M  V30 43 1 11 41
M  V30 44 1 11 42
M  V30 45 1 12 43
M  V30 46 1 12 44
M  V30 47 1 15 45
M  V30 48 1 17 46
M  V30 49 1 20 47
M  V30 50 1 22 48
M  V30 51 1 27 49
M  V30 END BOND
M  V30 END CTAB
M  END
>  <Dataset>  (461) 
ChEMBL_Kinases

>  <Ligand_Instance>  (461) 
nan

>  <PDB_ID>  (461) 
nan

>  <Standardized_SMILES>  (461) 
COc1cc(CN2CCCCC2)c(Cl)cc1NC(=O)Nc1cnc(C#N)cn1

>  <Name>  (461) 
nan

>  <Pocket>  (461) 
nan

>  <ATP_Site>  (461) 
nan

>  <Peripheral>  (461) 
nan

>  <Num_H_Atoms_ProtBoundConf>  (461) 
nan

>  <Num_Resolved_Atoms>  (461) 
nan

>  <Num_Not_Resolved_Atoms>  (461) 
nan

$$$$
CHEMBL202625
     RDKit          3D

  0  0  0  0  0  0  0  0  0  0999 V3000
M  V30 BEGIN CTAB
M  V30 COUNTS 65 70 0 0 0
M  V30 BEGIN ATOM
M  V30 1 C 5.103550 -0.621437 2.696496 0
M  V30 2 C 3.979556 0.356189 2.704508 0
M  V30 3 C 3.295620 0.678125 3.881815 0
M  V30 4 C 2.260047 1.589801 3.850948 0
M  V30 5 C 1.935261 2.161527 2.619437 0
M  V30 6 C 2.635777 1.820343 1.462646 0
M  V30 7 C 2.113019 2.546368 0.318723 0
M  V30 8 N 2.823548 3.429759 -0.429342 0
M  V30 9 N 2.092028 3.924039 -1.386484 0
M  V30 10 C 0.856116 3.390199 -1.319044 0
M  V30 11 C 0.836995 2.514456 -0.250541 0
M  V30 12 C -0.192268 1.652039 0.317778 0
M  V30 13 C 0.003078 0.286352 0.281177 0
M  V30 14 C -0.924690 -0.589975 0.799629 0
M  V30 15 C -2.091568 -0.149335 1.379105 0
M  V30 16 C -2.289105 1.207175 1.417583 0
M  V30 17 C -1.367342 2.091775 0.901986 0
M  V30 18 N -3.483147 1.347956 2.030428 0
M  V30 19 C -3.945852 0.100102 2.329007 0
M  V30 20 N -3.066052 -0.863620 1.917657 0
M  V30 21 C -3.334610 -2.262866 2.105052 0
M  V30 22 C -4.130017 -2.887645 0.985821 0
M  V30 23 C -3.470853 -2.843555 -0.354648 0
M  V30 24 O -2.278259 -3.514248 -0.431467 0
M  V30 25 C -2.359304 -4.856408 -0.177876 0
M  V30 26 C -1.920487 -5.720161 -1.349933 0
M  V30 27 C -0.499309 -5.448169 -1.755981 0
M  V30 28 C 0.348959 -5.705143 -0.513901 0
M  V30 29 C -0.221633 -4.927585 0.662828 0
M  V30 30 O -1.551334 -5.173077 0.901218 0
M  V30 31 C -0.071792 3.885852 -2.371365 0
M  V30 32 C 0.743303 5.001319 -2.995213 0
M  V30 33 C 2.148123 4.850575 -2.500448 0
M  V30 34 N 3.635372 0.930629 1.534050 0
M  V30 35 H 5.005000 -1.344477 3.526656 0
M  V30 36 H 5.087016 -1.186261 1.742648 0
M  V30 37 H 6.079264 -0.083780 2.752650 0
M  V30 38 H 3.587456 0.201181 4.831263 0
M  V30 39 H 1.744570 1.824931 4.770955 0
M  V30 40 H 1.105698 2.866200 2.703611 0
M  V30 41 H 0.907991 -0.096602 -0.166392 0
M  V30 42 H -0.707983 -1.629387 0.741590 0
M  V30 43 H -1.534469 3.164749 0.937921 0
M  V30 44 H -4.899015 -0.051499 2.830992 0
M  V30 45 H -3.952954 -2.383180 3.019258 0
M  V30 46 H -2.403367 -2.841968 2.296599 0
M  V30 47 H -4.338829 -3.942930 1.323177 0
M  V30 48 H -5.089699 -2.318367 0.899192 0
M  V30 49 H -3.356381 -1.762979 -0.621902 0
M  V30 50 H -4.220964 -3.226658 -1.085315 0
M  V30 51 H -3.393743 -5.199780 0.061865 0
M  V30 52 H -1.942548 -6.775405 -0.964386 0
M  V30 53 H -2.635113 -5.689118 -2.193435 0
M  V30 54 H -0.211209 -6.218382 -2.488565 0
M  V30 55 H -0.341071 -4.436300 -2.159756 0
M  V30 56 H 0.459122 -6.774017 -0.332508 0
M  V30 57 H 1.346373 -5.254908 -0.738578 0
M  V30 58 H 0.037334 -3.869268 0.464810 0
M  V30 59 H 0.346222 -5.284464 1.562085 0
M  V30 60 H -0.228476 3.108204 -3.167635 0
M  V30 61 H -1.048396 4.194088 -1.996857 0
M  V30 62 H 0.720999 4.934655 -4.117807 0
M  V30 63 H 0.266159 5.946955 -2.668471 0
M  V30 64 H 2.470387 5.871046 -2.164747 0
M  V30 65 H 2.846834 4.448558 -3.255778 0
M  V30 END ATOM
M  V30 BEGIN BOND
M  V30 1 1 1 2
M  V30 2 2 2 3
M  V30 3 1 3 4
M  V30 4 2 4 5
M  V30 5 1 5 6
M  V30 6 1 6 7
M  V30 7 2 7 8
M  V30 8 1 8 9
M  V30 9 1 9 10
M  V30 10 2 10 11
M  V30 11 1 11 12
M  V30 12 2 12 13
M  V30 13 1 13 14
M  V30 14 2 14 15
M  V30 15 1 15 16
M  V30 16 2 16 17
M  V30 17 1 16 18
M  V30 18 2 18 19
M  V30 19 1 19 20
M  V30 20 1 20 21
M  V30 21 1 21 22
M  V30 22 1 22 23
M  V30 23 1 23 24
M  V30 24 1 24 25
M  V30 25 1 25 26
M  V30 26 1 26 27
M  V30 27 1 27 28
M  V30 28 1 28 29
M  V30 29 1 29 30
M  V30 30 1 10 31
M  V30 31 1 31 32
M  V30 32 1 32 33
M  V30 33 2 6 34
M  V30 34 1 34 2
M  V30 35 1 11 7
M  V30 36 1 17 12
M  V30 37 1 30 25
M  V30 38 1 33 9
M  V30 39 1 20 15
M  V30 40 1 1 35
M  V30 41 1 1 36
M  V30 42 1 1 37
M  V30 43 1 3 38
M  V30 44 1 4 39
M  V30 45 1 5 40
M  V30 46 1 13 41
M  V30 47 1 14 42
M  V30 48 1 17 43
M  V30 49 1 19 44
M  V30 50 1 21 45
M  V30 51 1 21 46
M  V30 52 1 22 47
M  V30 53 1 22 48
M  V30 54 1 23 49
M  V30 55 1 23 50
M  V30 56 1 25 51
M  V30 57 1 26 52
M  V30 58 1 26 53
M  V30 59 1 27 54
M  V30 60 1 27 55
M  V30 61 1 28 56
M  V30 62 1 28 57
M  V30 63 1 29 58
M  V30 64 1 29 59
M  V30 65 1 31 60
M  V30 66 1 31 61
M  V30 67 1 32 62
M  V30 68 1 32 63
M  V30 69 1 33 64
M  V30 70 1 33 65
M  V30 END BOND
M  V30 END CTAB
M  END
>  <Dataset>  (462) 
ChEMBL_Kinases

>  <Ligand_Instance>  (462) 
nan

>  <PDB_ID>  (462) 
nan

>  <Standardized_SMILES>  (462) 
Cc1cccc(-c2nn3c(c2-c2ccc4c(c2)ncn4CCCOC2CCCCO2)CCC3)n1

>  <Name>  (462) 
nan

>  <Pocket>  (462) 
nan

>  <ATP_Site>  (462) 
nan

>  <Peripheral>  (462) 
nan

>  <Num_H_Atoms_ProtBoundConf>  (462) 
nan

>  <Num_Resolved_Atoms>  (462) 
nan

>  <Num_Not_Resolved_Atoms>  (462) 
nan

$$$$
CHEMBL2024693
     RDKit          3D

  0  0  0  0  0  0  0  0  0  0999 V3000
M  V30 BEGIN CTAB
M  V30 COUNTS 43 47 0 0 0
M  V30 BEGIN ATOM
M  V30 1 C -1.182550 -5.152295 1.699409 0
M  V30 2 C -0.983373 -4.113510 0.654884 0
M  V30 3 C -1.882676 -3.953891 -0.399767 0
M  V30 4 C -1.667871 -2.967423 -1.367005 0
M  V30 5 C -0.541606 -2.143894 -1.263951 0
M  V30 6 C 0.319344 -2.340154 -0.202581 0
M  V30 7 N 1.434702 -1.456976 -0.180982 0
M  V30 8 N 2.600038 -1.855948 -0.709599 0
M  V30 9 C 3.500809 -0.845072 -0.568050 0
M  V30 10 C 2.839211 0.204895 0.075457 0
M  V30 11 C 1.545196 -0.215760 0.302278 0
M  V30 12 C 0.472489 0.531066 0.947128 0
M  V30 13 C 0.419861 1.845329 0.470462 0
M  V30 14 C -0.525550 2.740359 0.944576 0
M  V30 15 C -1.424639 2.308195 1.906035 0
M  V30 16 N -2.370577 3.135619 2.407497 0
M  V30 17 C -3.231353 2.674605 3.346781 0
M  V30 18 N -3.176603 1.393023 3.808583 0
M  V30 19 C -2.242760 0.531468 3.331325 0
M  V30 20 O -2.180075 -0.652060 3.747156 0
M  V30 21 C -1.369667 1.011086 2.373820 0
M  V30 22 C -0.430162 0.116651 1.904657 0
M  V30 23 C 3.786356 1.336316 0.252862 0
M  V30 24 C 5.125791 0.592999 0.274480 0
M  V30 25 C 4.894119 -0.409158 -0.819382 0
M  V30 26 N 0.089829 -3.294620 0.712433 0
M  V30 27 H -1.745808 -6.032792 1.336408 0
M  V30 28 H -0.173419 -5.474934 2.057921 0
M  V30 29 H -1.661186 -4.657996 2.562731 0
M  V30 30 H -2.750501 -4.595149 -0.471204 0
M  V30 31 H -2.391821 -2.884588 -2.161684 0
M  V30 32 H -0.411563 -1.403590 -2.019777 0
M  V30 33 H 1.073121 2.288675 -0.279568 0
M  V30 34 H -0.607057 3.764836 0.608556 0
M  V30 35 H -3.962268 3.402660 3.698955 0
M  V30 36 H -3.866582 1.110781 4.526763 0
M  V30 37 H -0.292437 -0.915886 2.194511 0
M  V30 38 H 3.705619 1.945671 -0.680075 0
M  V30 39 H 3.629112 1.919947 1.160375 0
M  V30 40 H 5.975331 1.257706 0.127796 0
M  V30 41 H 5.128449 0.044708 1.234975 0
M  V30 42 H 5.609241 -1.238298 -0.837406 0
M  V30 43 H 4.898450 0.068016 -1.818994 0
M  V30 END ATOM
M  V30 BEGIN BOND
M  V30 1 1 1 2
M  V30 2 2 2 3
M  V30 3 1 3 4
M  V30 4 2 4 5
M  V30 5 1 5 6
M  V30 6 1 6 7
M  V30 7 1 7 8
M  V30 8 2 8 9
M  V30 9 1 9 10
M  V30 10 2 10 11
M  V30 11 1 11 12
M  V30 12 2 12 13
M  V30 13 1 13 14
M  V30 14 2 14 15
M  V30 15 1 15 16
M  V30 16 2 16 17
M  V30 17 1 17 18
M  V30 18 1 18 19
M  V30 19 2 19 20
M  V30 20 1 19 21
M  V30 21 2 21 22
M  V30 22 1 10 23
M  V30 23 1 23 24
M  V30 24 1 24 25
M  V30 25 2 6 26
M  V30 26 1 26 2
M  V30 27 1 11 7
M  V30 28 1 22 12
M  V30 29 1 25 9
M  V30 30 1 21 15
M  V30 31 1 1 27
M  V30 32 1 1 28
M  V30 33 1 1 29
M  V30 34 1 3 30
M  V30 35 1 4 31
M  V30 36 1 5 32
M  V30 37 1 13 33
M  V30 38 1 14 34
M  V30 39 1 17 35
M  V30 40 1 18 36
M  V30 41 1 22 37
M  V30 42 1 23 38
M  V30 43 1 23 39
M  V30 44 1 24 40
M  V30 45 1 24 41
M  V30 46 1 25 42
M  V30 47 1 25 43
M  V30 END BOND
M  V30 END CTAB
M  END
>  <Dataset>  (463) 
ChEMBL_Kinases

>  <Ligand_Instance>  (463) 
nan

>  <PDB_ID>  (463) 
nan

>  <Standardized_SMILES>  (463) 
Cc1cccc(-n2nc3c(c2-c2ccc4nc[nH]c(=O)c4c2)CCC3)n1

>  <Name>  (463) 
nan

>  <Pocket>  (463) 
nan

>  <ATP_Site>  (463) 
nan

>  <Peripheral>  (463) 
nan

>  <Num_H_Atoms_ProtBoundConf>  (463) 
nan

>  <Num_Resolved_Atoms>  (463) 
nan

>  <Num_Not_Resolved_Atoms>  (463) 
nan

$$$$
CHEMBL2024692
     RDKit          3D

  0  0  0  0  0  0  0  0  0  0999 V3000
M  V30 BEGIN CTAB
M  V30 COUNTS 42 45 0 0 0
M  V30 BEGIN ATOM
M  V30 1 C 0.159595 -5.283742 1.741847 0
M  V30 2 C 1.519583 -4.957940 1.173604 0
M  V30 3 N 1.379301 -3.888262 0.205866 0
M  V30 4 C 1.147675 -4.114247 -1.107617 0
M  V30 5 N 1.010088 -3.165482 -2.042427 0
M  V30 6 C 1.104044 -1.864503 -1.682255 0
M  V30 7 C 0.980744 -0.800163 -2.550543 0
M  V30 8 C 1.082000 0.494153 -2.146997 0
M  V30 9 C 1.321022 0.771520 -0.797869 0
M  V30 10 C 1.419652 2.171502 -0.424640 0
M  V30 11 C 2.111454 3.183655 -1.061500 0
M  V30 12 C 1.885925 4.309172 -0.316025 0
M  V30 13 N 1.083712 3.992955 0.739346 0
M  V30 14 N 0.814260 2.690795 0.651883 0
M  V30 15 C -0.002563 2.038641 1.604457 0
M  V30 16 C 0.399429 2.170584 2.927768 0
M  V30 17 C -0.310578 1.580810 3.972847 0
M  V30 18 C -1.448629 0.847086 3.641669 0
M  V30 19 C -1.828707 0.729343 2.324064 0
M  V30 20 C -3.046627 -0.059104 2.000231 0
M  V30 21 N -1.118431 1.312660 1.341911 0
M  V30 22 C 1.442938 -0.276288 0.060014 0
M  V30 23 C 1.343229 -1.598593 -0.330548 0
M  V30 24 C 1.484758 -2.595992 0.634095 0
M  V30 25 O 1.699162 -2.294520 1.836746 0
M  V30 26 H -0.595371 -4.527233 1.426716 0
M  V30 27 H -0.187795 -6.278574 1.410933 0
M  V30 28 H 0.143549 -5.283061 2.859147 0
M  V30 29 H 2.134776 -4.571704 2.035853 0
M  V30 30 H 2.013451 -5.846971 0.771409 0
M  V30 31 H 1.069177 -5.151058 -1.415666 0
M  V30 32 H 0.795739 -1.145799 -3.576054 0
M  V30 33 H 0.966407 1.238880 -2.924868 0
M  V30 34 H 2.708263 3.095451 -1.966176 0
M  V30 35 H 2.296739 5.276495 -0.558852 0
M  V30 36 H 1.289582 2.740547 3.224127 0
M  V30 37 H 0.012037 1.690636 4.997378 0
M  V30 38 H -1.995094 0.391285 4.463853 0
M  V30 39 H -3.694544 -0.160836 2.896714 0
M  V30 40 H -3.651949 0.401266 1.217995 0
M  V30 41 H -2.703116 -1.075141 1.668603 0
M  V30 42 H 1.630002 0.019233 1.104676 0
M  V30 END ATOM
M  V30 BEGIN BOND
M  V30 1 1 1 2
M  V30 2 1 2 3
M  V30 3 1 3 4
M  V30 4 2 4 5
M  V30 5 1 5 6
M  V30 6 2 6 7
M  V30 7 1 7 8
M  V30 8 2 8 9
M  V30 9 1 9 10
M  V30 10 2 10 11
M  V30 11 1 11 12
M  V30 12 2 12 13
M  V30 13 1 13 14
M  V30 14 1 14 15
M  V30 15 2 15 16
M  V30 16 1 16 17
M  V30 17 2 17 18
M  V30 18 1 18 19
M  V30 19 1 19 20
M  V30 20 2 19 21
M  V30 21 1 9 22
M  V30 22 2 22 23
M  V30 23 1 23 24
M  V30 24 2 24 25
M  V30 25 1 24 3
M  V30 26 1 23 6
M  V30 27 1 14 10
M  V30 28 1 21 15
M  V30 29 1 1 26
M  V30 30 1 1 27
M  V30 31 1 1 28
M  V30 32 1 2 29
M  V30 33 1 2 30
M  V30 34 1 4 31
M  V30 35 1 7 32
M  V30 36 1 8 33
M  V30 37 1 11 34
M  V30 38 1 12 35
M  V30 39 1 16 36
M  V30 40 1 17 37
M  V30 41 1 18 38
M  V30 42 1 20 39
M  V30 43 1 20 40
M  V30 44 1 20 41
M  V30 45 1 22 42
M  V30 END BOND
M  V30 END CTAB
M  END
>  <Dataset>  (464) 
ChEMBL_Kinases

>  <Ligand_Instance>  (464) 
nan

>  <PDB_ID>  (464) 
nan

>  <Standardized_SMILES>  (464) 
CCn1cnc2ccc(-c3ccnn3-c3cccc(C)n3)cc2c1=O

>  <Name>  (464) 
nan

>  <Pocket>  (464) 
nan

>  <ATP_Site>  (464) 
nan

>  <Peripheral>  (464) 
nan

>  <Num_H_Atoms_ProtBoundConf>  (464) 
nan

>  <Num_Resolved_Atoms>  (464) 
nan

>  <Num_Not_Resolved_Atoms>  (464) 
nan

$$$$
CHEMBL2024691
     RDKit          3D

  0  0  0  0  0  0  0  0  0  0999 V3000
M  V30 BEGIN CTAB
M  V30 COUNTS 42 45 0 0 0
M  V30 BEGIN ATOM
M  V30 1 C 1.548984 -3.534753 4.649940 0
M  V30 2 C 0.716324 -2.774229 3.607082 0
M  V30 3 C 1.650043 -1.855235 2.901730 0
M  V30 4 C 3.005599 -1.654092 3.060267 0
M  V30 5 N 3.336117 -0.707720 2.162944 0
M  V30 6 N 2.252368 -0.334582 1.479322 0
M  V30 7 C 2.496831 0.668427 0.499189 0
M  V30 8 C 2.873421 1.963239 0.758716 0
M  V30 9 C 3.090345 2.872646 -0.254347 0
M  V30 10 C 2.932935 2.502952 -1.582309 0
M  V30 11 C 2.552694 1.185613 -1.774439 0
M  V30 12 C 2.376748 0.764185 -3.209455 0
M  V30 13 N 2.336401 0.284003 -0.801039 0
M  V30 14 C 1.162842 -1.030469 1.909143 0
M  V30 15 C -0.130136 -0.773516 1.288383 0
M  V30 16 C -0.518467 0.557690 1.083200 0
M  V30 17 C -1.723620 0.899783 0.501526 0
M  V30 18 C -2.589323 -0.068503 0.101346 0
M  V30 19 N -3.783790 0.203565 -0.474477 0
M  V30 20 C -4.613837 -0.784426 -0.857564 0
M  V30 21 N -4.305133 -2.097087 -0.690741 0
M  V30 22 C -3.121034 -2.361440 -0.120024 0
M  V30 23 O -2.836713 -3.592211 0.033923 0
M  V30 24 C -2.233156 -1.387855 0.290934 0
M  V30 25 C -1.042340 -1.718798 0.865603 0
M  V30 26 H 0.965947 -4.405457 5.012466 0
M  V30 27 H 2.424859 -3.950771 4.090657 0
M  V30 28 H 1.866895 -2.873280 5.465865 0
M  V30 29 H -0.091146 -2.267800 4.138040 0
M  V30 30 H 0.353438 -3.603102 2.930353 0
M  V30 31 H 3.595077 -2.190622 3.779973 0
M  V30 32 H 2.981362 2.195439 1.817213 0
M  V30 33 H 3.386923 3.886767 -0.007659 0
M  V30 34 H 3.090428 3.176040 -2.408214 0
M  V30 35 H 2.082404 1.586359 -3.863431 0
M  V30 36 H 1.636374 -0.078602 -3.214572 0
M  V30 37 H 3.391899 0.402806 -3.532857 0
M  V30 38 H 0.089647 1.409381 1.361914 0
M  V30 39 H -2.025407 1.918749 0.342394 0
M  V30 40 H -5.591387 -0.617189 -1.327953 0
M  V30 41 H -4.949609 -2.873650 -0.988036 0
M  V30 42 H -0.776913 -2.734801 1.006707 0
M  V30 END ATOM
M  V30 BEGIN BOND
M  V30 1 1 1 2
M  V30 2 1 2 3
M  V30 3 1 3 4
M  V30 4 2 4 5
M  V30 5 1 5 6
M  V30 6 1 6 7
M  V30 7 2 7 8
M  V30 8 1 8 9
M  V30 9 2 9 10
M  V30 10 1 10 11
M  V30 11 1 11 12
M  V30 12 2 11 13
M  V30 13 1 6 14
M  V30 14 1 14 15
M  V30 15 2 15 16
M  V30 16 1 16 17
M  V30 17 2 17 18
M  V30 18 1 18 19
M  V30 19 2 19 20
M  V30 20 1 20 21
M  V30 21 1 21 22
M  V30 22 2 22 23
M  V30 23 1 22 24
M  V30 24 2 24 25
M  V30 25 2 14 3
M  V30 26 1 25 15
M  V30 27 1 13 7
M  V30 28 1 24 18
M  V30 29 1 1 26
M  V30 30 1 1 27
M  V30 31 1 1 28
M  V30 32 1 2 29
M  V30 33 1 2 30
M  V30 34 1 4 31
M  V30 35 1 8 32
M  V30 36 1 9 33
M  V30 37 1 10 34
M  V30 38 1 12 35
M  V30 39 1 12 36
M  V30 40 1 12 37
M  V30 41 1 16 38
M  V30 42 1 17 39
M  V30 43 1 20 40
M  V30 44 1 21 41
M  V30 45 1 25 42
M  V30 END BOND
M  V30 END CTAB
M  END
>  <Dataset>  (465) 
ChEMBL_Kinases

>  <Ligand_Instance>  (465) 
nan

>  <PDB_ID>  (465) 
nan

>  <Standardized_SMILES>  (465) 
CCc1cnn(-c2cccc(C)n2)c1-c1ccc2nc[nH]c(=O)c2c1

>  <Name>  (465) 
nan

>  <Pocket>  (465) 
nan

>  <ATP_Site>  (465) 
nan

>  <Peripheral>  (465) 
nan

>  <Num_H_Atoms_ProtBoundConf>  (465) 
nan

>  <Num_Resolved_Atoms>  (465) 
nan

>  <Num_Not_Resolved_Atoms>  (465) 
nan

$$$$
CHEMBL2024690
     RDKit          3D

  0  0  0  0  0  0  0  0  0  0999 V3000
M  V30 BEGIN CTAB
M  V30 COUNTS 36 39 0 0 0
M  V30 BEGIN ATOM
M  V30 1 C 0.111013 -5.057469 0.889376 0
M  V30 2 C 0.821180 -3.767046 0.769244 0
M  V30 3 C 1.599633 -3.259422 1.771257 0
M  V30 4 C 2.283410 -2.055432 1.703689 0
M  V30 5 C 2.155167 -1.323540 0.519129 0
M  V30 6 C 1.375609 -1.840488 -0.473544 0
M  V30 7 N 1.206370 -1.133311 -1.713424 0
M  V30 8 N 1.484415 -1.506703 -2.931570 0
M  V30 9 C 1.151210 -0.505172 -3.759276 0
M  V30 10 C 0.640629 0.540529 -3.008776 0
M  V30 11 C 0.687675 0.108495 -1.692037 0
M  V30 12 C 0.232289 0.930022 -0.563785 0
M  V30 13 C 0.581243 2.274464 -0.468533 0
M  V30 14 C 0.129594 3.014007 0.613889 0
M  V30 15 C -0.654503 2.412238 1.576162 0
M  V30 16 N -1.143296 3.054679 2.670819 0
M  V30 17 C -1.904614 2.418823 3.580058 0
M  V30 18 N -2.247670 1.118852 3.496987 0
M  V30 19 C -1.775650 0.438569 2.410778 0
M  V30 20 O -2.080229 -0.776554 2.307391 0
M  V30 21 C -0.993897 1.078884 1.470999 0
M  V30 22 C -0.557387 0.306734 0.396954 0
M  V30 23 N 0.737828 -3.017404 -0.343122 0
M  V30 24 H 0.832120 -5.821645 1.246733 0
M  V30 25 H -0.693522 -4.992576 1.649170 0
M  V30 26 H -0.292245 -5.381065 -0.078095 0
M  V30 27 H 1.710624 -3.810028 2.692932 0
M  V30 28 H 2.897274 -1.667420 2.509209 0
M  V30 29 H 2.646435 -0.386527 0.380579 0
M  V30 30 H 1.317600 -0.646657 -4.826680 0
M  V30 31 H 0.306226 1.450755 -3.447661 0
M  V30 32 H 1.198269 2.733417 -1.232877 0
M  V30 33 H 0.369280 4.061132 0.739461 0
M  V30 34 H -2.271625 2.972821 4.436804 0
M  V30 35 H -2.840393 0.650785 4.217997 0
M  V30 36 H -0.806396 -0.743618 0.284750 0
M  V30 END ATOM
M  V30 BEGIN BOND
M  V30 1 1 1 2
M  V30 2 2 2 3
M  V30 3 1 3 4
M  V30 4 2 4 5
M  V30 5 1 5 6
M  V30 6 1 6 7
M  V30 7 1 7 8
M  V30 8 2 8 9
M  V30 9 1 9 10
M  V30 10 2 10 11
M  V30 11 1 11 12
M  V30 12 2 12 13
M  V30 13 1 13 14
M  V30 14 2 14 15
M  V30 15 1 15 16
M  V30 16 2 16 17
M  V30 17 1 17 18
M  V30 18 1 18 19
M  V30 19 2 19 20
M  V30 20 1 19 21
M  V30 21 2 21 22
M  V30 22 2 6 23
M  V30 23 1 23 2
M  V30 24 1 11 7
M  V30 25 1 22 12
M  V30 26 1 21 15
M  V30 27 1 1 24
M  V30 28 1 1 25
M  V30 29 1 1 26
M  V30 30 1 3 27
M  V30 31 1 4 28
M  V30 32 1 5 29
M  V30 33 1 9 30
M  V30 34 1 10 31
M  V30 35 1 13 32
M  V30 36 1 14 33
M  V30 37 1 17 34
M  V30 38 1 18 35
M  V30 39 1 22 36
M  V30 END BOND
M  V30 END CTAB
M  END
>  <Dataset>  (466) 
ChEMBL_Kinases

>  <Ligand_Instance>  (466) 
nan

>  <PDB_ID>  (466) 
nan

>  <Standardized_SMILES>  (466) 
Cc1cccc(-n2nccc2-c2ccc3nc[nH]c(=O)c3c2)n1

>  <Name>  (466) 
nan

>  <Pocket>  (466) 
nan

>  <ATP_Site>  (466) 
nan

>  <Peripheral>  (466) 
nan

>  <Num_H_Atoms_ProtBoundConf>  (466) 
nan

>  <Num_Resolved_Atoms>  (466) 
nan

>  <Num_Not_Resolved_Atoms>  (466) 
nan

$$$$
CHEMBL2024689
     RDKit          3D

  0  0  0  0  0  0  0  0  0  0999 V3000
M  V30 BEGIN CTAB
M  V30 COUNTS 45 48 0 0 0
M  V30 BEGIN ATOM
M  V30 1 C 1.424732 -5.840142 2.416587 0
M  V30 2 C 1.112180 -5.715608 0.919914 0
M  V30 3 C 0.802325 -4.254433 0.712335 0
M  V30 4 C 1.683833 -3.226644 0.389359 0
M  V30 5 C 0.881256 -2.084943 0.317378 0
M  V30 6 C 1.468663 -0.791704 -0.005036 0
M  V30 7 C 2.387800 -0.663271 -1.046011 0
M  V30 8 C 2.965704 0.544253 -1.381562 0
M  V30 9 C 2.624960 1.675118 -0.662056 0
M  V30 10 N 3.166520 2.884270 -0.954542 0
M  V30 11 C 2.822317 3.991613 -0.237636 0
M  V30 12 N 1.934295 3.839148 0.760064 0
M  V30 13 C 1.545522 5.016072 1.548904 0
M  V30 14 C 1.353952 2.662760 1.107284 0
M  V30 15 O 0.528804 2.585175 2.052488 0
M  V30 16 C 1.715056 1.536660 0.365259 0
M  V30 17 C 1.117324 0.335448 0.725836 0
M  V30 18 N -0.375456 -2.404045 0.575879 0
M  V30 19 C -1.483768 -1.510606 0.596850 0
M  V30 20 C -1.614232 -0.676840 -0.518678 0
M  V30 21 C -2.695948 0.197654 -0.502037 0
M  V30 22 C -3.573017 0.224300 0.558573 0
M  V30 23 C -3.406362 -0.623265 1.649825 0
M  V30 24 C -4.382788 -0.552176 2.767025 0
M  V30 25 N -2.359969 -1.469410 1.634046 0
M  V30 26 N -0.429211 -3.705156 0.813780 0
M  V30 27 H 1.711538 -6.854390 2.692142 0
M  V30 28 H 2.244571 -5.139822 2.697981 0
M  V30 29 H 0.522415 -5.508831 2.967055 0
M  V30 30 H 1.946260 -6.039063 0.293207 0
M  V30 31 H 0.181968 -6.279976 0.743951 0
M  V30 32 H 2.746402 -3.361493 0.242087 0
M  V30 33 H 2.690901 -1.533720 -1.647675 0
M  V30 34 H 3.680362 0.657158 -2.187265 0
M  V30 35 H 3.242779 4.979116 -0.450917 0
M  V30 36 H 1.809587 4.849764 2.614027 0
M  V30 37 H 2.062987 5.905368 1.179131 0
M  V30 38 H 0.453574 5.205734 1.487880 0
M  V30 39 H 0.412381 0.281309 1.536791 0
M  V30 40 H -0.908029 -0.719450 -1.340192 0
M  V30 41 H -2.828736 0.854525 -1.343222 0
M  V30 42 H -4.398207 0.924978 0.519761 0
M  V30 43 H -4.802411 0.483515 2.779469 0
M  V30 44 H -5.219645 -1.263718 2.578087 0
M  V30 45 H -3.934355 -0.788237 3.754022 0
M  V30 END ATOM
M  V30 BEGIN BOND
M  V30 1 1 1 2
M  V30 2 1 2 3
M  V30 3 1 3 4
M  V30 4 2 4 5
M  V30 5 1 5 6
M  V30 6 2 6 7
M  V30 7 1 7 8
M  V30 8 2 8 9
M  V30 9 1 9 10
M  V30 10 2 10 11
M  V30 11 1 11 12
M  V30 12 1 12 13
M  V30 13 1 12 14
M  V30 14 2 14 15
M  V30 15 1 14 16
M  V30 16 2 16 17
M  V30 17 1 5 18
M  V30 18 1 18 19
M  V30 19 2 19 20
M  V30 20 1 20 21
M  V30 21 2 21 22
M  V30 22 1 22 23
M  V30 23 1 23 24
M  V30 24 2 23 25
M  V30 25 1 18 26
M  V30 26 2 26 3
M  V30 27 1 17 6
M  V30 28 1 25 19
M  V30 29 1 16 9
M  V30 30 1 1 27
M  V30 31 1 1 28
M  V30 32 1 1 29
M  V30 33 1 2 30
M  V30 34 1 2 31
M  V30 35 1 4 32
M  V30 36 1 7 33
M  V30 37 1 8 34
M  V30 38 1 11 35
M  V30 39 1 13 36
M  V30 40 1 13 37
M  V30 41 1 13 38
M  V30 42 1 17 39
M  V30 43 1 20 40
M  V30 44 1 21 41
M  V30 45 1 22 42
M  V30 46 1 24 43
M  V30 47 1 24 44
M  V30 48 1 24 45
M  V30 END BOND
M  V30 END CTAB
M  END
>  <Dataset>  (467) 
ChEMBL_Kinases

>  <Ligand_Instance>  (467) 
nan

>  <PDB_ID>  (467) 
nan

>  <Standardized_SMILES>  (467) 
CCc1cc(-c2ccc3ncn(C)c(=O)c3c2)n(-c2cccc(C)n2)n1

>  <Name>  (467) 
nan

>  <Pocket>  (467) 
nan

>  <ATP_Site>  (467) 
nan

>  <Peripheral>  (467) 
nan

>  <Num_H_Atoms_ProtBoundConf>  (467) 
nan

>  <Num_Resolved_Atoms>  (467) 
nan

>  <Num_Not_Resolved_Atoms>  (467) 
nan

$$$$
CHEMBL2024688
     RDKit          3D

  0  0  0  0  0  0  0  0  0  0999 V3000
M  V30 BEGIN CTAB
M  V30 COUNTS 39 42 0 0 0
M  V30 BEGIN ATOM
M  V30 1 C 0.109672 -4.436162 1.596005 0
M  V30 2 C 1.266558 -3.575232 1.183089 0
M  V30 3 C 2.505051 -3.864172 1.709770 0
M  V30 4 C 3.562882 -3.050620 1.311132 0
M  V30 5 C 3.397828 -2.005957 0.435810 0
M  V30 6 C 2.133407 -1.782994 -0.044264 0
M  V30 7 N 1.758624 -0.746186 -0.963332 0
M  V30 8 N 2.321196 -0.733621 -2.148728 0
M  V30 9 C 1.824471 0.312114 -2.829906 0
M  V30 10 C 0.915757 0.974768 -2.031729 0
M  V30 11 C 0.112526 2.167287 -2.318263 0
M  V30 12 C 0.883471 0.288906 -0.843551 0
M  V30 13 C 0.120957 0.505608 0.380993 0
M  V30 14 C 0.825542 0.402304 1.577278 0
M  V30 15 C 0.240575 0.580958 2.814782 0
M  V30 16 C -1.103835 0.876756 2.902111 0
M  V30 17 N -1.773458 1.070218 4.053483 0
M  V30 18 C -3.087415 1.357339 4.091387 0
M  V30 19 N -3.815781 1.468060 2.949116 0
M  V30 20 C -3.165114 1.277487 1.768241 0
M  V30 21 O -3.801737 1.371014 0.691876 0
M  V30 22 C -1.810264 0.981090 1.720941 0
M  V30 23 C -1.224467 0.802271 0.483750 0
M  V30 24 N 1.105852 -2.554923 0.328292 0
M  V30 25 H 0.079430 -4.542380 2.700338 0
M  V30 26 H -0.806783 -4.015566 1.172098 0
M  V30 27 H 0.288035 -5.412845 1.104404 0
M  V30 28 H 2.691896 -4.684441 2.410726 0
M  V30 29 H 4.562432 -3.241019 1.701955 0
M  V30 30 H 4.177187 -1.346636 0.094146 0
M  V30 31 H 2.040209 0.663120 -3.850448 0
M  V30 32 H 0.439325 2.571848 -3.320445 0
M  V30 33 H -0.961678 1.941968 -2.447597 0
M  V30 34 H 0.306294 2.983428 -1.569566 0
M  V30 35 H 1.876323 0.176064 1.628162 0
M  V30 36 H 0.788428 0.500630 3.744541 0
M  V30 37 H -3.604175 1.509542 5.049925 0
M  V30 38 H -4.841102 1.691174 2.955982 0
M  V30 39 H -1.751155 0.877998 -0.446388 0
M  V30 END ATOM
M  V30 BEGIN BOND
M  V30 1 1 1 2
M  V30 2 2 2 3
M  V30 3 1 3 4
M  V30 4 2 4 5
M  V30 5 1 5 6
M  V30 6 1 6 7
M  V30 7 1 7 8
M  V30 8 2 8 9
M  V30 9 1 9 10
M  V30 10 1 10 11
M  V30 11 2 10 12
M  V30 12 1 12 13
M  V30 13 2 13 14
M  V30 14 1 14 15
M  V30 15 2 15 16
M  V30 16 1 16 17
M  V30 17 2 17 18
M  V30 18 1 18 19
M  V30 19 1 19 20
M  V30 20 2 20 21
M  V30 21 1 20 22
M  V30 22 2 22 23
M  V30 23 2 6 24
M  V30 24 1 24 2
M  V30 25 1 12 7
M  V30 26 1 23 13
M  V30 27 1 22 16
M  V30 28 1 1 25
M  V30 29 1 1 26
M  V30 30 1 1 27
M  V30 31 1 3 28
M  V30 32 1 4 29
M  V30 33 1 5 30
M  V30 34 1 9 31
M  V30 35 1 11 32
M  V30 36 1 11 33
M  V30 37 1 11 34
M  V30 38 1 14 35
M  V30 39 1 15 36
M  V30 40 1 18 37
M  V30 41 1 19 38
M  V30 42 1 23 39
M  V30 END BOND
M  V30 END CTAB
M  END
>  <Dataset>  (468) 
ChEMBL_Kinases

>  <Ligand_Instance>  (468) 
nan

>  <PDB_ID>  (468) 
nan

>  <Standardized_SMILES>  (468) 
Cc1cccc(-n2ncc(C)c2-c2ccc3nc[nH]c(=O)c3c2)n1

>  <Name>  (468) 
nan

>  <Pocket>  (468) 
nan

>  <ATP_Site>  (468) 
nan

>  <Peripheral>  (468) 
nan

>  <Num_H_Atoms_ProtBoundConf>  (468) 
nan

>  <Num_Resolved_Atoms>  (468) 
nan

>  <Num_Not_Resolved_Atoms>  (468) 
nan

$$$$
CHEMBL2024687
     RDKit          3D

  0  0  0  0  0  0  0  0  0  0999 V3000
M  V30 BEGIN CTAB
M  V30 COUNTS 42 45 0 0 0
M  V30 BEGIN ATOM
M  V30 1 C 2.350052 -4.058214 0.996166 0
M  V30 2 C 1.506598 -3.381020 -0.046358 0
M  V30 3 C 0.486917 -4.059334 -0.701841 0
M  V30 4 C -0.253270 -3.380904 -1.650732 0
M  V30 5 C 0.001573 -2.059431 -1.952358 0
M  V30 6 C 1.019897 -1.411849 -1.285695 0
M  V30 7 N 1.460489 -0.052705 -1.433226 0
M  V30 8 N 1.957543 0.309950 -2.599428 0
M  V30 9 C 2.306358 1.621720 -2.514818 0
M  V30 10 C 2.908177 2.522333 -3.532619 0
M  V30 11 C 2.006858 2.070857 -1.241887 0
M  V30 12 C 1.465082 0.976365 -0.567943 0
M  V30 13 C 0.969148 0.854021 0.800188 0
M  V30 14 C 1.696036 1.386568 1.840178 0
M  V30 15 C 1.284594 1.307528 3.168718 0
M  V30 16 C 0.096990 0.664028 3.422892 0
M  V30 17 N -0.316752 0.579685 4.716974 0
M  V30 18 C -1.482491 -0.050168 4.981974 0
M  V30 19 N -2.258790 -0.600445 4.030519 0
M  V30 20 C -3.514912 -1.276957 4.334763 0
M  V30 21 C -1.855308 -0.520456 2.749040 0
M  V30 22 O -2.519179 -1.005426 1.811311 0
M  V30 23 C -0.677474 0.109316 2.424247 0
M  V30 24 C -0.212304 0.222864 1.130722 0
M  V30 25 N 1.741139 -2.091913 -0.353416 0
M  V30 26 H 1.942415 -5.034617 1.253755 0
M  V30 27 H 3.408779 -4.099051 0.710634 0
M  V30 28 H 2.239374 -3.397687 1.900113 0
M  V30 29 H 0.275403 -5.087464 -0.479237 0
M  V30 30 H -1.074547 -3.848697 -2.210416 0
M  V30 31 H -0.510580 -1.435597 -2.671310 0
M  V30 32 H 3.978885 2.693845 -3.397308 0
M  V30 33 H 2.659568 2.104901 -4.536816 0
M  V30 34 H 2.413183 3.533022 -3.516961 0
M  V30 35 H 2.109329 3.009608 -0.744396 0
M  V30 36 H 2.639361 1.902429 1.679103 0
M  V30 37 H 1.857338 1.726928 3.986325 0
M  V30 38 H -1.790327 -0.103304 6.027652 0
M  V30 39 H -3.875004 -0.915915 5.318120 0
M  V30 40 H -4.311840 -0.938863 3.610377 0
M  V30 41 H -3.452851 -2.370278 4.237542 0
M  V30 42 H -0.810567 -0.208218 0.337163 0
M  V30 END ATOM
M  V30 BEGIN BOND
M  V30 1 1 1 2
M  V30 2 2 2 3
M  V30 3 1 3 4
M  V30 4 2 4 5
M  V30 5 1 5 6
M  V30 6 1 6 7
M  V30 7 1 7 8
M  V30 8 2 8 9
M  V30 9 1 9 10
M  V30 10 1 9 11
M  V30 11 2 11 12
M  V30 12 1 12 13
M  V30 13 2 13 14
M  V30 14 1 14 15
M  V30 15 2 15 16
M  V30 16 1 16 17
M  V30 17 2 17 18
M  V30 18 1 18 19
M  V30 19 1 19 20
M  V30 20 1 19 21
M  V30 21 2 21 22
M  V30 22 1 21 23
M  V30 23 2 23 24
M  V30 24 2 6 25
M  V30 25 1 25 2
M  V30 26 1 12 7
M  V30 27 1 24 13
M  V30 28 1 23 16
M  V30 29 1 1 26
M  V30 30 1 1 27
M  V30 31 1 1 28
M  V30 32 1 3 29
M  V30 33 1 4 30
M  V30 34 1 5 31
M  V30 35 1 10 32
M  V30 36 1 10 33
M  V30 37 1 10 34
M  V30 38 1 11 35
M  V30 39 1 14 36
M  V30 40 1 15 37
M  V30 41 1 18 38
M  V30 42 1 20 39
M  V30 43 1 20 40
M  V30 44 1 20 41
M  V30 45 1 24 42
M  V30 END BOND
M  V30 END CTAB
M  END
>  <Dataset>  (469) 
ChEMBL_Kinases

>  <Ligand_Instance>  (469) 
nan

>  <PDB_ID>  (469) 
nan

>  <Standardized_SMILES>  (469) 
Cc1cccc(-n2nc(C)cc2-c2ccc3ncn(C)c(=O)c3c2)n1

>  <Name>  (469) 
nan

>  <Pocket>  (469) 
nan

>  <ATP_Site>  (469) 
nan

>  <Peripheral>  (469) 
nan

>  <Num_H_Atoms_ProtBoundConf>  (469) 
nan

>  <Num_Resolved_Atoms>  (469) 
nan

>  <Num_Not_Resolved_Atoms>  (469) 
nan

$$$$
CHEMBL2024686
     RDKit          3D

  0  0  0  0  0  0  0  0  0  0999 V3000
M  V30 BEGIN CTAB
M  V30 COUNTS 42 45 0 0 0
M  V30 BEGIN ATOM
M  V30 1 C 1.930746 -3.577392 2.286027 0
M  V30 2 C 1.677745 -3.258111 0.857290 0
M  V30 3 C 1.146162 -4.196136 -0.001084 0
M  V30 4 C 0.893344 -3.942550 -1.341529 0
M  V30 5 C 1.181382 -2.692195 -1.865112 0
M  V30 6 C 1.717485 -1.761802 -0.978651 0
M  V30 7 N 2.066199 -0.435689 -1.362540 0
M  V30 8 N 2.733833 -0.236220 -2.475338 0
M  V30 9 C 2.977059 1.084515 -2.679204 0
M  V30 10 C 2.394192 1.686864 -1.582312 0
M  V30 11 C 2.382609 3.140675 -1.327758 0
M  V30 12 C 1.824933 0.739303 -0.759031 0
M  V30 13 C 1.104050 0.889813 0.501627 0
M  V30 14 C 1.447241 1.679056 1.577783 0
M  V30 15 C 0.641557 1.698614 2.697234 0
M  V30 16 C -0.516241 0.959462 2.811956 0
M  V30 17 N -1.289252 0.990355 3.909603 0
M  V30 18 C -2.412435 0.270347 4.015118 0
M  V30 19 N -2.790147 -0.524296 2.974777 0
M  V30 20 C -3.987806 -1.360148 2.954662 0
M  V30 21 C -2.019798 -0.561981 1.867483 0
M  V30 22 O -2.345279 -1.293295 0.880359 0
M  V30 23 C -0.858352 0.174694 1.743065 0
M  V30 24 C -0.068146 0.128553 0.592626 0
M  V30 25 N 1.946664 -2.050388 0.314684 0
M  V30 26 H 2.239866 -4.636741 2.372317 0
M  V30 27 H 2.754332 -2.961562 2.701165 0
M  V30 28 H 1.038169 -3.337031 2.888144 0
M  V30 29 H 0.904305 -5.186621 0.359430 0
M  V30 30 H 0.477229 -4.663472 -2.031196 0
M  V30 31 H 1.036196 -2.359965 -2.883532 0
M  V30 32 H 3.508103 1.509337 -3.521339 0
M  V30 33 H 2.118858 3.718838 -2.251405 0
M  V30 34 H 3.405080 3.522907 -1.046917 0
M  V30 35 H 1.704650 3.433667 -0.524605 0
M  V30 36 H 2.358326 2.243695 1.454413 0
M  V30 37 H 0.933446 2.328526 3.531983 0
M  V30 38 H -3.068526 0.262643 4.880682 0
M  V30 39 H -4.765972 -0.836877 2.331530 0
M  V30 40 H -3.740228 -2.291068 2.396820 0
M  V30 41 H -4.379809 -1.562417 3.954235 0
M  V30 42 H -0.436880 -0.528453 -0.191745 0
M  V30 END ATOM
M  V30 BEGIN BOND
M  V30 1 1 1 2
M  V30 2 2 2 3
M  V30 3 1 3 4
M  V30 4 2 4 5
M  V30 5 1 5 6
M  V30 6 1 6 7
M  V30 7 1 7 8
M  V30 8 2 8 9
M  V30 9 1 9 10
M  V30 10 1 10 11
M  V30 11 2 10 12
M  V30 12 1 12 13
M  V30 13 2 13 14
M  V30 14 1 14 15
M  V30 15 2 15 16
M  V30 16 1 16 17
M  V30 17 2 17 18
M  V30 18 1 18 19
M  V30 19 1 19 20
M  V30 20 1 19 21
M  V30 21 2 21 22
M  V30 22 1 21 23
M  V30 23 2 23 24
M  V30 24 2 6 25
M  V30 25 1 25 2
M  V30 26 1 12 7
M  V30 27 1 24 13
M  V30 28 1 23 16
M  V30 29 1 1 26
M  V30 30 1 1 27
M  V30 31 1 1 28
M  V30 32 1 3 29
M  V30 33 1 4 30
M  V30 34 1 5 31
M  V30 35 1 9 32
M  V30 36 1 11 33
M  V30 37 1 11 34
M  V30 38 1 11 35
M  V30 39 1 14 36
M  V30 40 1 15 37
M  V30 41 1 18 38
M  V30 42 1 20 39
M  V30 43 1 20 40
M  V30 44 1 20 41
M  V30 45 1 24 42
M  V30 END BOND
M  V30 END CTAB
M  END
>  <Dataset>  (470) 
ChEMBL_Kinases

>  <Ligand_Instance>  (470) 
nan

>  <PDB_ID>  (470) 
nan

>  <Standardized_SMILES>  (470) 
Cc1cccc(-n2ncc(C)c2-c2ccc3ncn(C)c(=O)c3c2)n1

>  <Name>  (470) 
nan

>  <Pocket>  (470) 
nan

>  <ATP_Site>  (470) 
nan

>  <Peripheral>  (470) 
nan

>  <Num_H_Atoms_ProtBoundConf>  (470) 
nan

>  <Num_Resolved_Atoms>  (470) 
nan

>  <Num_Not_Resolved_Atoms>  (470) 
nan

$$$$
CHEMBL2024685
     RDKit          3D

  0  0  0  0  0  0  0  0  0  0999 V3000
M  V30 BEGIN CTAB
M  V30 COUNTS 40 43 0 0 0
M  V30 BEGIN ATOM
M  V30 1 C 0.565404 -5.091532 2.313745 0
M  V30 2 C 1.689093 -4.872098 1.653653 0
M  V30 3 N 2.004877 -3.764363 0.844883 0
M  V30 4 C 3.214007 -3.738185 0.259745 0
M  V30 5 N 3.498227 -2.674917 -0.507686 0
M  V30 6 C 2.629893 -1.671228 -0.696728 0
M  V30 7 C 2.984534 -0.606143 -1.498419 0
M  V30 8 C 2.127909 0.454624 -1.726993 0
M  V30 9 C 0.892266 0.392585 -1.108000 0
M  V30 10 C -0.037757 1.512683 -1.337363 0
M  V30 11 C -0.252727 2.045513 -2.577923 0
M  V30 12 C -1.172138 3.049796 -2.358083 0
M  V30 13 N -1.456210 3.071638 -1.039645 0
M  V30 14 N -0.773699 2.137664 -0.385826 0
M  V30 15 C -0.784451 1.829154 1.005069 0
M  V30 16 C 0.251971 2.001662 1.899261 0
M  V30 17 C 0.085819 1.652495 3.223601 0
M  V30 18 C -1.084000 1.125738 3.730106 0
M  V30 19 C -2.099616 0.972735 2.780633 0
M  V30 20 C -3.400684 0.410696 3.235226 0
M  V30 21 N -1.938350 1.308837 1.508004 0
M  V30 22 C 0.509196 -0.660018 -0.300355 0
M  V30 23 C 1.391052 -1.696090 -0.098380 0
M  V30 24 C 1.094474 -2.788257 0.692094 0
M  V30 25 O -0.043983 -2.781326 1.224216 0
M  V30 26 H 0.254746 -5.909356 2.947360 0
M  V30 27 H -0.410990 -4.683780 2.530767 0
M  V30 28 H 2.369710 -5.696236 1.824062 0
M  V30 29 H 3.897481 -4.542663 0.417162 0
M  V30 30 H 3.955014 -0.625103 -1.944247 0
M  V30 31 H 2.447196 1.257673 -2.355895 0
M  V30 32 H 0.183381 1.763905 -3.526521 0
M  V30 33 H -1.592510 3.706726 -3.114868 0
M  V30 34 H 1.161913 2.415414 1.486943 0
M  V30 35 H 0.902780 1.791341 3.915356 0
M  V30 36 H -1.201658 0.859375 4.755131 0
M  V30 37 H -4.085564 1.258545 3.391395 0
M  V30 38 H -3.257176 -0.231063 4.105059 0
M  V30 39 H -3.856694 -0.165880 2.378112 0
M  V30 40 H -0.459261 -0.669008 0.161177 0
M  V30 END ATOM
M  V30 BEGIN BOND
M  V30 1 2 1 2
M  V30 2 1 2 3
M  V30 3 1 3 4
M  V30 4 2 4 5
M  V30 5 1 5 6
M  V30 6 2 6 7
M  V30 7 1 7 8
M  V30 8 2 8 9
M  V30 9 1 9 10
M  V30 10 2 10 11
M  V30 11 1 11 12
M  V30 12 2 12 13
M  V30 13 1 13 14
M  V30 14 1 14 15
M  V30 15 2 15 16
M  V30 16 1 16 17
M  V30 17 2 17 18
M  V30 18 1 18 19
M  V30 19 1 19 20
M  V30 20 2 19 21
M  V30 21 1 9 22
M  V30 22 2 22 23
M  V30 23 1 23 24
M  V30 24 2 24 25
M  V30 25 1 24 3
M  V30 26 1 23 6
M  V30 27 1 14 10
M  V30 28 1 21 15
M  V30 29 1 1 26
M  V30 30 1 1 27
M  V30 31 1 2 28
M  V30 32 1 4 29
M  V30 33 1 7 30
M  V30 34 1 8 31
M  V30 35 1 11 32
M  V30 36 1 12 33
M  V30 37 1 16 34
M  V30 38 1 17 35
M  V30 39 1 18 36
M  V30 40 1 20 37
M  V30 41 1 20 38
M  V30 42 1 20 39
M  V30 43 1 22 40
M  V30 END BOND
M  V30 END CTAB
M  END
>  <Dataset>  (471) 
ChEMBL_Kinases

>  <Ligand_Instance>  (471) 
nan

>  <PDB_ID>  (471) 
nan

>  <Standardized_SMILES>  (471) 
C=Cn1cnc2ccc(-c3ccnn3-c3cccc(C)n3)cc2c1=O

>  <Name>  (471) 
nan

>  <Pocket>  (471) 
nan

>  <ATP_Site>  (471) 
nan

>  <Peripheral>  (471) 
nan

>  <Num_H_Atoms_ProtBoundConf>  (471) 
nan

>  <Num_Resolved_Atoms>  (471) 
nan

>  <Num_Not_Resolved_Atoms>  (471) 
nan

$$$$
CHEMBL2024684
     RDKit          3D

  0  0  0  0  0  0  0  0  0  0999 V3000
M  V30 BEGIN CTAB
M  V30 COUNTS 39 42 0 0 0
M  V30 BEGIN ATOM
M  V30 1 C 0.053052 -4.926270 0.435854 0
M  V30 2 C 0.822813 -3.670568 0.336384 0
M  V30 3 C 1.778074 -3.333800 1.298583 0
M  V30 4 C 2.410841 -2.131517 1.065681 0
M  V30 5 C 2.138679 -1.319579 -0.015340 0
M  V30 6 C 1.173994 -1.739753 -0.915857 0
M  V30 7 N 0.939929 -0.843839 -2.021231 0
M  V30 8 N 0.995831 -1.146966 -3.293811 0
M  V30 9 C 0.720479 -0.060462 -4.034038 0
M  V30 10 C 0.475853 0.993936 -3.155433 0
M  V30 11 C 0.620284 0.475683 -1.876663 0
M  V30 12 C 0.476207 1.142120 -0.576335 0
M  V30 13 C 0.985706 2.373715 -0.218115 0
M  V30 14 C 0.759762 2.862329 1.052254 0
M  V30 15 C 0.032365 2.159038 1.998009 0
M  V30 16 N -0.197880 2.616235 3.236342 0
M  V30 17 C -0.914244 1.903367 4.139815 0
M  V30 18 N -1.425678 0.698659 3.823827 0
M  V30 19 C -2.206052 -0.115262 4.756464 0
M  V30 20 C -1.215736 0.195679 2.575765 0
M  V30 21 O -1.693730 -0.942801 2.263116 0
M  V30 22 C -0.488024 0.913836 1.649688 0
M  V30 23 C -0.245945 0.450029 0.371062 0
M  V30 24 N 0.528744 -2.904853 -0.732484 0
M  V30 25 H -0.111766 -5.122951 1.507610 0
M  V30 26 H -0.956875 -4.845902 -0.015886 0
M  V30 27 H 0.579377 -5.782623 -0.005096 0
M  V30 28 H 1.983988 -3.975934 2.141194 0
M  V30 29 H 3.173915 -1.785752 1.766097 0
M  V30 30 H 2.679157 -0.386421 -0.130944 0
M  V30 31 H 0.669919 0.085224 -5.097424 0
M  V30 32 H 0.216123 2.050154 -3.313543 0
M  V30 33 H 1.543095 2.883477 -0.983123 0
M  V30 34 H 1.165479 3.825035 1.312654 0
M  V30 35 H -1.098914 2.278613 5.144854 0
M  V30 36 H -1.795514 0.074146 5.773083 0
M  V30 37 H -3.279410 0.140292 4.743104 0
M  V30 38 H -2.028985 -1.206905 4.570483 0
M  V30 39 H -0.677951 -0.520215 0.169517 0
M  V30 END ATOM
M  V30 BEGIN BOND
M  V30 1 1 1 2
M  V30 2 2 2 3
M  V30 3 1 3 4
M  V30 4 2 4 5
M  V30 5 1 5 6
M  V30 6 1 6 7
M  V30 7 1 7 8
M  V30 8 2 8 9
M  V30 9 1 9 10
M  V30 10 2 10 11
M  V30 11 1 11 12
M  V30 12 2 12 13
M  V30 13 1 13 14
M  V30 14 2 14 15
M  V30 15 1 15 16
M  V30 16 2 16 17
M  V30 17 1 17 18
M  V30 18 1 18 19
M  V30 19 1 18 20
M  V30 20 2 20 21
M  V30 21 1 20 22
M  V30 22 2 22 23
M  V30 23 2 6 24
M  V30 24 1 24 2
M  V30 25 1 11 7
M  V30 26 1 23 12
M  V30 27 1 22 15
M  V30 28 1 1 25
M  V30 29 1 1 26
M  V30 30 1 1 27
M  V30 31 1 3 28
M  V30 32 1 4 29
M  V30 33 1 5 30
M  V30 34 1 9 31
M  V30 35 1 10 32
M  V30 36 1 13 33
M  V30 37 1 14 34
M  V30 38 1 17 35
M  V30 39 1 19 36
M  V30 40 1 19 37
M  V30 41 1 19 38
M  V30 42 1 23 39
M  V30 END BOND
M  V30 END CTAB
M  END
>  <Dataset>  (472) 
ChEMBL_Kinases

>  <Ligand_Instance>  (472) 
nan

>  <PDB_ID>  (472) 
nan

>  <Standardized_SMILES>  (472) 
Cc1cccc(-n2nccc2-c2ccc3ncn(C)c(=O)c3c2)n1

>  <Name>  (472) 
nan

>  <Pocket>  (472) 
nan

>  <ATP_Site>  (472) 
nan

>  <Peripheral>  (472) 
nan

>  <Num_H_Atoms_ProtBoundConf>  (472) 
nan

>  <Num_Resolved_Atoms>  (472) 
nan

>  <Num_Not_Resolved_Atoms>  (472) 
nan

$$$$
CHEMBL2024655
     RDKit          3D

  0  0  0  0  0  0  0  0  0  0999 V3000
M  V30 BEGIN CTAB
M  V30 COUNTS 130 131 0 0 0
M  V30 BEGIN ATOM
M  V30 1 N 0.192811 -4.942114 6.114597 0
M  V30 2 C -0.673149 -4.290525 5.372857 0
M  V30 3 N -1.385497 -5.120149 4.430519 0
M  V30 4 N -0.951787 -2.885793 5.423973 0
M  V30 5 C -0.521472 -2.246938 6.641095 0
M  V30 6 C -0.822735 -0.759625 6.691283 0
M  V30 7 C -0.124489 -0.110392 5.544703 0
M  V30 8 C -0.293482 1.408545 5.478767 0 CFG=1
M  V30 9 N 0.457886 1.820147 4.297128 0
M  V30 10 C 1.682041 2.469158 4.027696 0
M  V30 11 O 2.339020 2.794321 5.069607 0
M  V30 12 C 2.115739 2.716812 2.652545 0 CFG=1
M  V30 13 C 3.228520 1.673758 2.343698 0
M  V30 14 C 4.394495 1.818582 3.269156 0
M  V30 15 C 5.036776 3.179105 3.177707 0
M  V30 16 N 5.535359 3.485639 1.855082 0
M  V30 17 C 6.158997 4.777813 1.714109 0
M  V30 18 N 6.040098 5.662520 2.636235 0
M  V30 19 N 6.928230 5.179483 0.590211 0
M  V30 20 N 1.085332 2.467418 1.648470 0
M  V30 21 C 1.566383 2.919995 0.375873 0
M  V30 22 O 2.607696 3.441158 -0.097193 0
M  V30 23 C 0.734893 2.827560 -0.876139 0
M  V30 24 C 1.680347 2.662185 -2.086492 0
M  V30 25 C 0.901705 2.579895 -3.350139 0
M  V30 26 C 1.757559 2.269300 -4.586611 0
M  V30 27 C 2.338815 0.892652 -4.308867 0
M  V30 28 N 3.119084 0.360404 -5.398096 0
M  V30 29 C 3.526674 -0.951066 -4.921160 0
M  V30 30 O 3.109384 -1.225597 -3.731035 0
M  V30 31 C 4.186102 -2.303904 -4.949619 0 CFG=2
M  V30 32 C 3.785853 -3.044164 -6.156213 0
M  V30 33 C 2.373335 -3.376233 -6.397053 0
M  V30 34 C 1.387811 -2.272850 -6.523217 0
M  V30 35 C 0.022090 -2.940694 -6.799790 0
M  V30 36 N 0.086377 -3.717586 -8.011218 0
M  V30 37 N 3.838092 -2.947976 -3.697509 0
M  V30 38 C 4.531183 -3.546670 -2.583808 0
M  V30 39 O 5.775079 -3.554748 -2.736407 0
M  V30 40 C 3.844627 -4.089709 -1.385283 0
M  V30 41 N 2.441459 -3.846549 -1.480720 0
M  V30 42 C 1.727265 -4.222065 -0.261839 0
M  V30 43 C 0.302417 -3.774983 -0.423081 0
M  V30 44 O 0.479323 -3.346361 -1.625075 0
M  V30 45 N -0.974877 -3.655034 0.153791 0
M  V30 46 C -1.764250 -3.041359 -0.857053 0
M  V30 47 C -3.187513 -2.710232 -0.426101 0
M  V30 48 N -3.205902 -1.792475 0.657164 0
M  V30 49 S -4.782153 -1.361293 1.152105 0
M  V30 50 O -5.500250 -2.644696 1.562697 0
M  V30 51 O -4.613438 -0.481443 2.389586 0
M  V30 52 C -5.712596 -0.535287 -0.058828 0
M  V30 53 C -5.283397 -0.133392 -1.299432 0
M  V30 54 C -6.021900 0.535037 -2.250387 0
M  V30 55 C -7.326876 0.851414 -1.965124 0
M  V30 56 C -7.826917 0.473503 -0.719012 0
M  V30 57 C -9.134838 0.823152 -0.476812 0
M  V30 58 N -9.652246 0.494756 0.696740 0
M  V30 59 C -8.987702 -0.145035 1.640549 0
M  V30 60 C -7.669536 -0.497863 1.394832 0
M  V30 61 C -7.046692 -0.204621 0.219256 0
M  V30 62 C -1.710272 1.724360 5.330039 0
M  V30 63 N -2.378916 2.321317 4.211098 0
M  V30 64 O -2.618689 1.521676 6.182427 0
M  V30 65 H 0.260264 -5.955301 5.936393 0
M  V30 66 H -0.651356 -5.287243 3.709133 0
M  V30 67 H -2.017273 -5.708247 3.838117 0
M  V30 68 H -1.429198 -2.487237 4.587555 0
M  V30 69 H -1.052883 -2.779471 7.478551 0
M  V30 70 H 0.573898 -2.405665 6.774400 0
M  V30 71 H -1.925175 -0.628343 6.591742 0
M  V30 72 H -0.511017 -0.419208 7.683199 0
M  V30 73 H -0.490581 -0.523365 4.599212 0
M  V30 74 H 0.967204 -0.257856 5.709001 0
M  V30 75 H 0.161254 1.865672 6.390315 0
M  V30 76 H -0.104308 1.526811 3.465749 0
M  V30 77 H 2.615261 3.676484 2.461499 0
M  V30 78 H 2.771151 0.667760 2.383478 0
M  V30 79 H 3.572777 1.857032 1.310459 0
M  V30 80 H 4.162055 1.560985 4.309532 0
M  V30 81 H 5.151378 1.065191 2.932129 0
M  V30 82 H 4.347064 3.991502 3.465972 0
M  V30 83 H 5.948955 3.197980 3.847090 0
M  V30 84 H 5.497561 2.882030 0.987748 0
M  V30 85 H 6.456993 6.605906 2.605221 0
M  V30 86 H 7.161186 5.100545 -0.418880 0
M  V30 87 H 7.260778 5.200439 -0.406587 0
M  V30 88 H 0.128461 2.073808 1.555689 0
M  V30 89 H 0.029336 1.988862 -0.819150 0
M  V30 90 H 0.202953 3.792007 -0.965916 0
M  V30 91 H 2.316627 3.592561 -2.131976 0
M  V30 92 H 2.357996 1.837359 -1.913472 0
M  V30 93 H 0.301607 3.508505 -3.535125 0
M  V30 94 H 0.153699 1.753928 -3.253038 0
M  V30 95 H 2.576943 2.996829 -4.578550 0
M  V30 96 H 1.109736 2.312031 -5.463170 0
M  V30 97 H 3.051703 0.997100 -3.442431 0
M  V30 98 H 1.499210 0.230539 -4.063278 0
M  V30 99 H 3.638784 0.176060 -6.299789 0
M  V30 100 H 5.281981 -2.120451 -4.894883 0
M  V30 101 H 4.190493 -2.602324 -7.104192 0
M  V30 102 H 4.337027 -4.043916 -6.109869 0
M  V30 103 H 1.966138 -4.151114 -5.695129 0
M  V30 104 H 2.342268 -3.919716 -7.396643 0
M  V30 105 H 1.611628 -1.613914 -7.389169 0
M  V30 106 H 1.247480 -1.635707 -5.645365 0
M  V30 107 H -0.784763 -2.193779 -6.855251 0
M  V30 108 H -0.231370 -3.627437 -5.963676 0
M  V30 109 H -0.240131 -3.098865 -8.801975 0
M  V30 110 H -0.514794 -4.553234 -7.898666 0
M  V30 111 H 2.779621 -3.015146 -3.580981 0
M  V30 112 H 4.240167 -3.502432 -0.514915 0
M  V30 113 H 4.094555 -5.152511 -1.207104 0
M  V30 114 H 2.290556 -2.814770 -1.669406 0
M  V30 115 H 1.781719 -5.296212 -0.065245 0
M  V30 116 H 2.179233 -3.664705 0.580485 0
M  V30 117 H -0.753901 -4.080793 1.082360 0
M  V30 118 H -1.836979 -3.703573 -1.750690 0
M  V30 119 H -1.358599 -2.066866 -1.228624 0
M  V30 120 H -3.833845 -2.486225 -1.266850 0
M  V30 121 H -3.585614 -3.712915 -0.040418 0
M  V30 122 H -2.694855 -0.912455 0.412330 0
M  V30 123 H -4.281156 -0.316917 -1.592251 0
M  V30 124 H -5.624938 0.822919 -3.209110 0
M  V30 125 H -7.942980 1.370391 -2.671560 0
M  V30 126 H -9.725557 1.342446 -1.205739 0
M  V30 127 H -9.398479 -0.412087 2.585901 0
M  V30 128 H -7.110153 -1.028529 2.166315 0
M  V30 129 H -2.707095 3.080006 3.589308 0
M  V30 130 H -2.104235 3.320189 4.429326 0
M  V30 END ATOM
M  V30 BEGIN BOND
M  V30 1 2 1 2 CFG=2
M  V30 2 1 2 3
M  V30 3 1 2 4
M  V30 4 1 4 5
M  V30 5 1 5 6
M  V30 6 1 6 7
M  V30 7 1 7 8
M  V30 8 1 8 9
M  V30 9 1 9 10
M  V30 10 2 10 11
M  V30 11 1 10 12
M  V30 12 1 12 13
M  V30 13 1 13 14
M  V30 14 1 14 15
M  V30 15 1 15 16
M  V30 16 1 16 17
M  V30 17 2 17 18 CFG=2
M  V30 18 1 17 19
M  V30 19 1 12 20
M  V30 20 1 20 21
M  V30 21 2 21 22
M  V30 22 1 21 23
M  V30 23 1 23 24
M  V30 24 1 24 25
M  V30 25 1 25 26
M  V30 26 1 26 27
M  V30 27 1 27 28
M  V30 28 1 28 29
M  V30 29 2 29 30
M  V30 30 1 29 31
M  V30 31 1 31 32
M  V30 32 1 32 33
M  V30 33 1 33 34
M  V30 34 1 34 35
M  V30 35 1 35 36
M  V30 36 1 31 37
M  V30 37 1 37 38
M  V30 38 2 38 39
M  V30 39 1 38 40
M  V30 40 1 40 41
M  V30 41 1 41 42
M  V30 42 1 42 43
M  V30 43 2 43 44
M  V30 44 1 43 45
M  V30 45 1 45 46
M  V30 46 1 46 47
M  V30 47 1 47 48
M  V30 48 1 48 49
M  V30 49 2 49 50
M  V30 50 2 49 51
M  V30 51 1 49 52
M  V30 52 2 52 53
M  V30 53 1 53 54
M  V30 54 2 54 55
M  V30 55 1 55 56
M  V30 56 2 56 57
M  V30 57 1 57 58
M  V30 58 2 58 59
M  V30 59 1 59 60
M  V30 60 2 60 61
M  V30 61 1 8 62
M  V30 62 1 62 63
M  V30 63 2 62 64
M  V30 64 1 61 52
M  V30 65 1 61 56
M  V30 66 1 1 65
M  V30 67 1 3 66
M  V30 68 1 3 67
M  V30 69 1 4 68
M  V30 70 1 5 69
M  V30 71 1 5 70
M  V30 72 1 6 71
M  V30 73 1 6 72
M  V30 74 1 7 73
M  V30 75 1 7 74
M  V30 76 1 8 75 CFG=1
M  V30 77 1 9 76
M  V30 78 1 12 77 CFG=1
M  V30 79 1 13 78
M  V30 80 1 13 79
M  V30 81 1 14 80
M  V30 82 1 14 81
M  V30 83 1 15 82
M  V30 84 1 15 83
M  V30 85 1 16 84
M  V30 86 1 18 85
M  V30 87 1 19 86
M  V30 88 1 19 87
M  V30 89 1 20 88
M  V30 90 1 23 89
M  V30 91 1 23 90
M  V30 92 1 24 91
M  V30 93 1 24 92
M  V30 94 1 25 93
M  V30 95 1 25 94
M  V30 96 1 26 95
M  V30 97 1 26 96
M  V30 98 1 27 97
M  V30 99 1 27 98
M  V30 100 1 28 99
M  V30 101 1 31 100 CFG=3
M  V30 102 1 32 101
M  V30 103 1 32 102
M  V30 104 1 33 103
M  V30 105 1 33 104
M  V30 106 1 34 105
M  V30 107 1 34 106
M  V30 108 1 35 107
M  V30 109 1 35 108
M  V30 110 1 36 109
M  V30 111 1 36 110
M  V30 112 1 37 111
M  V30 113 1 40 112
M  V30 114 1 40 113
M  V30 115 1 41 114
M  V30 116 1 42 115
M  V30 117 1 42 116
M  V30 118 1 45 117
M  V30 119 1 46 118
M  V30 120 1 46 119
M  V30 121 1 47 120
M  V30 122 1 47 121
M  V30 123 1 48 122
M  V30 124 1 53 123
M  V30 125 1 54 124
M  V30 126 1 55 125
M  V30 127 1 57 126
M  V30 128 1 59 127
M  V30 129 1 60 128
M  V30 130 1 63 129
M  V30 131 1 63 130
M  V30 END BOND
M  V30 END CTAB
M  END
>  <Dataset>  (473) 
ChEMBL_Kinases

>  <Ligand_Instance>  (473) 
nan

>  <PDB_ID>  (473) 
nan

>  <Standardized_SMILES>  (473) 
N=C(N)NCCC[C@@H](NC(=O)[C@@H](CCCNC(=N)N)NC(=O)CCCCCNC(=O)[C@H](CCCCN)NC(=O)CNCC(=O)NCCNS(=O)(=O)c1cccc2cnccc12)C(N)=O

>  <Name>  (473) 
nan

>  <Pocket>  (473) 
nan

>  <ATP_Site>  (473) 
nan

>  <Peripheral>  (473) 
nan

>  <Num_H_Atoms_ProtBoundConf>  (473) 
nan

>  <Num_Resolved_Atoms>  (473) 
nan

>  <Num_Not_Resolved_Atoms>  (473) 
nan

$$$$
CHEMBL202771
     RDKit          3D

  0  0  0  0  0  0  0  0  0  0999 V3000
M  V30 BEGIN CTAB
M  V30 COUNTS 35 36 0 0 0
M  V30 BEGIN ATOM
M  V30 1 O 0.643853 -1.489146 0.748834 0
M  V30 2 C 1.387118 -0.479048 0.682718 0
M  V30 3 N 2.673382 -0.766830 1.213575 0
M  V30 4 O 3.143475 -1.912881 1.737400 0
M  V30 5 C 3.727830 -2.737071 0.786515 0
M  V30 6 C 4.217670 -3.988438 1.483398 0
M  V30 7 O 4.799971 -4.799595 0.508951 0
M  V30 8 C 1.073822 0.823787 0.162757 0
M  V30 9 C 2.027948 1.812140 0.111406 0
M  V30 10 N 1.754941 3.025798 -0.394470 0
M  V30 11 C 0.512271 3.309477 -0.874081 0
M  V30 12 Cl 0.222496 4.913989 -1.521752 0
M  V30 13 C -0.458982 2.335202 -0.832371 0
M  V30 14 Cl -2.015400 2.805759 -1.473167 0
M  V30 15 C -0.190547 1.086401 -0.315150 0
M  V30 16 N -1.273197 0.168259 -0.297544 0
M  V30 17 C -2.416921 0.011316 0.531342 0
M  V30 18 C -3.545470 0.110854 -0.295687 0
M  V30 19 C -4.836294 0.001215 0.238064 0
M  V30 20 C -4.999051 -0.206935 1.591841 0
M  V30 21 Br -6.695679 -0.375204 2.452446 0
M  V30 22 C -3.881026 -0.302574 2.392282 0
M  V30 23 C -2.611650 -0.196296 1.878528 0
M  V30 24 F -1.434543 -0.262355 2.539490 0
M  V30 25 H 3.451730 -0.105602 1.270300 0
M  V30 26 H 2.971491 -2.956285 0.019525 0
M  V30 27 H 4.547826 -2.206082 0.285678 0
M  V30 28 H 3.360762 -4.525502 1.921756 0
M  V30 29 H 4.925242 -3.706516 2.269080 0
M  V30 30 H 4.108069 -5.344426 0.057449 0
M  V30 31 H 3.042887 1.699372 0.461582 0
M  V30 32 H -1.089417 -0.483178 -1.105156 0
M  V30 33 H -3.615807 0.270783 -1.365226 0
M  V30 34 H -5.754674 0.062993 -0.307624 0
M  V30 35 H -3.879965 -0.464836 3.466599 0
M  V30 END ATOM
M  V30 BEGIN BOND
M  V30 1 2 1 2
M  V30 2 1 2 3
M  V30 3 1 3 4
M  V30 4 1 4 5
M  V30 5 1 5 6
M  V30 6 1 6 7
M  V30 7 1 2 8
M  V30 8 2 8 9
M  V30 9 1 9 10
M  V30 10 2 10 11
M  V30 11 1 11 12
M  V30 12 1 11 13
M  V30 13 1 13 14
M  V30 14 2 13 15
M  V30 15 1 15 16
M  V30 16 1 16 17
M  V30 17 2 17 18
M  V30 18 1 18 19
M  V30 19 2 19 20
M  V30 20 1 20 21
M  V30 21 1 20 22
M  V30 22 2 22 23
M  V30 23 1 23 24
M  V30 24 1 15 8
M  V30 25 1 23 17
M  V30 26 1 3 25
M  V30 27 1 5 26
M  V30 28 1 5 27
M  V30 29 1 6 28
M  V30 30 1 6 29
M  V30 31 1 7 30
M  V30 32 1 9 31
M  V30 33 1 16 32
M  V30 34 1 18 33
M  V30 35 1 19 34
M  V30 36 1 22 35
M  V30 END BOND
M  V30 END CTAB
M  END
>  <Dataset>  (474) 
ChEMBL_Kinases

>  <Ligand_Instance>  (474) 
nan

>  <PDB_ID>  (474) 
nan

>  <Standardized_SMILES>  (474) 
O=C(NOCCO)c1cnc(Cl)c(Cl)c1Nc1ccc(Br)cc1F

>  <Name>  (474) 
nan

>  <Pocket>  (474) 
nan

>  <ATP_Site>  (474) 
nan

>  <Peripheral>  (474) 
nan

>  <Num_H_Atoms_ProtBoundConf>  (474) 
nan

>  <Num_Resolved_Atoms>  (474) 
nan

>  <Num_Not_Resolved_Atoms>  (474) 
nan

$$$$
CHEMBL2031221
     RDKit          3D

  0  0  0  0  0  0  0  0  0  0999 V3000
M  V30 BEGIN CTAB
M  V30 COUNTS 74 79 0 0 0
M  V30 BEGIN ATOM
M  V30 1 C 2.092308 -2.051927 5.817745 0
M  V30 2 C 2.269766 -0.997344 4.786884 0
M  V30 3 C 2.449523 0.315653 5.156065 0
M  V30 4 C 2.616459 1.315199 4.221151 0
M  V30 5 C 2.603172 0.992590 2.880932 0
M  V30 6 N 2.760070 1.893046 1.765601 0
M  V30 7 C 1.515258 2.412264 1.317606 0
M  V30 8 O 0.471033 2.033983 1.929364 0
M  V30 9 C 1.423178 3.344156 0.199965 0
M  V30 10 C 2.525848 3.771675 -0.472358 0
M  V30 11 C 2.381380 4.653300 -1.522608 0
M  V30 12 C 1.128739 5.084216 -1.871912 0
M  V30 13 C -0.026480 4.691408 -1.234433 0
M  V30 14 N -1.336417 5.142668 -1.600034 0
M  V30 15 C -2.548784 4.708940 -0.934199 0
M  V30 16 C -3.642610 4.787451 -2.007996 0
M  V30 17 O -3.789501 6.136022 -2.288124 0
M  V30 18 C -2.718243 6.712707 -2.920768 0
M  V30 19 C -1.394842 6.070143 -2.684666 0
M  V30 20 C 0.183524 3.806854 -0.189541 0
M  V30 21 C 2.419570 -0.344833 2.525790 0
M  V30 22 C 2.249497 -1.365391 3.465608 0
M  V30 23 N 2.066205 -2.714959 3.003864 0
M  V30 24 C 2.843279 -3.775264 3.331139 0
M  V30 25 N 2.566986 -4.989606 2.832417 0
M  V30 26 C 1.525039 -5.209907 1.999102 0
M  V30 27 C 1.252134 -6.463668 1.493372 0
M  V30 28 C 0.172467 -6.617124 0.647566 0
M  V30 29 C -0.657454 -5.574304 0.276382 0
M  V30 30 N -1.766540 -5.737545 -0.593572 0
M  V30 31 C -2.620182 -4.606376 -0.971767 0
M  V30 32 C -3.481850 -4.931689 -2.156019 0
M  V30 33 N -2.788832 -5.656116 -3.194969 0
M  V30 34 C -1.744766 -4.823249 -3.759265 0
M  V30 35 C -2.204171 -6.867823 -2.729014 0
M  V30 36 C -2.193322 -6.958164 -1.197000 0
M  V30 37 C -0.365753 -4.346514 0.790047 0
M  V30 38 C 0.711217 -4.131898 1.648529 0
M  V30 39 C 0.999339 -2.873682 2.166540 0
M  V30 40 O 0.251438 -1.893399 1.841620 0
M  V30 41 H 1.693792 -2.971698 5.370447 0
M  V30 42 H 1.440899 -1.630686 6.634129 0
M  V30 43 H 3.110317 -2.193657 6.276050 0
M  V30 44 H 2.468827 0.629256 6.196364 0
M  V30 45 H 2.764485 2.378099 4.429995 0
M  V30 46 H 3.645856 2.150418 1.323895 0
M  V30 47 H 3.512580 3.458771 -0.229274 0
M  V30 48 H 3.242362 5.026282 -2.095163 0
M  V30 49 H 1.036876 5.783654 -2.708660 0
M  V30 50 H -2.495663 3.716172 -0.488823 0
M  V30 51 H -2.841971 5.500789 -0.186560 0
M  V30 52 H -4.608092 4.420750 -1.611265 0
M  V30 53 H -3.303247 4.278518 -2.917300 0
M  V30 54 H -2.720622 7.820348 -2.716960 0
M  V30 55 H -2.917201 6.646869 -4.027741 0
M  V30 56 H -0.982810 5.547997 -3.593801 0
M  V30 57 H -0.667147 6.901403 -2.463236 0
M  V30 58 H -0.673675 3.446797 0.367773 0
M  V30 59 H 2.400909 -0.655761 1.472747 0
M  V30 60 H 3.662898 -3.571956 3.993815 0
M  V30 61 H 1.880723 -7.327205 1.757180 0
M  V30 62 H -0.010055 -7.609639 0.272196 0
M  V30 63 H -3.299670 -4.437380 -0.108314 0
M  V30 64 H -2.044707 -3.668976 -1.108132 0
M  V30 65 H -4.384346 -5.497422 -1.860622 0
M  V30 66 H -3.833074 -3.968284 -2.579888 0
M  V30 67 H -0.854131 -4.953326 -3.093209 0
M  V30 68 H -2.012683 -3.749728 -3.685635 0
M  V30 69 H -1.439239 -5.117202 -4.763333 0
M  V30 70 H -1.152575 -6.944339 -3.056110 0
M  V30 71 H -2.803662 -7.724691 -3.096718 0
M  V30 72 H -1.590383 -7.844292 -0.993563 0
M  V30 73 H -3.256862 -7.149387 -0.871334 0
M  V30 74 H -0.930180 -3.447191 0.583472 0
M  V30 END ATOM
M  V30 BEGIN BOND
M  V30 1 1 1 2
M  V30 2 2 2 3
M  V30 3 1 3 4
M  V30 4 2 4 5
M  V30 5 1 5 6
M  V30 6 1 6 7
M  V30 7 2 7 8
M  V30 8 1 7 9
M  V30 9 2 9 10
M  V30 10 1 10 11
M  V30 11 2 11 12
M  V30 12 1 12 13
M  V30 13 1 13 14
M  V30 14 1 14 15
M  V30 15 1 15 16
M  V30 16 1 16 17
M  V30 17 1 17 18
M  V30 18 1 18 19
M  V30 19 2 13 20
M  V30 20 1 5 21
M  V30 21 2 21 22
M  V30 22 1 22 23
M  V30 23 1 23 24
M  V30 24 2 24 25
M  V30 25 1 25 26
M  V30 26 2 26 27
M  V30 27 1 27 28
M  V30 28 2 28 29
M  V30 29 1 29 30
M  V30 30 1 30 31
M  V30 31 1 31 32
M  V30 32 1 32 33
M  V30 33 1 33 34
M  V30 34 1 33 35
M  V30 35 1 35 36
M  V30 36 1 29 37
M  V30 37 2 37 38
M  V30 38 1 38 39
M  V30 39 2 39 40
M  V30 40 1 22 2
M  V30 41 1 39 23
M  V30 42 1 20 9
M  V30 43 1 38 26
M  V30 44 1 19 14
M  V30 45 1 36 30
M  V30 46 1 1 41
M  V30 47 1 1 42
M  V30 48 1 1 43
M  V30 49 1 3 44
M  V30 50 1 4 45
M  V30 51 1 6 46
M  V30 52 1 10 47
M  V30 53 1 11 48
M  V30 54 1 12 49
M  V30 55 1 15 50
M  V30 56 1 15 51
M  V30 57 1 16 52
M  V30 58 1 16 53
M  V30 59 1 18 54
M  V30 60 1 18 55
M  V30 61 1 19 56
M  V30 62 1 19 57
M  V30 63 1 20 58
M  V30 64 1 21 59
M  V30 65 1 24 60
M  V30 66 1 27 61
M  V30 67 1 28 62
M  V30 68 1 31 63
M  V30 69 1 31 64
M  V30 70 1 32 65
M  V30 71 1 32 66
M  V30 72 1 34 67
M  V30 73 1 34 68
M  V30 74 1 34 69
M  V30 75 1 35 70
M  V30 76 1 35 71
M  V30 77 1 36 72
M  V30 78 1 36 73
M  V30 79 1 37 74
M  V30 END BOND
M  V30 END CTAB
M  END
>  <Dataset>  (475) 
ChEMBL_Kinases

>  <Ligand_Instance>  (475) 
nan

>  <PDB_ID>  (475) 
nan

>  <Standardized_SMILES>  (475) 
Cc1ccc(NC(=O)c2cccc(N3CCOCC3)c2)cc1-n1cnc2ccc(N3CCN(C)CC3)cc2c1=O

>  <Name>  (475) 
nan

>  <Pocket>  (475) 
nan

>  <ATP_Site>  (475) 
nan

>  <Peripheral>  (475) 
nan

>  <Num_H_Atoms_ProtBoundConf>  (475) 
nan

>  <Num_Resolved_Atoms>  (475) 
nan

>  <Num_Not_Resolved_Atoms>  (475) 
nan

$$$$
CHEMBL2031220
     RDKit          3D

  0  0  0  0  0  0  0  0  0  0999 V3000
M  V30 BEGIN CTAB
M  V30 COUNTS 76 81 0 0 0
M  V30 BEGIN ATOM
M  V30 1 C 0.191521 -4.310537 4.286388 0
M  V30 2 C 0.032188 -2.847173 4.086279 0
M  V30 3 C 0.405512 -2.007227 5.114834 0
M  V30 4 C 0.271701 -0.635909 4.964532 0
M  V30 5 C -0.239268 -0.156590 3.769449 0
M  V30 6 N -0.443156 1.236345 3.448059 0
M  V30 7 C 0.725397 1.733660 2.847832 0
M  V30 8 O 1.667729 0.915003 2.715349 0
M  V30 9 C 0.940949 3.095156 2.371076 0
M  V30 10 C 2.162109 3.387092 1.808848 0
M  V30 11 C 2.410171 4.677644 1.339813 0
M  V30 12 N 1.451119 5.608431 1.446992 0
M  V30 13 C 0.248898 5.353911 1.991032 0
M  V30 14 N -0.700795 6.405934 2.059086 0
M  V30 15 C -2.042940 6.375114 2.598640 0
M  V30 16 C -3.039343 6.784635 1.530092 0
M  V30 17 O -2.433834 7.236320 0.367972 0
M  V30 18 C -1.530771 8.247798 0.692196 0
M  V30 19 C -0.397690 7.729449 1.552153 0
M  V30 20 C -0.005510 4.094690 2.453582 0
M  V30 21 C -0.610153 -1.011016 2.744981 0
M  V30 22 C -0.477772 -2.394148 2.890223 0
M  V30 23 N -0.870392 -3.242059 1.814185 0
M  V30 24 C -2.042106 -3.922302 1.785009 0
M  V30 25 C -2.970664 -3.786219 2.924731 0
M  V30 26 N -2.357128 -4.705180 0.743636 0
M  V30 27 C -1.511464 -4.831102 -0.297664 0
M  V30 28 C -1.815879 -5.635225 -1.385649 0
M  V30 29 C -0.930435 -5.757200 -2.458805 0
M  V30 30 C 0.262686 -5.069309 -2.437287 0
M  V30 31 N 1.129098 -5.224104 -3.551420 0
M  V30 32 C 0.754341 -6.056399 -4.671587 0
M  V30 33 C 1.657896 -5.740894 -5.843872 0
M  V30 34 N 1.901368 -4.348017 -6.044939 0
M  V30 35 C 0.976490 -3.669915 -6.895341 0
M  V30 36 C 2.284045 -3.621670 -4.872200 0
M  V30 37 C 2.430237 -4.605113 -3.704806 0
M  V30 38 C 0.569495 -4.271034 -1.361591 0
M  V30 39 C -0.304963 -4.156977 -0.312718 0
M  V30 40 C 0.006548 -3.346472 0.779491 0
M  V30 41 O 1.087767 -2.720317 0.803985 0
M  V30 42 H 1.253610 -4.575357 4.516142 0
M  V30 43 H -0.376453 -4.553359 5.209828 0
M  V30 44 H -0.210753 -4.898631 3.453741 0
M  V30 45 H 0.804928 -2.372472 6.049873 0
M  V30 46 H 0.534448 0.110375 5.708801 0
M  V30 47 H -1.243757 1.910750 3.566922 0
M  V30 48 H 2.954090 2.656242 1.709454 0
M  V30 49 H 3.370058 4.898935 0.899723 0
M  V30 50 H -2.123841 7.116422 3.419308 0
M  V30 51 H -2.270369 5.378793 3.010309 0
M  V30 52 H -3.715135 7.589958 1.878167 0
M  V30 53 H -3.705954 5.916872 1.308146 0
M  V30 54 H -1.101715 8.614624 -0.261964 0
M  V30 55 H -2.111540 9.061633 1.172064 0
M  V30 56 H -0.281858 8.448760 2.386581 0
M  V30 57 H 0.553752 7.679586 0.998947 0
M  V30 58 H -0.953772 3.835968 2.899227 0
M  V30 59 H -1.018218 -0.659539 1.786099 0
M  V30 60 H -3.216985 -4.758177 3.396074 0
M  V30 61 H -3.902907 -3.318769 2.532023 0
M  V30 62 H -2.559029 -3.147325 3.712843 0
M  V30 63 H -2.766533 -6.134270 -1.319153 0
M  V30 64 H -1.293400 -6.403531 -3.216674 0
M  V30 65 H 0.999012 -7.100225 -4.384373 0
M  V30 66 H -0.312818 -5.992027 -4.948981 0
M  V30 67 H 2.562330 -6.348625 -5.827254 0
M  V30 68 H 1.082222 -6.091827 -6.750086 0
M  V30 69 H 0.399430 -2.868730 -6.382185 0
M  V30 70 H 1.563549 -3.174344 -7.718086 0
M  V30 71 H 0.315029 -4.421260 -7.367361 0
M  V30 72 H 1.480210 -2.919686 -4.600540 0
M  V30 73 H 3.257074 -3.075196 -5.018925 0
M  V30 74 H 2.800425 -4.089000 -2.820532 0
M  V30 75 H 3.141764 -5.378884 -4.088315 0
M  V30 76 H 1.482709 -3.726588 -1.314953 0
M  V30 END ATOM
M  V30 BEGIN BOND
M  V30 1 1 1 2
M  V30 2 2 2 3
M  V30 3 1 3 4
M  V30 4 2 4 5
M  V30 5 1 5 6
M  V30 6 1 6 7
M  V30 7 2 7 8
M  V30 8 1 7 9
M  V30 9 2 9 10
M  V30 10 1 10 11
M  V30 11 2 11 12
M  V30 12 1 12 13
M  V30 13 1 13 14
M  V30 14 1 14 15
M  V30 15 1 15 16
M  V30 16 1 16 17
M  V30 17 1 17 18
M  V30 18 1 18 19
M  V30 19 2 13 20
M  V30 20 1 5 21
M  V30 21 2 21 22
M  V30 22 1 22 23
M  V30 23 1 23 24
M  V30 24 1 24 25
M  V30 25 2 24 26
M  V30 26 1 26 27
M  V30 27 2 27 28
M  V30 28 1 28 29
M  V30 29 2 29 30
M  V30 30 1 30 31
M  V30 31 1 31 32
M  V30 32 1 32 33
M  V30 33 1 33 34
M  V30 34 1 34 35
M  V30 35 1 34 36
M  V30 36 1 36 37
M  V30 37 1 30 38
M  V30 38 2 38 39
M  V30 39 1 39 40
M  V30 40 2 40 41
M  V30 41 1 22 2
M  V30 42 1 40 23
M  V30 43 1 20 9
M  V30 44 1 39 27
M  V30 45 1 19 14
M  V30 46 1 37 31
M  V30 47 1 1 42
M  V30 48 1 1 43
M  V30 49 1 1 44
M  V30 50 1 3 45
M  V30 51 1 4 46
M  V30 52 1 6 47
M  V30 53 1 10 48
M  V30 54 1 11 49
M  V30 55 1 15 50
M  V30 56 1 15 51
M  V30 57 1 16 52
M  V30 58 1 16 53
M  V30 59 1 18 54
M  V30 60 1 18 55
M  V30 61 1 19 56
M  V30 62 1 19 57
M  V30 63 1 20 58
M  V30 64 1 21 59
M  V30 65 1 25 60
M  V30 66 1 25 61
M  V30 67 1 25 62
M  V30 68 1 28 63
M  V30 69 1 29 64
M  V30 70 1 32 65
M  V30 71 1 32 66
M  V30 72 1 33 67
M  V30 73 1 33 68
M  V30 74 1 35 69
M  V30 75 1 35 70
M  V30 76 1 35 71
M  V30 77 1 36 72
M  V30 78 1 36 73
M  V30 79 1 37 74
M  V30 80 1 37 75
M  V30 81 1 38 76
M  V30 END BOND
M  V30 END CTAB
M  END
>  <Dataset>  (476) 
ChEMBL_Kinases

>  <Ligand_Instance>  (476) 
nan

>  <PDB_ID>  (476) 
nan

>  <Standardized_SMILES>  (476) 
Cc1ccc(NC(=O)c2ccnc(N3CCOCC3)c2)cc1-n1c(C)nc2ccc(N3CCN(C)CC3)cc2c1=O

>  <Name>  (476) 
nan

>  <Pocket>  (476) 
nan

>  <ATP_Site>  (476) 
nan

>  <Peripheral>  (476) 
nan

>  <Num_H_Atoms_ProtBoundConf>  (476) 
nan

>  <Num_Resolved_Atoms>  (476) 
nan

>  <Num_Not_Resolved_Atoms>  (476) 
nan

$$$$
CHEMBL2031219
     RDKit          3D

  0  0  0  0  0  0  0  0  0  0999 V3000
M  V30 BEGIN CTAB
M  V30 COUNTS 73 78 0 0 0
M  V30 BEGIN ATOM
M  V30 1 C 3.198814 -0.160916 4.327935 0
M  V30 2 C 2.935105 0.302447 2.953242 0
M  V30 3 C 3.277730 1.615952 2.670220 0
M  V30 4 C 3.047574 2.101952 1.377369 0
M  V30 5 C 2.485691 1.285019 0.391876 0
M  V30 6 N 2.316028 1.921306 -0.868468 0
M  V30 7 C 3.039498 2.116433 -2.049587 0
M  V30 8 O 4.174368 1.628675 -2.118203 0
M  V30 9 C 2.472549 2.863120 -3.146731 0
M  V30 10 C 3.283908 2.969067 -4.254417 0
M  V30 11 C 2.799857 3.680602 -5.354183 0
M  V30 12 N 1.592504 4.242960 -5.341570 0
M  V30 13 C 0.765151 4.156342 -4.260753 0
M  V30 14 N -0.510935 4.771671 -4.293139 0
M  V30 15 C -1.519336 4.786915 -3.258054 0
M  V30 16 C -2.839323 4.288137 -3.797374 0
M  V30 17 O -2.736337 4.038704 -5.177183 0
M  V30 18 C -2.385533 5.251077 -5.773814 0
M  V30 19 C -0.923230 5.492977 -5.478978 0
M  V30 20 C 1.243868 3.454049 -3.176386 0
M  V30 21 C 2.154762 -0.020506 0.705910 0
M  V30 22 C 2.371663 -0.523692 1.973220 0
M  V30 23 N 2.036902 -1.838206 2.284776 0
M  V30 24 C 2.963882 -2.603131 2.892877 0
M  V30 25 N 2.655074 -3.876990 3.202146 0
M  V30 26 C 1.446470 -4.392238 2.915680 0
M  V30 27 C 1.107385 -5.687086 3.221270 0
M  V30 28 C -0.140108 -6.188126 2.916202 0
M  V30 29 C -1.102853 -5.426170 2.295295 0
M  V30 30 N -2.385631 -5.957214 1.993509 0
M  V30 31 C -2.843550 -7.281709 2.371553 0
M  V30 32 C -4.260156 -7.132462 2.873681 0
M  V30 33 N -4.524455 -5.807122 3.322583 0
M  V30 34 C -3.636730 -5.502339 4.421937 0
M  V30 35 C -4.388894 -4.776697 2.341146 0
M  V30 36 C -3.399584 -5.224220 1.257089 0
M  V30 37 C -0.798900 -4.122596 1.973436 0
M  V30 38 C 0.470245 -3.631585 2.290322 0
M  V30 39 C 0.807342 -2.324281 1.980583 0
M  V30 40 O 0.004290 -1.567481 1.422173 0
M  V30 41 H 2.978314 0.698603 5.029867 0
M  V30 42 H 2.565113 -0.964820 4.689704 0
M  V30 43 H 4.300466 -0.319494 4.509541 0
M  V30 44 H 3.720464 2.260112 3.444090 0
M  V30 45 H 3.323523 3.138692 1.175820 0
M  V30 46 H 1.338632 2.289525 -0.697025 0
M  V30 47 H 4.268385 2.550540 -4.354996 0
M  V30 48 H 3.400910 3.794508 -6.257674 0
M  V30 49 H -1.196174 4.207039 -2.376249 0
M  V30 50 H -1.658183 5.856386 -2.947248 0
M  V30 51 H -3.179243 3.356972 -3.298471 0
M  V30 52 H -3.643595 5.048537 -3.690190 0
M  V30 53 H -2.997254 6.069534 -5.339707 0
M  V30 54 H -2.492000 5.240020 -6.881613 0
M  V30 55 H -0.748495 6.572242 -5.269196 0
M  V30 56 H -0.290697 5.224567 -6.340513 0
M  V30 57 H 0.643129 3.348213 -2.291675 0
M  V30 58 H 1.716810 -0.612643 -0.108694 0
M  V30 59 H 3.963849 -2.280429 3.165211 0
M  V30 60 H 1.889832 -6.264771 3.711942 0
M  V30 61 H -0.280473 -7.198020 3.201058 0
M  V30 62 H -2.202039 -7.804878 3.085744 0
M  V30 63 H -2.880115 -7.930892 1.457250 0
M  V30 64 H -4.441193 -7.864540 3.700705 0
M  V30 65 H -4.956687 -7.342920 2.042269 0
M  V30 66 H -4.231180 -5.529608 5.358331 0
M  V30 67 H -2.844391 -6.271597 4.450416 0
M  V30 68 H -3.116718 -4.531748 4.282124 0
M  V30 69 H -5.392052 -4.586335 1.906970 0
M  V30 70 H -4.090171 -3.850628 2.834908 0
M  V30 71 H -3.986718 -5.891600 0.582524 0
M  V30 72 H -3.038244 -4.392785 0.664143 0
M  V30 73 H -1.458172 -3.446047 1.496572 0
M  V30 END ATOM
M  V30 BEGIN BOND
M  V30 1 1 1 2
M  V30 2 2 2 3
M  V30 3 1 3 4
M  V30 4 2 4 5
M  V30 5 1 5 6
M  V30 6 1 6 7
M  V30 7 2 7 8
M  V30 8 1 7 9
M  V30 9 2 9 10
M  V30 10 1 10 11
M  V30 11 2 11 12
M  V30 12 1 12 13
M  V30 13 1 13 14
M  V30 14 1 14 15
M  V30 15 1 15 16
M  V30 16 1 16 17
M  V30 17 1 17 18
M  V30 18 1 18 19
M  V30 19 2 13 20
M  V30 20 1 5 21
M  V30 21 2 21 22
M  V30 22 1 22 23
M  V30 23 1 23 24
M  V30 24 2 24 25
M  V30 25 1 25 26
M  V30 26 2 26 27
M  V30 27 1 27 28
M  V30 28 2 28 29
M  V30 29 1 29 30
M  V30 30 1 30 31
M  V30 31 1 31 32
M  V30 32 1 32 33
M  V30 33 1 33 34
M  V30 34 1 33 35
M  V30 35 1 35 36
M  V30 36 1 29 37
M  V30 37 2 37 38
M  V30 38 1 38 39
M  V30 39 2 39 40
M  V30 40 1 22 2
M  V30 41 1 39 23
M  V30 42 1 20 9
M  V30 43 1 38 26
M  V30 44 1 19 14
M  V30 45 1 36 30
M  V30 46 1 1 41
M  V30 47 1 1 42
M  V30 48 1 1 43
M  V30 49 1 3 44
M  V30 50 1 4 45
M  V30 51 1 6 46
M  V30 52 1 10 47
M  V30 53 1 11 48
M  V30 54 1 15 49
M  V30 55 1 15 50
M  V30 56 1 16 51
M  V30 57 1 16 52
M  V30 58 1 18 53
M  V30 59 1 18 54
M  V30 60 1 19 55
M  V30 61 1 19 56
M  V30 62 1 20 57
M  V30 63 1 21 58
M  V30 64 1 24 59
M  V30 65 1 27 60
M  V30 66 1 28 61
M  V30 67 1 31 62
M  V30 68 1 31 63
M  V30 69 1 32 64
M  V30 70 1 32 65
M  V30 71 1 34 66
M  V30 72 1 34 67
M  V30 73 1 34 68
M  V30 74 1 35 69
M  V30 75 1 35 70
M  V30 76 1 36 71
M  V30 77 1 36 72
M  V30 78 1 37 73
M  V30 END BOND
M  V30 END CTAB
M  END
>  <Dataset>  (477) 
ChEMBL_Kinases

>  <Ligand_Instance>  (477) 
nan

>  <PDB_ID>  (477) 
nan

>  <Standardized_SMILES>  (477) 
Cc1ccc(NC(=O)c2ccnc(N3CCOCC3)c2)cc1-n1cnc2ccc(N3CCN(C)CC3)cc2c1=O

>  <Name>  (477) 
nan

>  <Pocket>  (477) 
nan

>  <ATP_Site>  (477) 
nan

>  <Peripheral>  (477) 
nan

>  <Num_H_Atoms_ProtBoundConf>  (477) 
nan

>  <Num_Resolved_Atoms>  (477) 
nan

>  <Num_Not_Resolved_Atoms>  (477) 
nan

$$$$
CHEMBL2030993
     RDKit          3D

  0  0  0  0  0  0  0  0  0  0999 V3000
M  V30 BEGIN CTAB
M  V30 COUNTS 52 55 0 0 0
M  V30 BEGIN ATOM
M  V30 1 C 5.584060 -4.764118 2.604312 0
M  V30 2 C 5.061860 -4.652166 4.012643 0
M  V30 3 O 4.588621 -3.348739 4.218338 0
M  V30 4 C 3.556975 -2.868721 3.437251 0
M  V30 5 C 3.258466 -1.554408 3.816190 0
M  V30 6 C 2.241315 -0.849829 3.166208 0
M  V30 7 C 1.497391 -1.401572 2.141527 0
M  V30 8 N 0.476714 -0.679463 1.496838 0
M  V30 9 C 0.660002 0.151221 0.331963 0
M  V30 10 O 1.844238 0.139077 -0.022186 0
M  V30 11 C -0.607711 0.750019 -0.069724 0
M  V30 12 C -0.863006 2.001389 0.463901 0
M  V30 13 N -2.077108 2.397251 -0.017440 0
M  V30 14 C -2.859966 3.582853 0.177867 0
M  V30 15 C -2.527786 4.852232 -0.249302 0
M  V30 16 C -3.396908 5.902812 0.019075 0
M  V30 17 C -4.568440 5.636358 0.707852 0
M  V30 18 C -4.914386 4.373279 1.141287 0
M  V30 19 C -4.040567 3.331065 0.868621 0
M  V30 20 N -2.525955 1.445146 -0.792362 0
M  V30 21 C -1.675647 0.406396 -0.869183 0
M  V30 22 C -1.655878 -0.868241 -1.550327 0
M  V30 23 C -2.740827 -1.727121 -1.599381 0
M  V30 24 C -2.728698 -2.951060 -2.251364 0
M  V30 25 C -1.549632 -3.296124 -2.874295 0
M  V30 26 N -1.510173 -4.546987 -3.550875 0 CHG=1 VAL=4
M  V30 27 O -0.501638 -4.968516 -4.150933 0
M  V30 28 O -2.577441 -5.437993 -3.624057 0 CHG=-1 VAL=1
M  V30 29 C -0.416254 -2.508287 -2.880824 0
M  V30 30 C -0.530300 -1.309581 -2.204235 0
M  V30 31 C 1.821388 -2.702556 1.794647 0
M  V30 32 C 2.817909 -3.422033 2.416841 0
M  V30 33 H 6.694487 -4.970008 2.670197 0
M  V30 34 H 5.161925 -5.659503 2.064762 0
M  V30 35 H 5.425065 -3.815495 2.065901 0
M  V30 36 H 4.160831 -5.328173 4.092859 0
M  V30 37 H 5.821694 -4.916790 4.773018 0
M  V30 38 H 3.731713 -0.960438 4.591830 0
M  V30 39 H 1.972030 0.172924 3.425090 0
M  V30 40 H -0.365017 -0.922388 2.083196 0
M  V30 41 H -0.343919 2.694911 1.138608 0
M  V30 42 H -1.583234 4.909759 -0.773920 0
M  V30 43 H -3.098616 6.867779 -0.330206 0
M  V30 44 H -5.220778 6.493726 0.895837 0
M  V30 45 H -5.836819 4.185149 1.679369 0
M  V30 46 H -4.348713 2.357757 1.225071 0
M  V30 47 H -3.651569 -1.406832 -1.089342 0
M  V30 48 H -3.576543 -3.609239 -2.283181 0
M  V30 49 H 0.501629 -2.796776 -3.375840 0
M  V30 50 H 0.359301 -0.671831 -2.199574 0
M  V30 51 H 1.297537 -3.205600 1.013745 0
M  V30 52 H 3.122717 -4.427058 2.207396 0
M  V30 END ATOM
M  V30 BEGIN BOND
M  V30 1 1 1 2
M  V30 2 1 2 3
M  V30 3 1 3 4
M  V30 4 2 4 5
M  V30 5 1 5 6
M  V30 6 2 6 7
M  V30 7 1 7 8
M  V30 8 1 8 9
M  V30 9 2 9 10
M  V30 10 1 9 11
M  V30 11 2 11 12
M  V30 12 1 12 13
M  V30 13 1 13 14
M  V30 14 2 14 15
M  V30 15 1 15 16
M  V30 16 2 16 17
M  V30 17 1 17 18
M  V30 18 2 18 19
M  V30 19 1 13 20
M  V30 20 2 20 21
M  V30 21 1 21 22
M  V30 22 2 22 23
M  V30 23 1 23 24
M  V30 24 2 24 25
M  V30 25 1 25 26
M  V30 26 2 26 27
M  V30 27 1 26 28
M  V30 28 1 25 29
M  V30 29 2 29 30
M  V30 30 1 7 31
M  V30 31 2 31 32
M  V30 32 1 32 4
M  V30 33 1 21 11
M  V30 34 1 30 22
M  V30 35 1 19 14
M  V30 36 1 1 33
M  V30 37 1 1 34
M  V30 38 1 1 35
M  V30 39 1 2 36
M  V30 40 1 2 37
M  V30 41 1 5 38
M  V30 42 1 6 39
M  V30 43 1 8 40
M  V30 44 1 12 41
M  V30 45 1 15 42
M  V30 46 1 16 43
M  V30 47 1 17 44
M  V30 48 1 18 45
M  V30 49 1 19 46
M  V30 50 1 23 47
M  V30 51 1 24 48
M  V30 52 1 29 49
M  V30 53 1 30 50
M  V30 54 1 31 51
M  V30 55 1 32 52
M  V30 END BOND
M  V30 END CTAB
M  END
>  <Dataset>  (478) 
ChEMBL_Kinases

>  <Ligand_Instance>  (478) 
nan

>  <PDB_ID>  (478) 
nan

>  <Standardized_SMILES>  (478) 
CCOc1ccc(NC(=O)c2cn(-c3ccccc3)nc2-c2ccc([N+](=O)[O-])cc2)cc1

>  <Name>  (478) 
nan

>  <Pocket>  (478) 
nan

>  <ATP_Site>  (478) 
nan

>  <Peripheral>  (478) 
nan

>  <Num_H_Atoms_ProtBoundConf>  (478) 
nan

>  <Num_Resolved_Atoms>  (478) 
nan

>  <Num_Not_Resolved_Atoms>  (478) 
nan

$$$$
CHEMBL2030992
     RDKit          3D

  0  0  0  0  0  0  0  0  0  0999 V3000
M  V30 BEGIN CTAB
M  V30 COUNTS 49 52 0 0 0
M  V30 BEGIN ATOM
M  V30 1 C 2.329951 -6.835227 1.442012 0
M  V30 2 O 1.304364 -6.426462 0.555861 0
M  V30 3 C 1.255061 -5.127642 0.007642 0
M  V30 4 C 2.308975 -4.348200 0.415601 0
M  V30 5 C 2.416118 -3.059092 -0.019744 0
M  V30 6 C 1.396307 -2.647272 -0.871739 0
M  V30 7 N 1.351028 -1.309073 -1.463407 0
M  V30 8 C 0.769452 -0.753590 -0.226482 0
M  V30 9 O 0.577583 -1.616013 0.738796 0
M  V30 10 C 0.278544 0.514116 0.393930 0
M  V30 11 C 1.201507 1.461179 0.856967 0
M  V30 12 N 0.423280 2.467662 1.332886 0
M  V30 13 C 1.031347 3.625791 1.904293 0
M  V30 14 C 1.081975 4.933877 1.518931 0
M  V30 15 C 1.751161 5.874757 2.266353 0
M  V30 16 C 2.408266 5.533752 3.452274 0
M  V30 17 C 2.362412 4.206010 3.851495 0
M  V30 18 C 1.684042 3.253813 3.091694 0
M  V30 19 N -0.828001 2.147965 1.167445 0
M  V30 20 C -1.007744 0.951070 0.592136 0
M  V30 21 C -2.113659 0.104263 0.174966 0
M  V30 22 C -2.214939 -0.601277 -1.004607 0
M  V30 23 C -3.353371 -1.370147 -1.272758 0
M  V30 24 C -4.394897 -1.432232 -0.355846 0
M  V30 25 N -5.567602 -2.220608 -0.636885 0 CHG=1 VAL=4
M  V30 26 O -5.650597 -2.864046 -1.700356 0
M  V30 27 O -6.570844 -2.243958 0.284543 0 CHG=-1 VAL=1
M  V30 28 C -4.348391 -0.746544 0.842763 0
M  V30 29 C -3.189721 0.008471 1.066375 0
M  V30 30 C 0.351275 -3.442623 -1.267367 0
M  V30 31 C 0.236891 -4.745912 -0.833041 0
M  V30 32 H 1.993102 -7.783548 1.910344 0
M  V30 33 H 3.263957 -7.029610 0.911130 0
M  V30 34 H 2.437049 -6.112891 2.290659 0
M  V30 35 H 3.110645 -4.650514 1.077220 0
M  V30 36 H 3.141419 -2.288544 0.169139 0
M  V30 37 H 1.280105 -0.345058 -1.753644 0
M  V30 38 H 2.276659 1.397026 0.837665 0
M  V30 39 H 0.544234 5.094741 0.596582 0
M  V30 40 H 1.744349 6.898869 1.892446 0
M  V30 41 H 2.925179 6.292982 4.022340 0
M  V30 42 H 2.896453 4.020218 4.780386 0
M  V30 43 H 1.776976 2.295103 3.576820 0
M  V30 44 H -1.375266 -0.508613 -1.673700 0
M  V30 45 H -3.409665 -1.916971 -2.204241 0
M  V30 46 H -5.137075 -0.787299 1.549814 0
M  V30 47 H -3.162998 0.540419 2.009479 0
M  V30 48 H -0.439391 -3.100356 -1.945577 0
M  V30 49 H -0.552603 -5.416215 -1.105996 0
M  V30 END ATOM
M  V30 BEGIN BOND
M  V30 1 1 1 2
M  V30 2 1 2 3
M  V30 3 2 3 4
M  V30 4 1 4 5
M  V30 5 2 5 6
M  V30 6 1 6 7
M  V30 7 1 7 8
M  V30 8 2 8 9
M  V30 9 1 8 10
M  V30 10 2 10 11
M  V30 11 1 11 12
M  V30 12 1 12 13
M  V30 13 2 13 14
M  V30 14 1 14 15
M  V30 15 2 15 16
M  V30 16 1 16 17
M  V30 17 2 17 18
M  V30 18 1 12 19
M  V30 19 2 19 20
M  V30 20 1 20 21
M  V30 21 2 21 22
M  V30 22 1 22 23
M  V30 23 2 23 24
M  V30 24 1 24 25
M  V30 25 2 25 26
M  V30 26 1 25 27
M  V30 27 1 24 28
M  V30 28 2 28 29
M  V30 29 1 6 30
M  V30 30 2 30 31
M  V30 31 1 31 3
M  V30 32 1 20 10
M  V30 33 1 29 21
M  V30 34 1 18 13
M  V30 35 1 1 32
M  V30 36 1 1 33
M  V30 37 1 1 34
M  V30 38 1 4 35
M  V30 39 1 5 36
M  V30 40 1 7 37
M  V30 41 1 11 38
M  V30 42 1 14 39
M  V30 43 1 15 40
M  V30 44 1 16 41
M  V30 45 1 17 42
M  V30 46 1 18 43
M  V30 47 1 22 44
M  V30 48 1 23 45
M  V30 49 1 28 46
M  V30 50 1 29 47
M  V30 51 1 30 48
M  V30 52 1 31 49
M  V30 END BOND
M  V30 END CTAB
M  END
>  <Dataset>  (479) 
ChEMBL_Kinases

>  <Ligand_Instance>  (479) 
nan

>  <PDB_ID>  (479) 
nan

>  <Standardized_SMILES>  (479) 
COc1ccc(NC(=O)c2cn(-c3ccccc3)nc2-c2ccc([N+](=O)[O-])cc2)cc1

>  <Name>  (479) 
nan

>  <Pocket>  (479) 
nan

>  <ATP_Site>  (479) 
nan

>  <Peripheral>  (479) 
nan

>  <Num_H_Atoms_ProtBoundConf>  (479) 
nan

>  <Num_Resolved_Atoms>  (479) 
nan

>  <Num_Not_Resolved_Atoms>  (479) 
nan

$$$$
CHEMBL2030991
     RDKit          3D

  0  0  0  0  0  0  0  0  0  0999 V3000
M  V30 BEGIN CTAB
M  V30 COUNTS 45 48 0 0 0
M  V30 BEGIN ATOM
M  V30 1 O 2.358223 -0.093598 0.248071 0
M  V30 2 C 1.176072 -0.096832 -0.254543 0
M  V30 3 N 1.162309 -0.250542 -1.653709 0
M  V30 4 C 2.550408 -0.352522 -2.039178 0
M  V30 5 C 3.039944 0.912429 -2.375803 0
M  V30 6 C 4.377714 1.015738 -2.761809 0
M  V30 7 C 5.131750 -0.136072 -2.786928 0
M  V30 8 Br 6.987161 -0.129617 -3.297994 0
M  V30 9 C 4.634497 -1.376582 -2.452147 0
M  V30 10 C 3.307604 -1.503171 -2.065443 0
M  V30 11 C 0.213864 0.063362 0.818368 0
M  V30 12 C 0.115374 1.162107 1.647397 0
M  V30 13 N -0.900502 0.910414 2.519776 0
M  V30 14 C -1.152151 1.957497 3.479083 0
M  V30 15 C -2.315449 2.655678 3.484348 0
M  V30 16 C -2.433273 3.650681 4.461526 0
M  V30 17 C -1.401268 3.886674 5.361716 0
M  V30 18 C -0.219553 3.155285 5.333717 0
M  V30 19 C -0.128955 2.194035 4.374618 0
M  V30 20 N -1.418737 -0.278207 2.260567 0
M  V30 21 C -0.751185 -0.836603 1.207545 0
M  V30 22 C -1.159440 -2.154419 0.762275 0
M  V30 23 C -1.354812 -3.140411 1.738999 0
M  V30 24 C -1.750083 -4.448961 1.536254 0
M  V30 25 C -1.971551 -4.806318 0.219363 0
M  V30 26 N -2.377614 -6.142832 -0.026638 0 CHG=1 VAL=4
M  V30 27 O -2.546584 -6.992175 0.839821 0
M  V30 28 O -2.660894 -6.769913 -1.205156 0 CHG=-1 VAL=1
M  V30 29 C -1.802966 -3.903227 -0.789055 0
M  V30 30 C -1.409384 -2.623545 -0.506142 0
M  V30 31 H 0.184683 -0.249065 -2.014165 0
M  V30 32 H 2.504711 1.831167 -2.374401 0
M  V30 33 H 4.931060 1.902325 -3.056984 0
M  V30 34 H 5.226860 -2.278870 -2.472228 0
M  V30 35 H 2.801118 -2.414926 -1.780445 0
M  V30 36 H 0.785763 2.029409 1.536490 0
M  V30 37 H -3.046496 2.397441 2.751005 0
M  V30 38 H -3.356682 4.214826 4.474558 0
M  V30 39 H -1.532060 4.674029 6.110405 0
M  V30 40 H 0.513959 3.420285 6.074205 0
M  V30 41 H 0.825712 1.641999 4.393191 0
M  V30 42 H -1.182454 -2.867079 2.778032 0
M  V30 43 H -1.870024 -5.122530 2.354020 0
M  V30 44 H -1.975118 -4.167300 -1.839810 0
M  V30 45 H -1.282715 -1.913070 -1.292625 0
M  V30 END ATOM
M  V30 BEGIN BOND
M  V30 1 2 1 2
M  V30 2 1 2 3
M  V30 3 1 3 4
M  V30 4 2 4 5
M  V30 5 1 5 6
M  V30 6 2 6 7
M  V30 7 1 7 8
M  V30 8 1 7 9
M  V30 9 2 9 10
M  V30 10 1 2 11
M  V30 11 2 11 12
M  V30 12 1 12 13
M  V30 13 1 13 14
M  V30 14 2 14 15
M  V30 15 1 15 16
M  V30 16 2 16 17
M  V30 17 1 17 18
M  V30 18 2 18 19
M  V30 19 1 13 20
M  V30 20 2 20 21
M  V30 21 1 21 22
M  V30 22 2 22 23
M  V30 23 1 23 24
M  V30 24 2 24 25
M  V30 25 1 25 26
M  V30 26 2 26 27
M  V30 27 1 26 28
M  V30 28 1 25 29
M  V30 29 2 29 30
M  V30 30 1 10 4
M  V30 31 1 21 11
M  V30 32 1 30 22
M  V30 33 1 19 14
M  V30 34 1 3 31
M  V30 35 1 5 32
M  V30 36 1 6 33
M  V30 37 1 9 34
M  V30 38 1 10 35
M  V30 39 1 12 36
M  V30 40 1 15 37
M  V30 41 1 16 38
M  V30 42 1 17 39
M  V30 43 1 18 40
M  V30 44 1 19 41
M  V30 45 1 23 42
M  V30 46 1 24 43
M  V30 47 1 29 44
M  V30 48 1 30 45
M  V30 END BOND
M  V30 END CTAB
M  END
>  <Dataset>  (480) 
ChEMBL_Kinases

>  <Ligand_Instance>  (480) 
nan

>  <PDB_ID>  (480) 
nan

>  <Standardized_SMILES>  (480) 
O=C(Nc1ccc(Br)cc1)c1cn(-c2ccccc2)nc1-c1ccc([N+](=O)[O-])cc1

>  <Name>  (480) 
nan

>  <Pocket>  (480) 
nan

>  <ATP_Site>  (480) 
nan

>  <Peripheral>  (480) 
nan

>  <Num_H_Atoms_ProtBoundConf>  (480) 
nan

>  <Num_Resolved_Atoms>  (480) 
nan

>  <Num_Not_Resolved_Atoms>  (480) 
nan

$$$$
CHEMBL2030990
     RDKit          3D

  0  0  0  0  0  0  0  0  0  0999 V3000
M  V30 BEGIN CTAB
M  V30 COUNTS 45 48 0 0 0
M  V30 BEGIN ATOM
M  V30 1 O 2.397546 0.852297 1.166530 0
M  V30 2 C 1.648393 -0.100762 0.682346 0
M  V30 3 N 2.515631 -1.008714 0.094850 0
M  V30 4 C 3.874457 -0.560254 0.228964 0
M  V30 5 C 4.818428 -0.731468 1.206749 0
M  V30 6 C 6.074461 -0.189772 1.040969 0
M  V30 7 C 6.351539 0.516493 -0.110620 0
M  V30 8 Cl 7.965441 1.160779 -0.240044 0
M  V30 9 C 5.433147 0.714237 -1.119572 0
M  V30 10 C 4.164093 0.156719 -0.934607 0
M  V30 11 C 0.250318 0.165187 0.947350 0
M  V30 12 C -0.368781 1.354545 1.238266 0
M  V30 13 N -1.650080 1.016426 1.359691 0
M  V30 14 C -2.686335 1.960012 1.667676 0
M  V30 15 C -3.690418 2.186094 0.746481 0
M  V30 16 C -4.693539 3.103015 1.051130 0
M  V30 17 C -4.666935 3.764893 2.258805 0
M  V30 18 C -3.638532 3.489506 3.123387 0
M  V30 19 C -2.616536 2.605623 2.901718 0
M  V30 20 N -1.857431 -0.285032 1.162791 0
M  V30 21 C -0.629839 -0.855343 0.894265 0
M  V30 22 C -0.733984 -2.284674 0.619808 0
M  V30 23 C 0.086734 -3.155219 1.301131 0
M  V30 24 C 0.031732 -4.520872 1.037339 0
M  V30 25 C -0.869744 -4.927813 0.083037 0
M  V30 26 N -0.897673 -6.322832 -0.148625 0 CHG=1 VAL=4
M  V30 27 O -1.533246 -7.114471 -0.870219 0
M  V30 28 O -0.196180 -7.361370 0.356673 0 CHG=-1 VAL=1
M  V30 29 C -1.716229 -4.088725 -0.625519 0
M  V30 30 C -1.637811 -2.747442 -0.344924 0
M  V30 31 H 1.940639 -1.768282 -0.271395 0
M  V30 32 H 4.391635 -1.317928 2.033379 0
M  V30 33 H 6.734972 -0.383915 1.870381 0
M  V30 34 H 5.756838 1.290638 -1.989585 0
M  V30 35 H 3.530876 0.380394 -1.797268 0
M  V30 36 H 0.140197 2.296380 1.327949 0
M  V30 37 H -3.676772 1.633070 -0.213269 0
M  V30 38 H -5.474681 3.275104 0.336500 0
M  V30 39 H -5.442626 4.488679 2.523592 0
M  V30 40 H -3.606227 4.008618 4.094753 0
M  V30 41 H -1.808843 2.400177 3.600560 0
M  V30 42 H 0.803798 -2.824644 2.064477 0
M  V30 43 H 0.688745 -5.170796 1.588495 0
M  V30 44 H -2.423547 -4.466944 -1.383290 0
M  V30 45 H -2.254800 -2.004620 -0.840960 0
M  V30 END ATOM
M  V30 BEGIN BOND
M  V30 1 2 1 2
M  V30 2 1 2 3
M  V30 3 1 3 4
M  V30 4 2 4 5
M  V30 5 1 5 6
M  V30 6 2 6 7
M  V30 7 1 7 8
M  V30 8 1 7 9
M  V30 9 2 9 10
M  V30 10 1 2 11
M  V30 11 2 11 12
M  V30 12 1 12 13
M  V30 13 1 13 14
M  V30 14 2 14 15
M  V30 15 1 15 16
M  V30 16 2 16 17
M  V30 17 1 17 18
M  V30 18 2 18 19
M  V30 19 1 13 20
M  V30 20 2 20 21
M  V30 21 1 21 22
M  V30 22 2 22 23
M  V30 23 1 23 24
M  V30 24 2 24 25
M  V30 25 1 25 26
M  V30 26 2 26 27
M  V30 27 1 26 28
M  V30 28 1 25 29
M  V30 29 2 29 30
M  V30 30 1 10 4
M  V30 31 1 21 11
M  V30 32 1 30 22
M  V30 33 1 19 14
M  V30 34 1 3 31
M  V30 35 1 5 32
M  V30 36 1 6 33
M  V30 37 1 9 34
M  V30 38 1 10 35
M  V30 39 1 12 36
M  V30 40 1 15 37
M  V30 41 1 16 38
M  V30 42 1 17 39
M  V30 43 1 18 40
M  V30 44 1 19 41
M  V30 45 1 23 42
M  V30 46 1 24 43
M  V30 47 1 29 44
M  V30 48 1 30 45
M  V30 END BOND
M  V30 END CTAB
M  END
>  <Dataset>  (481) 
ChEMBL_Kinases

>  <Ligand_Instance>  (481) 
nan

>  <PDB_ID>  (481) 
nan

>  <Standardized_SMILES>  (481) 
O=C(Nc1ccc(Cl)cc1)c1cn(-c2ccccc2)nc1-c1ccc([N+](=O)[O-])cc1

>  <Name>  (481) 
nan

>  <Pocket>  (481) 
nan

>  <ATP_Site>  (481) 
nan

>  <Peripheral>  (481) 
nan

>  <Num_H_Atoms_ProtBoundConf>  (481) 
nan

>  <Num_Resolved_Atoms>  (481) 
nan

>  <Num_Not_Resolved_Atoms>  (481) 
nan

$$$$
CHEMBL2030989
     RDKit          3D

  0  0  0  0  0  0  0  0  0  0999 V3000
M  V30 BEGIN CTAB
M  V30 COUNTS 45 48 0 0 0
M  V30 BEGIN ATOM
M  V30 1 O 2.851161 -1.521579 0.312776 0
M  V30 2 C 1.737666 -1.136944 -0.129530 0
M  V30 3 N 1.348057 -0.479998 -1.362010 0
M  V30 4 C 2.415044 -0.001942 -2.262479 0
M  V30 5 C 1.739310 1.051111 -2.914559 0
M  V30 6 C 2.555190 1.938852 -3.538858 0
M  V30 7 C 3.939023 1.747196 -3.480604 0
M  V30 8 C 4.433184 0.614185 -2.783280 0
M  V30 9 C 3.673056 -0.355043 -2.122613 0
M  V30 10 C 0.584986 -1.315436 0.710280 0
M  V30 11 C 0.731027 -0.021257 1.427286 0
M  V30 12 N -0.140253 0.384877 2.393105 0
M  V30 13 C -0.115887 1.608584 3.164499 0
M  V30 14 C -1.283713 1.985215 3.633341 0
M  V30 15 C -1.311447 3.221987 4.349703 0
M  V30 16 C -0.183751 3.939339 4.505679 0
M  V30 17 C 1.007639 3.482050 3.985338 0
M  V30 18 C 1.028531 2.301582 3.312039 0
M  V30 19 N -0.919614 -0.655667 2.368767 0
M  V30 20 C -0.501132 -1.519510 1.468175 0
M  V30 21 C -1.236228 -2.769346 1.256824 0
M  V30 22 C -0.993666 -3.731648 2.220569 0
M  V30 23 C -1.770214 -4.855652 2.145317 0
M  V30 24 C -2.726715 -4.981520 1.160594 0
M  V30 25 N -3.500801 -6.191011 1.200456 0 CHG=1 VAL=4
M  V30 26 O -4.458710 -6.489898 0.448923 0
M  V30 27 O -3.343735 -7.229528 2.132295 0 CHG=-1 VAL=1
M  V30 28 C -2.950897 -4.024690 0.210414 0
M  V30 29 C -2.176022 -2.865979 0.250081 0
M  V30 30 H 0.295502 -0.520100 -1.489297 0
M  V30 31 H 0.683268 1.368886 -3.018237 0
M  V30 32 H 2.281494 2.811503 -4.098189 0
M  V30 33 H 4.625692 2.416739 -3.933266 0
M  V30 34 H 5.545113 0.475893 -2.719523 0
M  V30 35 H 3.990154 -1.196409 -1.580859 0
M  V30 36 H 1.504695 0.806841 1.309030 0
M  V30 37 H -2.165753 1.423745 3.536611 0
M  V30 38 H -2.235151 3.560758 4.724763 0
M  V30 39 H -0.160085 4.919317 5.045591 0
M  V30 40 H 1.891161 4.056859 4.111225 0
M  V30 41 H 2.007599 1.982716 2.907017 0
M  V30 42 H -0.227237 -3.617569 3.008055 0
M  V30 43 H -1.598682 -5.670407 2.872952 0
M  V30 44 H -3.698463 -4.202254 -0.527807 0
M  V30 45 H -2.341562 -2.117854 -0.490450 0
M  V30 END ATOM
M  V30 BEGIN BOND
M  V30 1 2 1 2
M  V30 2 1 2 3
M  V30 3 1 3 4
M  V30 4 2 4 5
M  V30 5 1 5 6
M  V30 6 2 6 7
M  V30 7 1 7 8
M  V30 8 2 8 9
M  V30 9 1 2 10
M  V30 10 2 10 11
M  V30 11 1 11 12
M  V30 12 1 12 13
M  V30 13 2 13 14
M  V30 14 1 14 15
M  V30 15 2 15 16
M  V30 16 1 16 17
M  V30 17 2 17 18
M  V30 18 1 12 19
M  V30 19 2 19 20
M  V30 20 1 20 21
M  V30 21 2 21 22
M  V30 22 1 22 23
M  V30 23 2 23 24
M  V30 24 1 24 25
M  V30 25 2 25 26
M  V30 26 1 25 27
M  V30 27 1 24 28
M  V30 28 2 28 29
M  V30 29 1 9 4
M  V30 30 1 20 10
M  V30 31 1 29 21
M  V30 32 1 18 13
M  V30 33 1 3 30
M  V30 34 1 5 31
M  V30 35 1 6 32
M  V30 36 1 7 33
M  V30 37 1 8 34
M  V30 38 1 9 35
M  V30 39 1 11 36
M  V30 40 1 14 37
M  V30 41 1 15 38
M  V30 42 1 16 39
M  V30 43 1 17 40
M  V30 44 1 18 41
M  V30 45 1 22 42
M  V30 46 1 23 43
M  V30 47 1 28 44
M  V30 48 1 29 45
M  V30 END BOND
M  V30 END CTAB
M  END
>  <Dataset>  (482) 
ChEMBL_Kinases

>  <Ligand_Instance>  (482) 
nan

>  <PDB_ID>  (482) 
nan

>  <Standardized_SMILES>  (482) 
O=C(Nc1ccccc1)c1cn(-c2ccccc2)nc1-c1ccc([N+](=O)[O-])cc1

>  <Name>  (482) 
nan

>  <Pocket>  (482) 
nan

>  <ATP_Site>  (482) 
nan

>  <Peripheral>  (482) 
nan

>  <Num_H_Atoms_ProtBoundConf>  (482) 
nan

>  <Num_Resolved_Atoms>  (482) 
nan

>  <Num_Not_Resolved_Atoms>  (482) 
nan

$$$$
CHEMBL2030988
     RDKit          3D

  0  0  0  0  0  0  0  0  0  0999 V3000
M  V30 BEGIN CTAB
M  V30 COUNTS 50 53 0 0 0
M  V30 BEGIN ATOM
M  V30 1 C -7.050369 -2.367835 -2.433549 0
M  V30 2 C -6.498711 -3.376854 -3.411652 0
M  V30 3 O -5.255242 -2.982481 -3.944872 0
M  V30 4 C -4.111133 -2.743142 -3.224121 0
M  V30 5 C -3.035484 -2.366584 -4.032249 0
M  V30 6 C -1.800657 -2.089010 -3.442960 0
M  V30 7 C -1.720149 -2.207069 -2.069344 0
M  V30 8 N -0.417647 -1.906196 -1.527594 0
M  V30 9 C -0.403288 -0.507432 -1.239097 0
M  V30 10 O -1.470948 0.125537 -1.505112 0
M  V30 11 C 0.682025 0.291009 -0.676735 0
M  V30 12 C 0.999187 1.584033 -1.094363 0
M  V30 13 N 2.045803 1.990375 -0.351194 0
M  V30 14 C 2.625680 3.282079 -0.524953 0
M  V30 15 C 3.963054 3.596959 -0.651636 0
M  V30 16 C 4.364969 4.907096 -0.814327 0
M  V30 17 C 3.449366 5.939445 -0.855544 0
M  V30 18 C 2.098640 5.683593 -0.733934 0
M  V30 19 C 1.723154 4.352706 -0.570996 0
M  V30 20 N 2.384904 1.032434 0.488250 0
M  V30 21 C 1.569824 -0.042403 0.326172 0
M  V30 22 C 1.606875 -1.305319 1.053773 0
M  V30 23 C 0.530091 -1.987026 1.580881 0
M  V30 24 C 0.724182 -3.172309 2.244136 0
M  V30 25 C 2.003385 -3.685154 2.384632 0
M  V30 26 Cl 2.159722 -5.199050 3.242686 0
M  V30 27 C 3.102276 -3.025426 1.867557 0
M  V30 28 C 2.887932 -1.834789 1.203685 0
M  V30 29 C -2.757642 -2.575505 -1.238629 0
M  V30 30 C -3.964604 -2.842890 -1.852890 0
M  V30 31 H -7.270034 -2.878322 -1.476278 0
M  V30 32 H -7.998662 -1.918894 -2.785908 0
M  V30 33 H -6.351812 -1.533331 -2.249053 0
M  V30 34 H -7.216793 -3.470656 -4.240457 0
M  V30 35 H -6.420138 -4.379329 -2.937906 0
M  V30 36 H -3.080015 -2.268367 -5.114880 0
M  V30 37 H -0.965166 -1.798044 -4.056585 0
M  V30 38 H 0.486992 -2.389632 -1.291592 0
M  V30 39 H 0.469741 2.129756 -1.883126 0
M  V30 40 H 4.628281 2.729191 -0.609703 0
M  V30 41 H 5.434756 5.093014 -0.909077 0
M  V30 42 H 3.770350 6.967716 -0.983619 0
M  V30 43 H 1.341120 6.447479 -0.758688 0
M  V30 44 H 0.643803 4.165739 -0.475387 0
M  V30 45 H -0.427630 -1.519447 1.427242 0
M  V30 46 H -0.155464 -3.657048 2.632985 0
M  V30 47 H 4.061503 -3.493599 2.021277 0
M  V30 48 H 3.775160 -1.350977 0.814555 0
M  V30 49 H -2.636307 -2.650999 -0.173206 0
M  V30 50 H -4.840189 -3.139297 -1.295128 0
M  V30 END ATOM
M  V30 BEGIN BOND
M  V30 1 1 1 2
M  V30 2 1 2 3
M  V30 3 1 3 4
M  V30 4 2 4 5
M  V30 5 1 5 6
M  V30 6 2 6 7
M  V30 7 1 7 8
M  V30 8 1 8 9
M  V30 9 2 9 10
M  V30 10 1 9 11
M  V30 11 2 11 12
M  V30 12 1 12 13
M  V30 13 1 13 14
M  V30 14 2 14 15
M  V30 15 1 15 16
M  V30 16 2 16 17
M  V30 17 1 17 18
M  V30 18 2 18 19
M  V30 19 1 13 20
M  V30 20 2 20 21
M  V30 21 1 21 22
M  V30 22 2 22 23
M  V30 23 1 23 24
M  V30 24 2 24 25
M  V30 25 1 25 26
M  V30 26 1 25 27
M  V30 27 2 27 28
M  V30 28 1 7 29
M  V30 29 2 29 30
M  V30 30 1 30 4
M  V30 31 1 21 11
M  V30 32 1 28 22
M  V30 33 1 19 14
M  V30 34 1 1 31
M  V30 35 1 1 32
M  V30 36 1 1 33
M  V30 37 1 2 34
M  V30 38 1 2 35
M  V30 39 1 5 36
M  V30 40 1 6 37
M  V30 41 1 8 38
M  V30 42 1 12 39
M  V30 43 1 15 40
M  V30 44 1 16 41
M  V30 45 1 17 42
M  V30 46 1 18 43
M  V30 47 1 19 44
M  V30 48 1 23 45
M  V30 49 1 24 46
M  V30 50 1 27 47
M  V30 51 1 28 48
M  V30 52 1 29 49
M  V30 53 1 30 50
M  V30 END BOND
M  V30 END CTAB
M  END
>  <Dataset>  (483) 
ChEMBL_Kinases

>  <Ligand_Instance>  (483) 
nan

>  <PDB_ID>  (483) 
nan

>  <Standardized_SMILES>  (483) 
CCOc1ccc(NC(=O)c2cn(-c3ccccc3)nc2-c2ccc(Cl)cc2)cc1

>  <Name>  (483) 
nan

>  <Pocket>  (483) 
nan

>  <ATP_Site>  (483) 
nan

>  <Peripheral>  (483) 
nan

>  <Num_H_Atoms_ProtBoundConf>  (483) 
nan

>  <Num_Resolved_Atoms>  (483) 
nan

>  <Num_Not_Resolved_Atoms>  (483) 
nan

$$$$
CHEMBL2030987
     RDKit          3D

  0  0  0  0  0  0  0  0  0  0999 V3000
M  V30 BEGIN CTAB
M  V30 COUNTS 47 50 0 0 0
M  V30 BEGIN ATOM
M  V30 1 C -0.930079 -5.216991 6.641203 0
M  V30 2 O 0.028634 -5.438955 5.595502 0
M  V30 3 C 0.094140 -4.465639 4.602003 0
M  V30 4 C -0.737872 -3.370517 4.665594 0
M  V30 5 C -0.693266 -2.395948 3.698237 0
M  V30 6 C 0.167332 -2.445304 2.622205 0
M  V30 7 N 0.163724 -1.412016 1.666457 0
M  V30 8 C 0.951394 -1.195056 0.487917 0
M  V30 9 O 1.802689 -2.086637 0.262918 0
M  V30 10 C 0.675952 0.028054 -0.307428 0
M  V30 11 C 1.006438 1.201128 0.392757 0
M  V30 12 N 0.696493 2.238214 -0.440765 0
M  V30 13 C 0.886534 3.629810 -0.103323 0
M  V30 14 C 1.138515 4.636271 -0.996404 0
M  V30 15 C 1.303194 5.922387 -0.518169 0
M  V30 16 C 1.223169 6.236117 0.835522 0
M  V30 17 C 0.968325 5.236300 1.762902 0
M  V30 18 C 0.810512 3.967349 1.242276 0
M  V30 19 N 0.208016 1.763515 -1.580032 0
M  V30 20 C 0.172647 0.413688 -1.554594 0
M  V30 21 C -0.243874 -0.640416 -2.436017 0
M  V30 22 C 0.399170 -1.782038 -2.805609 0
M  V30 23 C -0.175736 -2.695990 -3.660903 0
M  V30 24 C -1.434320 -2.494007 -4.181949 0
M  V30 25 Cl -2.110227 -3.703589 -5.268915 0
M  V30 26 C -2.104374 -1.339250 -3.817877 0
M  V30 27 C -1.515521 -0.411085 -2.947157 0
M  V30 28 C 0.961255 -3.545620 2.613349 0
M  V30 29 C 0.976301 -4.563731 3.543134 0
M  V30 30 H -0.709825 -4.225103 7.117756 0
M  V30 31 H -1.960016 -5.258294 6.238586 0
M  V30 32 H -0.827129 -5.974698 7.444215 0
M  V30 33 H -1.447032 -3.256029 5.481579 0
M  V30 34 H -1.388322 -1.548842 3.812443 0
M  V30 35 H -0.551347 -0.636835 1.832210 0
M  V30 36 H 1.422983 1.396242 1.380323 0
M  V30 37 H 1.197349 4.375571 -2.041284 0
M  V30 38 H 1.504419 6.737177 -1.201929 0
M  V30 39 H 1.350986 7.232685 1.229535 0
M  V30 40 H 0.889247 5.386988 2.838360 0
M  V30 41 H 0.605880 3.167497 1.971674 0
M  V30 42 H 1.374622 -1.915257 -2.398203 0
M  V30 43 H 0.419490 -3.577509 -3.895836 0
M  V30 44 H -3.092798 -1.229015 -4.255066 0
M  V30 45 H -2.186633 0.437308 -2.770775 0
M  V30 46 H 1.676282 -3.705611 1.826460 0
M  V30 47 H 1.622765 -5.420589 3.498717 0
M  V30 END ATOM
M  V30 BEGIN BOND
M  V30 1 1 1 2
M  V30 2 1 2 3
M  V30 3 2 3 4
M  V30 4 1 4 5
M  V30 5 2 5 6
M  V30 6 1 6 7
M  V30 7 1 7 8
M  V30 8 2 8 9
M  V30 9 1 8 10
M  V30 10 2 10 11
M  V30 11 1 11 12
M  V30 12 1 12 13
M  V30 13 2 13 14
M  V30 14 1 14 15
M  V30 15 2 15 16
M  V30 16 1 16 17
M  V30 17 2 17 18
M  V30 18 1 12 19
M  V30 19 2 19 20
M  V30 20 1 20 21
M  V30 21 2 21 22
M  V30 22 1 22 23
M  V30 23 2 23 24
M  V30 24 1 24 25
M  V30 25 1 24 26
M  V30 26 2 26 27
M  V30 27 1 6 28
M  V30 28 2 28 29
M  V30 29 1 29 3
M  V30 30 1 20 10
M  V30 31 1 27 21
M  V30 32 1 18 13
M  V30 33 1 1 30
M  V30 34 1 1 31
M  V30 35 1 1 32
M  V30 36 1 4 33
M  V30 37 1 5 34
M  V30 38 1 7 35
M  V30 39 1 11 36
M  V30 40 1 14 37
M  V30 41 1 15 38
M  V30 42 1 16 39
M  V30 43 1 17 40
M  V30 44 1 18 41
M  V30 45 1 22 42
M  V30 46 1 23 43
M  V30 47 1 26 44
M  V30 48 1 27 45
M  V30 49 1 28 46
M  V30 50 1 29 47
M  V30 END BOND
M  V30 END CTAB
M  END
>  <Dataset>  (484) 
ChEMBL_Kinases

>  <Ligand_Instance>  (484) 
nan

>  <PDB_ID>  (484) 
nan

>  <Standardized_SMILES>  (484) 
COc1ccc(NC(=O)c2cn(-c3ccccc3)nc2-c2ccc(Cl)cc2)cc1

>  <Name>  (484) 
nan

>  <Pocket>  (484) 
nan

>  <ATP_Site>  (484) 
nan

>  <Peripheral>  (484) 
nan

>  <Num_H_Atoms_ProtBoundConf>  (484) 
nan

>  <Num_Resolved_Atoms>  (484) 
nan

>  <Num_Not_Resolved_Atoms>  (484) 
nan

$$$$
CHEMBL2030986
     RDKit          3D

  0  0  0  0  0  0  0  0  0  0999 V3000
M  V30 BEGIN CTAB
M  V30 COUNTS 43 46 0 0 0
M  V30 BEGIN ATOM
M  V30 1 O 1.928062 -0.309439 -0.648836 0
M  V30 2 C 0.653220 -0.363857 -0.520501 0
M  V30 3 N -0.011285 -0.355466 -1.782545 0
M  V30 4 C 1.068884 -0.286967 -2.741160 0
M  V30 5 C 1.771707 -1.334465 -3.286875 0
M  V30 6 C 2.762227 -1.006195 -4.188403 0
M  V30 7 C 3.026136 0.305690 -4.519015 0
M  V30 8 Br 4.412061 0.677457 -5.767797 0
M  V30 9 C 2.311894 1.347974 -3.962977 0
M  V30 10 C 1.306301 1.046116 -3.050179 0
M  V30 11 C 0.225710 -0.420851 0.864628 0
M  V30 12 C 0.547106 0.646700 1.715353 0
M  V30 13 N 0.082777 0.408223 2.945469 0
M  V30 14 C 0.202862 1.245432 4.119008 0
M  V30 15 C 0.929936 2.410893 3.993058 0
M  V30 16 C 1.083723 3.246550 5.071197 0
M  V30 17 C 0.488287 2.876448 6.270666 0
M  V30 18 C -0.236712 1.713040 6.394321 0
M  V30 19 C -0.397195 0.856965 5.298820 0
M  V30 20 N -0.528971 -0.772979 2.924124 0
M  V30 21 C -0.455452 -1.291944 1.680665 0
M  V30 22 C -0.972350 -2.569226 1.230115 0
M  V30 23 C -1.714015 -2.950438 0.160789 0
M  V30 24 C -2.061378 -4.268750 -0.040658 0
M  V30 25 C -1.686764 -5.282807 0.816307 0
M  V30 26 Cl -2.203268 -6.886599 0.417880 0
M  V30 27 C -0.929858 -4.912343 1.913327 0
M  V30 28 C -0.585860 -3.593098 2.108935 0
M  V30 29 H -1.045055 -0.394230 -1.671835 0
M  V30 30 H 1.472079 -2.315491 -2.949358 0
M  V30 31 H 3.314896 -1.844865 -4.610162 0
M  V30 32 H 2.580262 2.358132 -4.277772 0
M  V30 33 H 0.804959 1.920201 -2.673686 0
M  V30 34 H 1.089879 1.565477 1.490394 0
M  V30 35 H 1.418539 2.764366 3.100769 0
M  V30 36 H 1.635869 4.165515 5.038787 0
M  V30 37 H 0.618977 3.551547 7.124696 0
M  V30 38 H -0.692444 1.450681 7.356344 0
M  V30 39 H -0.955952 -0.053225 5.373900 0
M  V30 40 H -1.989564 -2.144532 -0.466457 0
M  V30 41 H -2.662672 -4.404026 -0.952743 0
M  V30 42 H -0.646052 -5.713611 2.568289 0
M  V30 43 H 0.013461 -3.461384 3.021910 0
M  V30 END ATOM
M  V30 BEGIN BOND
M  V30 1 2 1 2
M  V30 2 1 2 3
M  V30 3 1 3 4
M  V30 4 2 4 5
M  V30 5 1 5 6
M  V30 6 2 6 7
M  V30 7 1 7 8
M  V30 8 1 7 9
M  V30 9 2 9 10
M  V30 10 1 2 11
M  V30 11 2 11 12
M  V30 12 1 12 13
M  V30 13 1 13 14
M  V30 14 2 14 15
M  V30 15 1 15 16
M  V30 16 2 16 17
M  V30 17 1 17 18
M  V30 18 2 18 19
M  V30 19 1 13 20
M  V30 20 2 20 21
M  V30 21 1 21 22
M  V30 22 2 22 23
M  V30 23 1 23 24
M  V30 24 2 24 25
M  V30 25 1 25 26
M  V30 26 1 25 27
M  V30 27 2 27 28
M  V30 28 1 10 4
M  V30 29 1 21 11
M  V30 30 1 28 22
M  V30 31 1 19 14
M  V30 32 1 3 29
M  V30 33 1 5 30
M  V30 34 1 6 31
M  V30 35 1 9 32
M  V30 36 1 10 33
M  V30 37 1 12 34
M  V30 38 1 15 35
M  V30 39 1 16 36
M  V30 40 1 17 37
M  V30 41 1 18 38
M  V30 42 1 19 39
M  V30 43 1 23 40
M  V30 44 1 24 41
M  V30 45 1 27 42
M  V30 46 1 28 43
M  V30 END BOND
M  V30 END CTAB
M  END
>  <Dataset>  (485) 
ChEMBL_Kinases

>  <Ligand_Instance>  (485) 
nan

>  <PDB_ID>  (485) 
nan

>  <Standardized_SMILES>  (485) 
O=C(Nc1ccc(Br)cc1)c1cn(-c2ccccc2)nc1-c1ccc(Cl)cc1

>  <Name>  (485) 
nan

>  <Pocket>  (485) 
nan

>  <ATP_Site>  (485) 
nan

>  <Peripheral>  (485) 
nan

>  <Num_H_Atoms_ProtBoundConf>  (485) 
nan

>  <Num_Resolved_Atoms>  (485) 
nan

>  <Num_Not_Resolved_Atoms>  (485) 
nan

$$$$
CHEMBL2030985
     RDKit          3D

  0  0  0  0  0  0  0  0  0  0999 V3000
M  V30 BEGIN CTAB
M  V30 COUNTS 43 46 0 0 0
M  V30 BEGIN ATOM
M  V30 1 O 1.843783 -0.424588 -0.681732 0
M  V30 2 C 0.569314 -0.439540 -0.524573 0
M  V30 3 N -0.089894 -0.430178 -1.785463 0
M  V30 4 C 1.038653 -0.403707 -2.692007 0
M  V30 5 C 1.718181 -1.496121 -3.180501 0
M  V30 6 C 2.764458 -1.206217 -4.030078 0
M  V30 7 C 3.102516 0.086573 -4.364569 0
M  V30 8 Cl 4.434889 0.346812 -5.436123 0
M  V30 9 C 2.399365 1.179878 -3.857385 0
M  V30 10 C 1.333882 0.908684 -2.993015 0
M  V30 11 C 0.164025 -0.461491 0.873016 0
M  V30 12 C 0.501334 0.662064 1.638347 0
M  V30 13 N 0.072235 0.477651 2.897009 0
M  V30 14 C 0.219295 1.392733 4.006660 0
M  V30 15 C 1.059175 2.478232 3.877624 0
M  V30 16 C 1.243037 3.397183 4.910025 0
M  V30 17 C 0.530593 3.146709 6.063124 0
M  V30 18 C -0.318204 2.070337 6.224736 0
M  V30 19 C -0.482987 1.164327 5.170596 0
M  V30 20 N -0.518204 -0.706514 2.957981 0
M  V30 21 C -0.480608 -1.302001 1.750511 0
M  V30 22 C -0.973252 -2.599187 1.326721 0
M  V30 23 C -1.737966 -2.967671 0.251804 0
M  V30 24 C -2.100410 -4.269448 -0.006047 0
M  V30 25 C -1.674754 -5.261168 0.860379 0
M  V30 26 Cl -2.201302 -6.870021 0.418399 0
M  V30 27 C -0.905118 -4.940867 1.956429 0
M  V30 28 C -0.559163 -3.617404 2.183620 0
M  V30 29 H -1.119795 -0.443775 -1.678752 0
M  V30 30 H 1.367897 -2.458522 -2.854054 0
M  V30 31 H 3.311320 -2.075949 -4.421975 0
M  V30 32 H 2.718329 2.166202 -4.160401 0
M  V30 33 H 0.847308 1.806750 -2.648948 0
M  V30 34 H 1.018117 1.580597 1.375025 0
M  V30 35 H 1.632804 2.691624 2.969396 0
M  V30 36 H 1.902757 4.245472 4.800669 0
M  V30 37 H 0.672730 3.862107 6.865818 0
M  V30 38 H -0.844819 1.948206 7.171100 0
M  V30 39 H -1.140970 0.320072 5.281821 0
M  V30 40 H -2.037135 -2.160946 -0.364926 0
M  V30 41 H -2.708392 -4.434635 -0.887279 0
M  V30 42 H -0.649774 -5.809122 2.533979 0
M  V30 43 H 0.051715 -3.532520 3.091829 0
M  V30 END ATOM
M  V30 BEGIN BOND
M  V30 1 2 1 2
M  V30 2 1 2 3
M  V30 3 1 3 4
M  V30 4 2 4 5
M  V30 5 1 5 6
M  V30 6 2 6 7
M  V30 7 1 7 8
M  V30 8 1 7 9
M  V30 9 2 9 10
M  V30 10 1 2 11
M  V30 11 2 11 12
M  V30 12 1 12 13
M  V30 13 1 13 14
M  V30 14 2 14 15
M  V30 15 1 15 16
M  V30 16 2 16 17
M  V30 17 1 17 18
M  V30 18 2 18 19
M  V30 19 1 13 20
M  V30 20 2 20 21
M  V30 21 1 21 22
M  V30 22 2 22 23
M  V30 23 1 23 24
M  V30 24 2 24 25
M  V30 25 1 25 26
M  V30 26 1 25 27
M  V30 27 2 27 28
M  V30 28 1 10 4
M  V30 29 1 21 11
M  V30 30 1 28 22
M  V30 31 1 19 14
M  V30 32 1 3 29
M  V30 33 1 5 30
M  V30 34 1 6 31
M  V30 35 1 9 32
M  V30 36 1 10 33
M  V30 37 1 12 34
M  V30 38 1 15 35
M  V30 39 1 16 36
M  V30 40 1 17 37
M  V30 41 1 18 38
M  V30 42 1 19 39
M  V30 43 1 23 40
M  V30 44 1 24 41
M  V30 45 1 27 42
M  V30 46 1 28 43
M  V30 END BOND
M  V30 END CTAB
M  END
>  <Dataset>  (486) 
ChEMBL_Kinases

>  <Ligand_Instance>  (486) 
nan

>  <PDB_ID>  (486) 
nan

>  <Standardized_SMILES>  (486) 
O=C(Nc1ccc(Cl)cc1)c1cn(-c2ccccc2)nc1-c1ccc(Cl)cc1

>  <Name>  (486) 
nan

>  <Pocket>  (486) 
nan

>  <ATP_Site>  (486) 
nan

>  <Peripheral>  (486) 
nan

>  <Num_H_Atoms_ProtBoundConf>  (486) 
nan

>  <Num_Resolved_Atoms>  (486) 
nan

>  <Num_Not_Resolved_Atoms>  (486) 
nan

$$$$
CHEMBL2030984
     RDKit          3D

  0  0  0  0  0  0  0  0  0  0999 V3000
M  V30 BEGIN CTAB
M  V30 COUNTS 43 46 0 0 0
M  V30 BEGIN ATOM
M  V30 1 O 1.500313 -2.985396 0.306670 0
M  V30 2 C 1.147180 -1.812793 0.394888 0
M  V30 3 N 1.759313 -0.960970 -0.544812 0
M  V30 4 C 2.640718 -0.693526 -1.637146 0
M  V30 5 C 3.932220 -0.468171 -1.200083 0
M  V30 6 C 4.964567 -0.166082 -2.120223 0
M  V30 7 C 4.475327 -0.139923 -3.407446 0
M  V30 8 C 3.228065 -0.348890 -3.917279 0
M  V30 9 C 2.256516 -0.645647 -2.948960 0
M  V30 10 C 0.187050 -1.166192 1.325412 0
M  V30 11 C 0.485787 0.052843 1.949268 0
M  V30 12 N -0.539545 0.441582 2.722172 0
M  V30 13 C -0.489394 1.662890 3.452210 0
M  V30 14 C 0.229134 2.735751 2.902793 0
M  V30 15 C 0.393458 3.992677 3.443220 0
M  V30 16 C -0.232628 4.175041 4.657357 0
M  V30 17 C -0.965691 3.163189 5.272718 0
M  V30 18 C -1.089452 1.907526 4.663551 0
M  V30 19 N -1.459844 -0.486593 2.601295 0
M  V30 20 C -1.089763 -1.481732 1.778809 0
M  V30 21 C -1.721787 -2.704993 1.309400 0
M  V30 22 C -2.429787 -3.592387 2.095847 0
M  V30 23 C -2.988266 -4.730854 1.563792 0
M  V30 24 C -2.848430 -5.008510 0.222207 0
M  V30 25 Cl -3.538332 -6.450664 -0.545423 0
M  V30 26 C -2.159431 -4.177915 -0.624359 0
M  V30 27 C -1.623722 -3.043684 -0.008170 0
M  V30 28 H 1.450568 0.071883 -0.492237 0
M  V30 29 H 4.248926 -0.508843 -0.143333 0
M  V30 30 H 5.988145 0.015577 -1.862518 0
M  V30 31 H 5.245074 0.096717 -4.166344 0
M  V30 32 H 3.022321 -0.285403 -4.969324 0
M  V30 33 H 1.252381 -0.822296 -3.226590 0
M  V30 34 H 1.432161 0.600965 1.807444 0
M  V30 35 H 0.715023 2.551324 1.930689 0
M  V30 36 H 0.972361 4.722457 2.907859 0
M  V30 37 H -0.122811 5.169593 5.117091 0
M  V30 38 H -1.438688 3.355911 6.224833 0
M  V30 39 H -1.652213 1.100871 5.116062 0
M  V30 40 H -2.533665 -3.364822 3.147136 0
M  V30 41 H -3.549066 -5.445144 2.138990 0
M  V30 42 H -2.010026 -4.334017 -1.686837 0
M  V30 43 H -1.069101 -2.370727 -0.661838 0
M  V30 END ATOM
M  V30 BEGIN BOND
M  V30 1 2 1 2
M  V30 2 1 2 3
M  V30 3 1 3 4
M  V30 4 2 4 5
M  V30 5 1 5 6
M  V30 6 2 6 7
M  V30 7 1 7 8
M  V30 8 2 8 9
M  V30 9 1 2 10
M  V30 10 2 10 11
M  V30 11 1 11 12
M  V30 12 1 12 13
M  V30 13 2 13 14
M  V30 14 1 14 15
M  V30 15 2 15 16
M  V30 16 1 16 17
M  V30 17 2 17 18
M  V30 18 1 12 19
M  V30 19 2 19 20
M  V30 20 1 20 21
M  V30 21 2 21 22
M  V30 22 1 22 23
M  V30 23 2 23 24
M  V30 24 1 24 25
M  V30 25 1 24 26
M  V30 26 2 26 27
M  V30 27 1 9 4
M  V30 28 1 20 10
M  V30 29 1 27 21
M  V30 30 1 18 13
M  V30 31 1 3 28
M  V30 32 1 5 29
M  V30 33 1 6 30
M  V30 34 1 7 31
M  V30 35 1 8 32
M  V30 36 1 9 33
M  V30 37 1 11 34
M  V30 38 1 14 35
M  V30 39 1 15 36
M  V30 40 1 16 37
M  V30 41 1 17 38
M  V30 42 1 18 39
M  V30 43 1 22 40
M  V30 44 1 23 41
M  V30 45 1 26 42
M  V30 46 1 27 43
M  V30 END BOND
M  V30 END CTAB
M  END
>  <Dataset>  (487) 
ChEMBL_Kinases

>  <Ligand_Instance>  (487) 
nan

>  <PDB_ID>  (487) 
nan

>  <Standardized_SMILES>  (487) 
O=C(Nc1ccccc1)c1cn(-c2ccccc2)nc1-c1ccc(Cl)cc1

>  <Name>  (487) 
nan

>  <Pocket>  (487) 
nan

>  <ATP_Site>  (487) 
nan

>  <Peripheral>  (487) 
nan

>  <Num_H_Atoms_ProtBoundConf>  (487) 
nan

>  <Num_Resolved_Atoms>  (487) 
nan

>  <Num_Not_Resolved_Atoms>  (487) 
nan

$$$$
CHEMBL2030983
     RDKit          3D

  0  0  0  0  0  0  0  0  0  0999 V3000
M  V30 BEGIN CTAB
M  V30 COUNTS 54 57 0 0 0
M  V30 BEGIN ATOM
M  V30 1 C 2.874163 -5.898674 -0.338211 0
M  V30 2 C 4.226579 -5.420457 -0.782141 0
M  V30 3 O 4.490912 -4.158186 -0.230864 0
M  V30 4 C 3.740017 -3.029655 -0.439738 0
M  V30 5 C 4.267462 -1.944124 0.260410 0
M  V30 6 C 3.644982 -0.696318 0.179230 0
M  V30 7 C 2.520183 -0.660830 -0.619255 0
M  V30 8 N 1.762578 0.534697 -0.784567 0
M  V30 9 C 0.860120 0.442913 0.291030 0
M  V30 10 O 1.067009 -0.633688 0.978421 0
M  V30 11 C -0.261363 1.091515 0.981199 0
M  V30 12 C -0.084364 2.144335 1.863603 0
M  V30 13 N -1.365570 2.404226 2.267681 0
M  V30 14 C -1.630055 3.455046 3.217125 0
M  V30 15 C -1.496206 4.814929 3.067080 0
M  V30 16 C -1.817040 5.619568 4.141066 0
M  V30 17 C -2.263423 5.085844 5.344624 0
M  V30 18 C -2.395036 3.699856 5.483236 0
M  V30 19 C -2.072257 2.898098 4.404329 0
M  V30 20 N -2.224360 1.600353 1.695385 0
M  V30 21 C -1.594988 0.740807 0.865548 0
M  V30 22 C -2.036885 -0.352911 0.005862 0
M  V30 23 C -1.528159 -0.307412 -1.296345 0
M  V30 24 C -1.841115 -1.270312 -2.234142 0
M  V30 25 C -2.674308 -2.313644 -1.898665 0
M  V30 26 O -2.957330 -3.251262 -2.868742 0
M  V30 27 C -3.803597 -4.362665 -2.616160 0
M  V30 28 C -3.191246 -2.382835 -0.617518 0
M  V30 29 C -2.867718 -1.405708 0.315008 0
M  V30 30 C 1.951206 -1.709625 -1.339483 0
M  V30 31 C 2.616736 -2.935982 -1.222741 0
M  V30 32 H 2.992615 -6.814861 0.299624 0
M  V30 33 H 2.315463 -5.107540 0.235579 0
M  V30 34 H 2.262959 -6.130845 -1.230572 0
M  V30 35 H 5.024979 -6.138309 -0.523041 0
M  V30 36 H 4.231284 -5.357774 -1.896454 0
M  V30 37 H 5.152988 -1.950899 0.894817 0
M  V30 38 H 3.936505 0.225890 0.658149 0
M  V30 39 H 1.510126 1.425549 -1.264227 0
M  V30 40 H 0.835329 2.626273 2.151572 0
M  V30 41 H -1.144401 5.068008 2.092447 0
M  V30 42 H -1.681461 6.688965 3.940301 0
M  V30 43 H -2.496774 5.780799 6.149407 0
M  V30 44 H -2.750831 3.330839 6.452066 0
M  V30 45 H -2.213601 1.833170 4.628516 0
M  V30 46 H -0.880538 0.476508 -1.619511 0
M  V30 47 H -1.414589 -1.185763 -3.241916 0
M  V30 48 H -3.975213 -4.939177 -3.552397 0
M  V30 49 H -4.782974 -4.082729 -2.218055 0
M  V30 50 H -3.216087 -5.036537 -1.940234 0
M  V30 51 H -3.844327 -3.194135 -0.323659 0
M  V30 52 H -3.228664 -1.393502 1.335641 0
M  V30 53 H 1.083076 -1.637117 -1.945405 0
M  V30 54 H 2.258165 -3.808166 -1.746214 0
M  V30 END ATOM
M  V30 BEGIN BOND
M  V30 1 1 1 2
M  V30 2 1 2 3
M  V30 3 1 3 4
M  V30 4 2 4 5
M  V30 5 1 5 6
M  V30 6 2 6 7
M  V30 7 1 7 8
M  V30 8 1 8 9
M  V30 9 2 9 10
M  V30 10 1 9 11
M  V30 11 2 11 12
M  V30 12 1 12 13
M  V30 13 1 13 14
M  V30 14 2 14 15
M  V30 15 1 15 16
M  V30 16 2 16 17
M  V30 17 1 17 18
M  V30 18 2 18 19
M  V30 19 1 13 20
M  V30 20 2 20 21
M  V30 21 1 21 22
M  V30 22 2 22 23
M  V30 23 1 23 24
M  V30 24 2 24 25
M  V30 25 1 25 26
M  V30 26 1 26 27
M  V30 27 1 25 28
M  V30 28 2 28 29
M  V30 29 1 7 30
M  V30 30 2 30 31
M  V30 31 1 31 4
M  V30 32 1 21 11
M  V30 33 1 29 22
M  V30 34 1 19 14
M  V30 35 1 1 32
M  V30 36 1 1 33
M  V30 37 1 1 34
M  V30 38 1 2 35
M  V30 39 1 2 36
M  V30 40 1 5 37
M  V30 41 1 6 38
M  V30 42 1 8 39
M  V30 43 1 12 40
M  V30 44 1 15 41
M  V30 45 1 16 42
M  V30 46 1 17 43
M  V30 47 1 18 44
M  V30 48 1 19 45
M  V30 49 1 23 46
M  V30 50 1 24 47
M  V30 51 1 27 48
M  V30 52 1 27 49
M  V30 53 1 27 50
M  V30 54 1 28 51
M  V30 55 1 29 52
M  V30 56 1 30 53
M  V30 57 1 31 54
M  V30 END BOND
M  V30 END CTAB
M  END
>  <Dataset>  (488) 
ChEMBL_Kinases

>  <Ligand_Instance>  (488) 
nan

>  <PDB_ID>  (488) 
nan

>  <Standardized_SMILES>  (488) 
CCOc1ccc(NC(=O)c2cn(-c3ccccc3)nc2-c2ccc(OC)cc2)cc1

>  <Name>  (488) 
nan

>  <Pocket>  (488) 
nan

>  <ATP_Site>  (488) 
nan

>  <Peripheral>  (488) 
nan

>  <Num_H_Atoms_ProtBoundConf>  (488) 
nan

>  <Num_Resolved_Atoms>  (488) 
nan

>  <Num_Not_Resolved_Atoms>  (488) 
nan

$$$$
CHEMBL2030982
     RDKit          3D

  0  0  0  0  0  0  0  0  0  0999 V3000
M  V30 BEGIN CTAB
M  V30 COUNTS 51 54 0 0 0
M  V30 BEGIN ATOM
M  V30 1 C 0.543682 -5.160938 7.091393 0
M  V30 2 O 0.903029 -5.325485 5.733968 0
M  V30 3 C 0.924182 -4.296392 4.825867 0
M  V30 4 C 1.287030 -4.533087 3.514039 0
M  V30 5 C 1.301448 -3.468357 2.603925 0
M  V30 6 C 0.972627 -2.199698 2.954293 0
M  V30 7 N 0.951208 -1.070536 2.095790 0
M  V30 8 C 1.250807 -1.016362 0.691737 0
M  V30 9 O 1.578321 -2.053684 0.086150 0
M  V30 10 C 1.195943 0.206452 -0.102371 0
M  V30 11 C 1.986859 1.319088 -0.204872 0
M  V30 12 N 1.390291 2.103276 -1.122533 0
M  V30 13 C 1.857106 3.377439 -1.558047 0
M  V30 14 C 1.330695 4.530566 -0.966236 0
M  V30 15 C 1.679068 5.828507 -1.281691 0
M  V30 16 C 2.630538 5.983098 -2.268732 0
M  V30 17 C 3.192202 4.887621 -2.895206 0
M  V30 18 C 2.813609 3.606907 -2.547473 0
M  V30 19 N 0.285224 1.528767 -1.579845 0
M  V30 20 C 0.123509 0.323803 -0.959524 0
M  V30 21 C -1.042896 -0.468129 -1.325744 0
M  V30 22 C -1.474310 -0.679906 -2.616075 0
M  V30 23 C -2.608026 -1.455380 -2.848120 0
M  V30 24 C -3.333183 -2.033597 -1.802436 0
M  V30 25 O -4.439723 -2.785746 -2.091000 0
M  V30 26 C -5.227265 -3.403418 -1.105075 0
M  V30 27 C -2.919180 -1.835392 -0.494466 0
M  V30 28 C -1.776476 -1.050121 -0.314494 0
M  V30 29 C 0.608907 -1.940691 4.252643 0
M  V30 30 C 0.593191 -2.994819 5.157929 0
M  V30 31 H -0.424696 -4.637258 7.203289 0
M  V30 32 H 1.317174 -4.525652 7.574519 0
M  V30 33 H 0.576784 -6.148449 7.580145 0
M  V30 34 H 1.557989 -5.520586 3.182077 0
M  V30 35 H 1.586423 -3.708945 1.615095 0
M  V30 36 H 0.700870 -0.117403 2.430681 0
M  V30 37 H 2.870891 1.443249 0.367718 0
M  V30 38 H 0.587417 4.383316 -0.194149 0
M  V30 39 H 1.202045 6.647200 -0.754169 0
M  V30 40 H 2.933292 6.990945 -2.547471 0
M  V30 41 H 3.945266 4.980683 -3.675807 0
M  V30 42 H 3.223681 2.703800 -3.006818 0
M  V30 43 H -0.893305 -0.221671 -3.402515 0
M  V30 44 H -2.918461 -1.600392 -3.891398 0
M  V30 45 H -5.876372 -4.198956 -1.559682 0
M  V30 46 H -4.538931 -3.861461 -0.373850 0
M  V30 47 H -5.869749 -2.632013 -0.653483 0
M  V30 48 H -3.459214 -2.269302 0.318582 0
M  V30 49 H -1.490126 -0.922045 0.716346 0
M  V30 50 H 0.319991 -0.984198 4.685421 0
M  V30 51 H 0.318320 -2.851357 6.186334 0
M  V30 END ATOM
M  V30 BEGIN BOND
M  V30 1 1 1 2
M  V30 2 1 2 3
M  V30 3 2 3 4
M  V30 4 1 4 5
M  V30 5 2 5 6
M  V30 6 1 6 7
M  V30 7 1 7 8
M  V30 8 2 8 9
M  V30 9 1 8 10
M  V30 10 2 10 11
M  V30 11 1 11 12
M  V30 12 1 12 13
M  V30 13 2 13 14
M  V30 14 1 14 15
M  V30 15 2 15 16
M  V30 16 1 16 17
M  V30 17 2 17 18
M  V30 18 1 12 19
M  V30 19 2 19 20
M  V30 20 1 20 21
M  V30 21 2 21 22
M  V30 22 1 22 23
M  V30 23 2 23 24
M  V30 24 1 24 25
M  V30 25 1 25 26
M  V30 26 1 24 27
M  V30 27 2 27 28
M  V30 28 1 6 29
M  V30 29 2 29 30
M  V30 30 1 30 3
M  V30 31 1 20 10
M  V30 32 1 28 21
M  V30 33 1 18 13
M  V30 34 1 1 31
M  V30 35 1 1 32
M  V30 36 1 1 33
M  V30 37 1 4 34
M  V30 38 1 5 35
M  V30 39 1 7 36
M  V30 40 1 11 37
M  V30 41 1 14 38
M  V30 42 1 15 39
M  V30 43 1 16 40
M  V30 44 1 17 41
M  V30 45 1 18 42
M  V30 46 1 22 43
M  V30 47 1 23 44
M  V30 48 1 26 45
M  V30 49 1 26 46
M  V30 50 1 26 47
M  V30 51 1 27 48
M  V30 52 1 28 49
M  V30 53 1 29 50
M  V30 54 1 30 51
M  V30 END BOND
M  V30 END CTAB
M  END
>  <Dataset>  (489) 
ChEMBL_Kinases

>  <Ligand_Instance>  (489) 
nan

>  <PDB_ID>  (489) 
nan

>  <Standardized_SMILES>  (489) 
COc1ccc(NC(=O)c2cn(-c3ccccc3)nc2-c2ccc(OC)cc2)cc1

>  <Name>  (489) 
nan

>  <Pocket>  (489) 
nan

>  <ATP_Site>  (489) 
nan

>  <Peripheral>  (489) 
nan

>  <Num_H_Atoms_ProtBoundConf>  (489) 
nan

>  <Num_Resolved_Atoms>  (489) 
nan

>  <Num_Not_Resolved_Atoms>  (489) 
nan

$$$$
CHEMBL2029618
     RDKit          3D

  0  0  0  0  0  0  0  0  0  0999 V3000
M  V30 BEGIN CTAB
M  V30 COUNTS 44 47 0 0 0
M  V30 BEGIN ATOM
M  V30 1 C 1.123618 -3.185521 0.791980 0
M  V30 2 N 0.529025 -2.148698 1.614678 0
M  V30 3 C -0.313129 -2.753053 2.625737 0
M  V30 4 C -0.239834 -1.860602 3.836159 0
M  V30 5 C 0.909335 -0.903230 3.594536 0
M  V30 6 C 1.535720 -1.386261 2.323891 0 CFG=2
M  V30 7 C 2.170375 -0.361583 1.495034 0
M  V30 8 C 3.523623 -0.070175 1.706614 0
M  V30 9 O 4.208113 -0.775952 2.705729 0
M  V30 10 C 4.213859 0.877456 0.979114 0
M  V30 11 C 3.525706 1.573721 -0.011435 0
M  V30 12 O 4.195038 2.521179 -0.746750 0
M  V30 13 C 2.205023 1.260617 -0.187908 0
M  V30 14 C 1.552715 1.977548 -1.186375 0
M  V30 15 O 2.118180 2.852783 -1.885828 0
M  V30 16 C 0.222863 1.703695 -1.407394 0
M  V30 17 C -0.415682 0.745029 -0.648633 0
M  V30 18 C -1.824044 0.425970 -0.852365 0
M  V30 19 C -2.420985 -0.540428 -0.067563 0
M  V30 20 C -3.749475 -0.874604 -0.225497 0
M  V30 21 C -4.551634 -0.267664 -1.168768 0
M  V30 22 C -3.968320 0.696539 -1.956496 0
M  V30 23 C -2.640396 1.022193 -1.789820 0
M  V30 24 O 0.209263 0.075074 0.290264 0
M  V30 25 C 1.471634 0.326939 0.508529 0
M  V30 26 H 0.642775 -3.267975 -0.201530 0
M  V30 27 H 2.204546 -2.920585 0.697296 0
M  V30 28 H 1.093630 -4.162437 1.349098 0
M  V30 29 H 0.075598 -3.768455 2.824075 0
M  V30 30 H -1.334631 -2.826538 2.256218 0
M  V30 31 H -1.195392 -1.334772 4.038922 0
M  V30 32 H -0.073802 -2.530647 4.707419 0
M  V30 33 H 1.590051 -1.013298 4.467326 0
M  V30 34 H 0.597871 0.154156 3.583228 0
M  V30 35 H 2.317687 -2.123772 2.608987 0
M  V30 36 H 5.022905 -1.277282 2.375494 0
M  V30 37 H 5.246477 1.112363 1.127338 0
M  V30 38 H 4.392815 2.310832 -1.721599 0
M  V30 39 H -0.284820 2.260070 -2.182810 0
M  V30 40 H -1.889831 -1.079310 0.700827 0
M  V30 41 H -4.212049 -1.643417 0.403598 0
M  V30 42 H -5.595389 -0.482860 -1.342473 0
M  V30 43 H -4.553586 1.219426 -2.728783 0
M  V30 44 H -2.237561 1.772708 -2.422477 0
M  V30 END ATOM
M  V30 BEGIN BOND
M  V30 1 1 1 2
M  V30 2 1 2 3
M  V30 3 1 3 4
M  V30 4 1 4 5
M  V30 5 1 5 6
M  V30 6 1 6 7
M  V30 7 2 7 8
M  V30 8 1 8 9
M  V30 9 1 8 10
M  V30 10 2 10 11
M  V30 11 1 11 12
M  V30 12 1 11 13
M  V30 13 1 13 14
M  V30 14 2 14 15
M  V30 15 1 14 16
M  V30 16 2 16 17
M  V30 17 1 17 18
M  V30 18 2 18 19
M  V30 19 1 19 20
M  V30 20 2 20 21
M  V30 21 1 21 22
M  V30 22 2 22 23
M  V30 23 1 17 24
M  V30 24 1 24 25
M  V30 25 1 6 2
M  V30 26 1 25 7
M  V30 27 2 25 13
M  V30 28 1 23 18
M  V30 29 1 1 26
M  V30 30 1 1 27
M  V30 31 1 1 28
M  V30 32 1 3 29
M  V30 33 1 3 30
M  V30 34 1 4 31
M  V30 35 1 4 32
M  V30 36 1 5 33
M  V30 37 1 5 34
M  V30 38 1 6 35 CFG=1
M  V30 39 1 9 36
M  V30 40 1 10 37
M  V30 41 1 12 38
M  V30 42 1 16 39
M  V30 43 1 19 40
M  V30 44 1 20 41
M  V30 45 1 21 42
M  V30 46 1 22 43
M  V30 47 1 23 44
M  V30 END BOND
M  V30 END CTAB
M  END
>  <Dataset>  (490) 
ChEMBL_Kinases

>  <Ligand_Instance>  (490) 
nan

>  <PDB_ID>  (490) 
nan

>  <Standardized_SMILES>  (490) 
CN1CCC[C@@H]1c1c(O)cc(O)c2c(=O)cc(-c3ccccc3)oc12

>  <Name>  (490) 
nan

>  <Pocket>  (490) 
nan

>  <ATP_Site>  (490) 
nan

>  <Peripheral>  (490) 
nan

>  <Num_H_Atoms_ProtBoundConf>  (490) 
nan

>  <Num_Resolved_Atoms>  (490) 
nan

>  <Num_Not_Resolved_Atoms>  (490) 
nan

$$$$
CHEMBL2029619
     RDKit          3D

  0  0  0  0  0  0  0  0  0  0999 V3000
M  V30 BEGIN CTAB
M  V30 COUNTS 44 47 0 0 0
M  V30 BEGIN ATOM
M  V30 1 C 1.044796 -2.975168 1.177668 0
M  V30 2 N 0.909505 -2.295483 -0.046395 0
M  V30 3 C 0.230813 -2.943979 -1.097359 0
M  V30 4 C 0.314533 -1.897819 -2.212025 0
M  V30 5 C 1.611561 -1.142840 -1.914602 0
M  V30 6 C 1.970290 -1.499184 -0.497137 0 CFG=1
M  V30 7 C 2.338042 -0.355115 0.326761 0
M  V30 8 C 3.677878 0.043642 0.383041 0
M  V30 9 O 4.613159 -0.682085 -0.362282 0
M  V30 10 C 4.165815 1.087258 1.105563 0
M  V30 11 C 3.256889 1.814113 1.846744 0
M  V30 12 O 3.665381 2.898251 2.616071 0
M  V30 13 C 1.925479 1.454497 1.819443 0
M  V30 14 C 1.047384 2.224908 2.588788 0
M  V30 15 O 1.409675 3.205181 3.285755 0
M  V30 16 C -0.271726 1.818275 2.522404 0
M  V30 17 C -0.693830 0.746263 1.765146 0
M  V30 18 C -2.088377 0.324304 1.701167 0
M  V30 19 C -2.416728 -0.761214 0.915501 0
M  V30 20 C -3.711380 -1.248744 0.781243 0
M  V30 21 C -4.746062 -0.612750 1.475384 0
M  V30 22 C -4.426589 0.473487 2.263303 0
M  V30 23 C -3.129201 0.929877 2.372704 0
M  V30 24 O 0.169355 0.053862 1.059601 0
M  V30 25 C 1.445617 0.383410 1.073916 0
M  V30 26 H 0.228295 -3.728089 1.261570 0
M  V30 27 H 1.998142 -3.572448 1.127044 0
M  V30 28 H 1.064047 -2.367720 2.081295 0
M  V30 29 H -0.791587 -3.209866 -0.838124 0
M  V30 30 H 0.757641 -3.877424 -1.401120 0
M  V30 31 H -0.535275 -1.196748 -2.152522 0
M  V30 32 H 0.345991 -2.452637 -3.158985 0
M  V30 33 H 1.530257 -0.074477 -2.112370 0
M  V30 34 H 2.344984 -1.534394 -2.664611 0
M  V30 35 H 2.868956 -2.180852 -0.569091 0
M  V30 36 H 5.139856 -1.386527 0.135296 0
M  V30 37 H 5.212017 1.339841 1.103568 0
M  V30 38 H 3.467294 3.860595 2.380263 0
M  V30 39 H -0.979879 2.391322 3.105134 0
M  V30 40 H -1.682132 -1.310832 0.346031 0
M  V30 41 H -3.965414 -2.099688 0.164724 0
M  V30 42 H -5.750129 -1.003054 1.361733 0
M  V30 43 H -5.253083 0.919738 2.769505 0
M  V30 44 H -2.914374 1.769491 2.987846 0
M  V30 END ATOM
M  V30 BEGIN BOND
M  V30 1 1 1 2
M  V30 2 1 2 3
M  V30 3 1 3 4
M  V30 4 1 4 5
M  V30 5 1 5 6
M  V30 6 1 6 7
M  V30 7 2 7 8
M  V30 8 1 8 9
M  V30 9 1 8 10
M  V30 10 2 10 11
M  V30 11 1 11 12
M  V30 12 1 11 13
M  V30 13 1 13 14
M  V30 14 2 14 15
M  V30 15 1 14 16
M  V30 16 2 16 17
M  V30 17 1 17 18
M  V30 18 2 18 19
M  V30 19 1 19 20
M  V30 20 2 20 21
M  V30 21 1 21 22
M  V30 22 2 22 23
M  V30 23 1 17 24
M  V30 24 1 24 25
M  V30 25 1 6 2
M  V30 26 1 25 7
M  V30 27 2 25 13
M  V30 28 1 23 18
M  V30 29 1 1 26
M  V30 30 1 1 27
M  V30 31 1 1 28
M  V30 32 1 3 29
M  V30 33 1 3 30
M  V30 34 1 4 31
M  V30 35 1 4 32
M  V30 36 1 5 33
M  V30 37 1 5 34
M  V30 38 1 6 35 CFG=3
M  V30 39 1 9 36
M  V30 40 1 10 37
M  V30 41 1 12 38
M  V30 42 1 16 39
M  V30 43 1 19 40
M  V30 44 1 20 41
M  V30 45 1 21 42
M  V30 46 1 22 43
M  V30 47 1 23 44
M  V30 END BOND
M  V30 END CTAB
M  END
>  <Dataset>  (491) 
ChEMBL_Kinases

>  <Ligand_Instance>  (491) 
nan

>  <PDB_ID>  (491) 
nan

>  <Standardized_SMILES>  (491) 
CN1CCC[C@H]1c1c(O)cc(O)c2c(=O)cc(-c3ccccc3)oc12

>  <Name>  (491) 
nan

>  <Pocket>  (491) 
nan

>  <ATP_Site>  (491) 
nan

>  <Peripheral>  (491) 
nan

>  <Num_H_Atoms_ProtBoundConf>  (491) 
nan

>  <Num_Resolved_Atoms>  (491) 
nan

>  <Num_Not_Resolved_Atoms>  (491) 
nan

$$$$
CHEMBL202972
     RDKit          3D

  0  0  0  0  0  0  0  0  0  0999 V3000
M  V30 BEGIN CTAB
M  V30 COUNTS 57 61 0 0 0
M  V30 BEGIN ATOM
M  V30 1 N 2.456634 -4.491217 0.546608 0
M  V30 2 C 1.247579 -3.589745 0.708606 0 CFG=2
M  V30 3 C 1.381962 -3.293775 2.216088 0
M  V30 4 O 2.638739 -2.660477 2.420161 0
M  V30 5 C 3.026871 -1.419706 2.022427 0
M  V30 6 C 4.359237 -1.116202 2.335579 0
M  V30 7 N 4.870142 0.075968 2.025106 0
M  V30 8 C 4.155160 1.041610 1.402882 0
M  V30 9 C 2.843462 0.821952 1.061909 0
M  V30 10 C 2.043732 1.899375 0.520987 0
M  V30 11 C 2.606277 3.085142 0.209651 0
M  V30 12 C 1.856945 4.133992 -0.313982 0
M  V30 13 C 0.519890 3.961526 -0.522497 0
M  V30 14 C -0.132266 2.764824 -0.227826 0
M  V30 15 N -1.511206 2.739278 -0.496931 0
M  V30 16 C -2.430460 1.895172 0.135879 0
M  V30 17 N -2.019289 0.981614 1.022123 0
M  V30 18 C -2.812413 0.160331 1.716444 0
M  V30 19 C -4.193733 0.216271 1.540508 0
M  V30 20 C -4.602582 1.150066 0.632067 0
M  V30 21 N -3.773734 1.942340 -0.032124 0
M  V30 22 C 0.693594 1.787734 0.286353 0
M  V30 23 C 2.317772 -0.423755 1.386676 0
M  V30 24 C 0.048268 -4.411649 0.455768 0
M  V30 25 C -1.241888 -3.727868 0.428010 0
M  V30 26 C -2.430585 -3.538156 1.108111 0
M  V30 27 N -3.245055 -2.783858 0.391724 0
M  V30 28 C -2.666421 -2.428673 -0.776711 0
M  V30 29 C -3.169151 -1.673577 -1.791378 0
M  V30 30 C -2.424308 -1.422372 -2.934573 0
M  V30 31 C -1.163552 -1.961805 -3.003254 0
M  V30 32 C -0.722249 -2.716240 -1.940857 0
M  V30 33 C -1.417091 -3.013600 -0.756065 0
M  V30 34 H 2.346267 -4.959110 -0.392741 0
M  V30 35 H 2.375250 -5.219474 1.307447 0
M  V30 36 H 1.397669 -2.733474 0.127102 0
M  V30 37 H 0.540844 -2.635319 2.483670 0
M  V30 38 H 1.353055 -4.202923 2.811274 0
M  V30 39 H 5.030865 -1.833186 2.838654 0
M  V30 40 H 4.715039 1.953504 1.218700 0
M  V30 41 H 3.631529 3.339427 0.326872 0
M  V30 42 H 2.280216 5.117711 -0.561279 0
M  V30 43 H -0.062528 4.807728 -0.929760 0
M  V30 44 H -1.949550 3.364618 -1.207967 0
M  V30 45 H -2.264109 -0.516395 2.387834 0
M  V30 46 H -4.688827 -0.493193 2.166788 0
M  V30 47 H -5.701513 1.171162 0.518585 0
M  V30 48 H 0.211868 0.850552 0.495116 0
M  V30 49 H 1.294739 -0.684789 1.166779 0
M  V30 50 H -0.005819 -5.193733 1.303311 0
M  V30 51 H 0.188721 -4.991397 -0.488994 0
M  V30 52 H -2.483996 -4.020460 2.074039 0
M  V30 53 H -4.193534 -2.549661 0.748043 0
M  V30 54 H -4.146088 -1.223758 -1.831166 0
M  V30 55 H -2.696113 -0.874688 -3.799743 0
M  V30 56 H -0.508430 -1.830398 -3.841551 0
M  V30 57 H 0.286175 -3.141015 -2.007392 0
M  V30 END ATOM
M  V30 BEGIN BOND
M  V30 1 1 1 2
M  V30 2 1 2 3
M  V30 3 1 3 4
M  V30 4 1 4 5
M  V30 5 2 5 6
M  V30 6 1 6 7
M  V30 7 2 7 8
M  V30 8 1 8 9
M  V30 9 1 9 10
M  V30 10 2 10 11
M  V30 11 1 11 12
M  V30 12 2 12 13
M  V30 13 1 13 14
M  V30 14 1 14 15
M  V30 15 1 15 16
M  V30 16 2 16 17
M  V30 17 1 17 18
M  V30 18 2 18 19
M  V30 19 1 19 20
M  V30 20 2 20 21
M  V30 21 2 14 22
M  V30 22 2 9 23
M  V30 23 1 2 24
M  V30 24 1 24 25
M  V30 25 2 25 26
M  V30 26 1 26 27
M  V30 27 1 27 28
M  V30 28 2 28 29
M  V30 29 1 29 30
M  V30 30 2 30 31
M  V30 31 1 31 32
M  V30 32 2 32 33
M  V30 33 1 23 5
M  V30 34 1 33 25
M  V30 35 1 22 10
M  V30 36 1 33 28
M  V30 37 1 21 16
M  V30 38 1 1 34
M  V30 39 1 1 35
M  V30 40 1 2 36 CFG=3
M  V30 41 1 3 37
M  V30 42 1 3 38
M  V30 43 1 6 39
M  V30 44 1 8 40
M  V30 45 1 11 41
M  V30 46 1 12 42
M  V30 47 1 13 43
M  V30 48 1 15 44
M  V30 49 1 18 45
M  V30 50 1 19 46
M  V30 51 1 20 47
M  V30 52 1 22 48
M  V30 53 1 23 49
M  V30 54 1 24 50
M  V30 55 1 24 51
M  V30 56 1 26 52
M  V30 57 1 27 53
M  V30 58 1 29 54
M  V30 59 1 30 55
M  V30 60 1 31 56
M  V30 61 1 32 57
M  V30 END BOND
M  V30 END CTAB
M  END
>  <Dataset>  (492) 
ChEMBL_Kinases

>  <Ligand_Instance>  (492) 
nan

>  <PDB_ID>  (492) 
nan

>  <Standardized_SMILES>  (492) 
N[C@H](COc1cncc(-c2cccc(Nc3ncccn3)c2)c1)Cc1c[nH]c2ccccc12

>  <Name>  (492) 
nan

>  <Pocket>  (492) 
nan

>  <ATP_Site>  (492) 
nan

>  <Peripheral>  (492) 
nan

>  <Num_H_Atoms_ProtBoundConf>  (492) 
nan

>  <Num_Resolved_Atoms>  (492) 
nan

>  <Num_Not_Resolved_Atoms>  (492) 
nan

$$$$
CHEMBL202994
     RDKit          3D

  0  0  0  0  0  0  0  0  0  0999 V3000
M  V30 BEGIN CTAB
M  V30 COUNTS 56 60 0 0 0
M  V30 BEGIN ATOM
M  V30 1 C 4.096931 1.639580 -4.439842 0
M  V30 2 C 3.523509 0.560048 -3.773277 0
M  V30 3 C 3.872860 0.239363 -2.479799 0
M  V30 4 C 4.808634 0.978497 -1.790067 0
M  V30 5 C 5.343136 0.857154 -0.442082 0
M  V30 6 N 6.657956 0.576496 -0.221609 0
M  V30 7 N 6.852845 0.530137 1.098841 0
M  V30 8 C 5.703137 0.771832 1.758117 0
M  V30 9 C 4.731747 0.982155 0.787463 0
M  V30 10 C 3.318271 1.278938 0.995408 0
M  V30 11 C 3.125484 2.533413 1.563177 0
M  V30 12 C 1.850942 2.980268 1.833338 0
M  V30 13 N 0.795609 2.175650 1.535480 0
M  V30 14 C 0.957377 0.960375 0.987196 0
M  V30 15 C -0.203960 0.130047 0.682799 0
M  V30 16 C -1.424984 0.699564 1.000574 0
M  V30 17 C -2.601515 0.021352 0.762553 0
M  V30 18 C -2.603160 -1.237250 0.204771 0
M  V30 19 O -3.585734 -2.095851 -0.123452 0
M  V30 20 C -4.954767 -2.047244 -0.025680 0
M  V30 21 C -5.581970 -1.921759 1.308017 0
M  V30 22 N -5.362300 -2.919334 2.270433 0
M  V30 23 C -4.098129 -3.095947 2.858984 0
M  V30 24 C -3.554423 -4.460024 2.509174 0
M  V30 25 C -4.659191 -5.046255 1.657384 0
M  V30 26 C -5.888688 -4.213391 1.950710 0
M  V30 27 C -1.348764 -1.781597 -0.103212 0
M  V30 28 C -0.135425 -1.127391 0.121797 0
M  V30 29 C 2.216466 0.489169 0.707083 0
M  V30 30 N 5.377243 2.041021 -2.437089 0
M  V30 31 C 5.038601 2.360634 -3.707041 0
M  V30 32 H 3.802418 1.857287 -5.439130 0
M  V30 33 H 2.788137 -0.068066 -4.233645 0
M  V30 34 H 3.495439 -0.570282 -1.872083 0
M  V30 35 H 7.720341 0.343068 1.642263 0
M  V30 36 H 5.445115 0.822918 2.793370 0
M  V30 37 H 3.921541 3.236408 1.827989 0
M  V30 38 H 1.533462 3.919695 2.268747 0
M  V30 39 H -1.544284 1.676852 1.440621 0
M  V30 40 H -3.578579 0.401126 0.978711 0
M  V30 41 H -5.466143 -2.856031 -0.623790 0
M  V30 42 H -5.270829 -1.113167 -0.595361 0
M  V30 43 H -5.419442 -0.876354 1.686545 0
M  V30 44 H -6.706588 -1.919944 1.110973 0
M  V30 45 H -3.365702 -2.280147 2.759252 0
M  V30 46 H -4.276749 -3.141929 3.981824 0
M  V30 47 H -2.567117 -4.449204 2.023771 0
M  V30 48 H -3.447424 -5.129723 3.397341 0
M  V30 49 H -4.900448 -6.094465 1.970617 0
M  V30 50 H -4.434596 -5.064395 0.589841 0
M  V30 51 H -6.382326 -4.617716 2.859153 0
M  V30 52 H -6.597622 -4.203125 1.099289 0
M  V30 53 H -1.173292 -2.771988 -0.552617 0
M  V30 54 H 0.812952 -1.539355 -0.110940 0
M  V30 55 H 2.459284 -0.447350 0.279177 0
M  V30 56 H 5.508217 3.220366 -4.209221 0
M  V30 END ATOM
M  V30 BEGIN BOND
M  V30 1 2 1 2
M  V30 2 1 2 3
M  V30 3 2 3 4
M  V30 4 1 4 5
M  V30 5 2 5 6
M  V30 6 1 6 7
M  V30 7 1 7 8
M  V30 8 2 8 9
M  V30 9 1 9 10
M  V30 10 2 10 11
M  V30 11 1 11 12
M  V30 12 2 12 13
M  V30 13 1 13 14
M  V30 14 1 14 15
M  V30 15 2 15 16
M  V30 16 1 16 17
M  V30 17 2 17 18
M  V30 18 1 18 19
M  V30 19 1 19 20
M  V30 20 1 20 21
M  V30 21 1 21 22
M  V30 22 1 22 23
M  V30 23 1 23 24
M  V30 24 1 24 25
M  V30 25 1 25 26
M  V30 26 1 18 27
M  V30 27 2 27 28
M  V30 28 2 14 29
M  V30 29 1 4 30
M  V30 30 2 30 31
M  V30 31 1 31 1
M  V30 32 1 9 5
M  V30 33 1 29 10
M  V30 34 1 28 15
M  V30 35 1 26 22
M  V30 36 1 1 32
M  V30 37 1 2 33
M  V30 38 1 3 34
M  V30 39 1 7 35
M  V30 40 1 8 36
M  V30 41 1 11 37
M  V30 42 1 12 38
M  V30 43 1 16 39
M  V30 44 1 17 40
M  V30 45 1 20 41
M  V30 46 1 20 42
M  V30 47 1 21 43
M  V30 48 1 21 44
M  V30 49 1 23 45
M  V30 50 1 23 46
M  V30 51 1 24 47
M  V30 52 1 24 48
M  V30 53 1 25 49
M  V30 54 1 25 50
M  V30 55 1 26 51
M  V30 56 1 26 52
M  V30 57 1 27 53
M  V30 58 1 28 54
M  V30 59 1 29 55
M  V30 60 1 31 56
M  V30 END BOND
M  V30 END CTAB
M  END
>  <Dataset>  (493) 
ChEMBL_Kinases

>  <Ligand_Instance>  (493) 
nan

>  <PDB_ID>  (493) 
nan

>  <Standardized_SMILES>  (493) 
c1ccc(-c2n[nH]cc2-c2ccnc(-c3ccc(OCCN4CCCC4)cc3)c2)nc1

>  <Name>  (493) 
nan

>  <Pocket>  (493) 
nan

>  <ATP_Site>  (493) 
nan

>  <Peripheral>  (493) 
nan

>  <Num_H_Atoms_ProtBoundConf>  (493) 
nan

>  <Num_Resolved_Atoms>  (493) 
nan

>  <Num_Not_Resolved_Atoms>  (493) 
nan

$$$$
CHEMBL203006
     RDKit          3D

  0  0  0  0  0  0  0  0  0  0999 V3000
M  V30 BEGIN CTAB
M  V30 COUNTS 37 40 0 0 0
M  V30 BEGIN ATOM
M  V30 1 Br 3.531515 -4.911250 4.293749 0
M  V30 2 C 1.987854 -4.900242 3.170870 0
M  V30 3 C 1.173571 -6.006664 3.175219 0
M  V30 4 C 0.085290 -5.927176 2.344842 0
M  V30 5 C -0.246093 -4.844966 1.524331 0
M  V30 6 C 0.613543 -3.744332 1.555773 0
M  V30 7 C 0.262470 -2.623598 0.698644 0
M  V30 8 C 0.999725 -1.472475 0.616284 0
M  V30 9 C 0.637696 -0.410642 -0.215237 0
M  V30 10 N 1.458350 0.718796 -0.241449 0
M  V30 11 C 1.481671 2.030101 -0.823753 0
M  V30 12 C 0.438969 2.943764 -0.265449 0
M  V30 13 C -0.812343 3.318024 -0.636847 0
M  V30 14 C -1.528183 4.193688 0.149019 0
M  V30 15 N -1.058529 4.718103 1.290885 0
M  V30 16 C 0.182075 4.374518 1.699589 0
M  V30 17 C 0.924422 3.493467 0.925736 0
M  V30 18 N -0.486964 -0.614530 -0.922052 0
M  V30 19 N -1.086485 0.159263 -1.779669 0
M  V30 20 C -2.190582 -0.406575 -2.281768 0
M  V30 21 N -2.295453 -1.611317 -1.706753 0
M  V30 22 C -1.244192 -1.722244 -0.877484 0
M  V30 23 N -0.841537 -2.706799 -0.057364 0
M  V30 24 C 1.712625 -3.802628 2.382602 0
M  V30 25 H 1.326445 -6.899265 3.764978 0
M  V30 26 H -0.593135 -6.786082 2.314798 0
M  V30 27 H -1.123710 -4.882718 0.909640 0
M  V30 28 H 1.885056 -1.422138 1.231492 0
M  V30 29 H 2.357532 0.662415 0.322332 0
M  V30 30 H 2.447383 2.530602 -0.850260 0
M  V30 31 H 1.177396 1.902261 -1.916179 0
M  V30 32 H -1.098850 2.866276 -1.554281 0
M  V30 33 H -2.514481 4.430407 -0.230592 0
M  V30 34 H 0.480560 4.831730 2.611542 0
M  V30 35 H 1.901951 3.329042 1.408056 0
M  V30 36 H -2.736868 0.200128 -3.009910 0
M  V30 37 H 2.388955 -2.963369 2.421637 0
M  V30 END ATOM
M  V30 BEGIN BOND
M  V30 1 1 1 2
M  V30 2 2 2 3
M  V30 3 1 3 4
M  V30 4 2 4 5
M  V30 5 1 5 6
M  V30 6 1 6 7
M  V30 7 1 7 8
M  V30 8 2 8 9
M  V30 9 1 9 10
M  V30 10 1 10 11
M  V30 11 1 11 12
M  V30 12 2 12 13
M  V30 13 1 13 14
M  V30 14 2 14 15
M  V30 15 1 15 16
M  V30 16 2 16 17
M  V30 17 1 9 18
M  V30 18 1 18 19
M  V30 19 2 19 20
M  V30 20 1 20 21
M  V30 21 2 21 22
M  V30 22 1 22 23
M  V30 23 2 6 24
M  V30 24 1 24 2
M  V30 25 2 23 7
M  V30 26 1 17 12
M  V30 27 1 22 18
M  V30 28 1 3 25
M  V30 29 1 4 26
M  V30 30 1 5 27
M  V30 31 1 8 28
M  V30 32 1 10 29
M  V30 33 1 11 30
M  V30 34 1 11 31
M  V30 35 1 13 32
M  V30 36 1 14 33
M  V30 37 1 16 34
M  V30 38 1 17 35
M  V30 39 1 20 36
M  V30 40 1 24 37
M  V30 END BOND
M  V30 END CTAB
M  END
>  <Dataset>  (494) 
ChEMBL_Kinases

>  <Ligand_Instance>  (494) 
nan

>  <PDB_ID>  (494) 
nan

>  <Standardized_SMILES>  (494) 
Brc1cccc(-c2cc(NCc3ccncc3)n3ncnc3n2)c1

>  <Name>  (494) 
nan

>  <Pocket>  (494) 
nan

>  <ATP_Site>  (494) 
nan

>  <Peripheral>  (494) 
nan

>  <Num_H_Atoms_ProtBoundConf>  (494) 
nan

>  <Num_Resolved_Atoms>  (494) 
nan

>  <Num_Not_Resolved_Atoms>  (494) 
nan

$$$$
CHEMBL2030378
     RDKit          3D

  0  0  0  0  0  0  0  0  0  0999 V3000
M  V30 BEGIN CTAB
M  V30 COUNTS 36 39 0 0 0
M  V30 BEGIN ATOM
M  V30 1 O 3.841258 -0.443480 2.740181 0
M  V30 2 C 2.912701 -0.283275 1.905668 0
M  V30 3 N 2.505978 -1.300323 1.116619 0
M  V30 4 C 1.504075 -1.173783 0.198147 0
M  V30 5 C 1.100116 -2.323932 -0.640495 0
M  V30 6 N 0.089538 -3.143382 -0.117617 0
M  V30 7 C -0.338016 -4.261992 -0.883528 0
M  V30 8 C -1.566727 -4.760169 -0.113938 0
M  V30 9 C -2.210850 -3.453807 0.286053 0 CFG=2
M  V30 10 O -2.916891 -2.926720 -0.784304 0
M  V30 11 C -0.992205 -2.579099 0.581193 0
M  V30 12 N 0.888757 0.028304 0.072078 0
M  V30 13 C 1.241592 1.091279 0.826940 0
M  V30 14 C 2.259033 0.924981 1.744928 0
M  V30 15 O 2.406345 2.091831 2.341698 0
M  V30 16 C 1.559984 2.969867 1.866130 0
M  V30 17 C 1.340447 4.297867 2.171268 0
M  V30 18 C 0.373291 5.040183 1.526176 0
M  V30 19 C -0.397141 4.417275 0.539403 0
M  V30 20 Cl -1.668127 5.254740 -0.362034 0
M  V30 21 C -0.219896 3.093330 0.194999 0
M  V30 22 C 0.761428 2.400507 0.873048 0
M  V30 23 H 3.000562 -2.221692 1.235485 0
M  V30 24 H 2.028169 -2.933824 -0.824751 0
M  V30 25 H 0.801778 -1.933030 -1.635042 0
M  V30 26 H 0.396643 -5.041315 -1.074138 0
M  V30 27 H -0.777810 -3.841484 -1.835214 0
M  V30 28 H -1.255516 -5.337144 0.782184 0
M  V30 29 H -2.249090 -5.340065 -0.744824 0
M  V30 30 H -2.864247 -3.560394 1.173192 0
M  V30 31 H -2.415452 -2.232318 -1.259747 0
M  V30 32 H -1.228864 -1.568067 0.184974 0
M  V30 33 H -0.903120 -2.571671 1.682215 0
M  V30 34 H 1.904589 4.838002 2.926544 0
M  V30 35 H 0.102145 6.068568 1.664676 0
M  V30 36 H -0.800812 2.587361 -0.563183 0
M  V30 END ATOM
M  V30 BEGIN BOND
M  V30 1 2 1 2
M  V30 2 1 2 3
M  V30 3 1 3 4
M  V30 4 1 4 5
M  V30 5 1 5 6
M  V30 6 1 6 7
M  V30 7 1 7 8
M  V30 8 1 8 9
M  V30 9 1 9 10
M  V30 10 1 9 11
M  V30 11 2 4 12
M  V30 12 1 12 13
M  V30 13 2 13 14
M  V30 14 1 14 15
M  V30 15 1 15 16
M  V30 16 2 16 17
M  V30 17 1 17 18
M  V30 18 2 18 19
M  V30 19 1 19 20
M  V30 20 1 19 21
M  V30 21 2 21 22
M  V30 22 1 14 2
M  V30 23 1 22 16
M  V30 24 1 11 6
M  V30 25 1 22 13
M  V30 26 1 3 23
M  V30 27 1 5 24
M  V30 28 1 5 25
M  V30 29 1 7 26
M  V30 30 1 7 27
M  V30 31 1 8 28
M  V30 32 1 8 29
M  V30 33 1 9 30 CFG=1
M  V30 34 1 10 31
M  V30 35 1 11 32
M  V30 36 1 11 33
M  V30 37 1 17 34
M  V30 38 1 18 35
M  V30 39 1 21 36
M  V30 END BOND
M  V30 END CTAB
M  END
>  <Dataset>  (495) 
ChEMBL_Kinases

>  <Ligand_Instance>  (495) 
nan

>  <PDB_ID>  (495) 
nan

>  <Standardized_SMILES>  (495) 
O=c1[nH]c(CN2CC[C@H](O)C2)nc2c1oc1ccc(Cl)cc12

>  <Name>  (495) 
nan

>  <Pocket>  (495) 
nan

>  <ATP_Site>  (495) 
nan

>  <Peripheral>  (495) 
nan

>  <Num_H_Atoms_ProtBoundConf>  (495) 
nan

>  <Num_Resolved_Atoms>  (495) 
nan

>  <Num_Not_Resolved_Atoms>  (495) 
nan

$$$$
CHEMBL2030379
     RDKit          3D

  0  0  0  0  0  0  0  0  0  0999 V3000
M  V30 BEGIN CTAB
M  V30 COUNTS 40 43 0 0 0
M  V30 BEGIN ATOM
M  V30 1 C -0.905098 -5.166189 2.312536 0
M  V30 2 O 0.443088 -5.402215 1.942314 0
M  V30 3 C 1.156484 -4.471128 1.238534 0
M  V30 4 C 2.476686 -4.729812 0.889256 0
M  V30 5 C 3.230567 -3.814523 0.178547 0
M  V30 6 C 2.627490 -2.607045 -0.185810 0
M  V30 7 O 3.054600 -1.555538 -0.844789 0
M  V30 8 C 2.123959 -0.651007 -0.945913 0
M  V30 9 C 2.045896 0.601965 -1.520528 0
M  V30 10 O 3.050046 1.078984 -2.110248 0
M  V30 11 N 0.886563 1.282216 -1.431716 0
M  V30 12 C -0.237270 0.857610 -0.824250 0
M  V30 13 C -1.473699 1.629572 -0.751691 0
M  V30 14 N -1.620081 2.494240 0.379412 0
M  V30 15 C -0.660902 3.511416 0.559485 0
M  V30 16 C 0.107501 3.170409 1.820794 0
M  V30 17 C -0.715297 2.148240 2.551747 0 CFG=2
M  V30 18 O 0.015800 1.002689 2.854503 0
M  V30 19 C -1.855649 1.820677 1.612751 0
M  V30 20 N -0.158520 -0.380107 -0.257226 0
M  V30 21 C 0.978059 -1.097994 -0.319774 0
M  V30 22 C 1.315362 -2.363188 0.167704 0
M  V30 23 C 0.567695 -3.279950 0.876891 0
M  V30 24 H -0.929353 -4.171891 2.827879 0
M  V30 25 H -1.307281 -5.936599 2.967677 0
M  V30 26 H -1.478768 -5.020154 1.372377 0
M  V30 27 H 2.919802 -5.680631 1.187579 0
M  V30 28 H 4.260145 -4.010394 -0.096672 0
M  V30 29 H 0.901454 2.219079 -1.887768 0
M  V30 30 H -2.315820 0.880649 -0.660695 0
M  V30 31 H -1.673621 2.133999 -1.715495 0
M  V30 32 H 0.028211 3.734428 -0.245169 0
M  V30 33 H -1.221308 4.472304 0.756254 0
M  V30 34 H 0.321572 4.067741 2.435368 0
M  V30 35 H 1.075314 2.677502 1.564535 0
M  V30 36 H -1.046847 2.581215 3.516993 0
M  V30 37 H -0.574122 0.206616 2.740812 0
M  V30 38 H -1.979787 0.723751 1.508256 0
M  V30 39 H -2.765490 2.288318 2.083907 0
M  V30 40 H -0.463901 -3.093699 1.157458 0
M  V30 END ATOM
M  V30 BEGIN BOND
M  V30 1 1 1 2
M  V30 2 1 2 3
M  V30 3 2 3 4
M  V30 4 1 4 5
M  V30 5 2 5 6
M  V30 6 1 6 7
M  V30 7 1 7 8
M  V30 8 1 8 9
M  V30 9 2 9 10
M  V30 10 1 9 11
M  V30 11 1 11 12
M  V30 12 1 12 13
M  V30 13 1 13 14
M  V30 14 1 14 15
M  V30 15 1 15 16
M  V30 16 1 16 17
M  V30 17 1 17 18
M  V30 18 1 17 19
M  V30 19 2 12 20
M  V30 20 1 20 21
M  V30 21 1 21 22
M  V30 22 2 22 23
M  V30 23 1 23 3
M  V30 24 1 22 6
M  V30 25 2 21 8
M  V30 26 1 19 14
M  V30 27 1 1 24
M  V30 28 1 1 25
M  V30 29 1 1 26
M  V30 30 1 4 27
M  V30 31 1 5 28
M  V30 32 1 11 29
M  V30 33 1 13 30
M  V30 34 1 13 31
M  V30 35 1 15 32
M  V30 36 1 15 33
M  V30 37 1 16 34
M  V30 38 1 16 35
M  V30 39 1 17 36 CFG=1
M  V30 40 1 18 37
M  V30 41 1 19 38
M  V30 42 1 19 39
M  V30 43 1 23 40
M  V30 END BOND
M  V30 END CTAB
M  END
>  <Dataset>  (496) 
ChEMBL_Kinases

>  <Ligand_Instance>  (496) 
nan

>  <PDB_ID>  (496) 
nan

>  <Standardized_SMILES>  (496) 
COc1ccc2oc3c(=O)[nH]c(CN4CC[C@H](O)C4)nc3c2c1

>  <Name>  (496) 
nan

>  <Pocket>  (496) 
nan

>  <ATP_Site>  (496) 
nan

>  <Peripheral>  (496) 
nan

>  <Num_H_Atoms_ProtBoundConf>  (496) 
nan

>  <Num_Resolved_Atoms>  (496) 
nan

>  <Num_Not_Resolved_Atoms>  (496) 
nan

$$$$
CHEMBL2030383
     RDKit          3D

  0  0  0  0  0  0  0  0  0  0999 V3000
M  V30 BEGIN CTAB
M  V30 COUNTS 37 40 0 0 0
M  V30 BEGIN ATOM
M  V30 1 O 2.822003 -0.314270 3.403006 0
M  V30 2 C 1.799701 -0.596697 2.729741 0
M  V30 3 N 1.582317 -1.830377 2.237473 0
M  V30 4 C 0.510928 -2.199883 1.510007 0
M  V30 5 C 0.270495 -3.539087 0.972917 0
M  V30 6 N 0.796786 -3.780557 -0.345992 0
M  V30 7 C 2.206669 -3.628145 -0.451489 0
M  V30 8 C 2.403839 -2.285377 -1.095075 0
M  V30 9 C 1.266057 -2.239907 -2.094456 0 CFG=2
M  V30 10 O 0.872215 -0.942800 -2.358088 0
M  V30 11 C 0.174953 -3.019195 -1.379293 0
M  V30 12 N -0.440771 -1.266106 1.239212 0
M  V30 13 C -0.275249 -0.014566 1.706902 0
M  V30 14 C 0.840586 0.358514 2.461044 0
M  V30 15 O 0.766435 1.614676 2.791958 0
M  V30 16 C -0.332496 2.165354 2.322336 0
M  V30 17 C -0.801183 3.465419 2.438897 0
M  V30 18 C -2.007323 3.716926 1.818488 0
M  V30 19 O -2.469857 5.034346 1.943758 0
M  V30 20 C -2.719675 2.760614 1.123427 0
M  V30 21 Br -4.366813 3.244280 0.317885 0
M  V30 22 C -2.206264 1.466643 1.034460 0
M  V30 23 C -1.016110 1.163963 1.630432 0
M  V30 24 H 2.302345 -2.540954 2.441219 0
M  V30 25 H 0.738160 -4.296098 1.647122 0
M  V30 26 H -0.817366 -3.754815 0.968894 0
M  V30 27 H 2.572950 -4.381633 -1.205573 0
M  V30 28 H 2.774236 -3.804057 0.456545 0
M  V30 29 H 3.393039 -2.215083 -1.584782 0
M  V30 30 H 2.284510 -1.425388 -0.442427 0
M  V30 31 H 1.643262 -2.765822 -2.998137 0
M  V30 32 H 1.200199 -0.715911 -3.285349 0
M  V30 33 H -0.241943 -3.702501 -2.171760 0
M  V30 34 H -0.623268 -2.329058 -1.035787 0
M  V30 35 H -0.231004 4.202418 2.986773 0
M  V30 36 H -2.325402 5.738474 1.215208 0
M  V30 37 H -2.749314 0.700240 0.493477 0
M  V30 END ATOM
M  V30 BEGIN BOND
M  V30 1 2 1 2
M  V30 2 1 2 3
M  V30 3 1 3 4
M  V30 4 1 4 5
M  V30 5 1 5 6
M  V30 6 1 6 7
M  V30 7 1 7 8
M  V30 8 1 8 9
M  V30 9 1 9 10
M  V30 10 1 9 11
M  V30 11 2 4 12
M  V30 12 1 12 13
M  V30 13 2 13 14
M  V30 14 1 14 15
M  V30 15 1 15 16
M  V30 16 2 16 17
M  V30 17 1 17 18
M  V30 18 1 18 19
M  V30 19 2 18 20
M  V30 20 1 20 21
M  V30 21 1 20 22
M  V30 22 2 22 23
M  V30 23 1 14 2
M  V30 24 1 23 16
M  V30 25 1 11 6
M  V30 26 1 23 13
M  V30 27 1 3 24
M  V30 28 1 5 25
M  V30 29 1 5 26
M  V30 30 1 7 27
M  V30 31 1 7 28
M  V30 32 1 8 29
M  V30 33 1 8 30
M  V30 34 1 9 31 CFG=3
M  V30 35 1 10 32
M  V30 36 1 11 33
M  V30 37 1 11 34
M  V30 38 1 17 35
M  V30 39 1 19 36
M  V30 40 1 22 37
M  V30 END BOND
M  V30 END CTAB
M  END
>  <Dataset>  (497) 
ChEMBL_Kinases

>  <Ligand_Instance>  (497) 
nan

>  <PDB_ID>  (497) 
nan

>  <Standardized_SMILES>  (497) 
O=c1[nH]c(CN2CC[C@H](O)C2)nc2c1oc1cc(O)c(Br)cc12

>  <Name>  (497) 
nan

>  <Pocket>  (497) 
nan

>  <ATP_Site>  (497) 
nan

>  <Peripheral>  (497) 
nan

>  <Num_H_Atoms_ProtBoundConf>  (497) 
nan

>  <Num_Resolved_Atoms>  (497) 
nan

>  <Num_Not_Resolved_Atoms>  (497) 
nan

$$$$
CHEMBL2030980
     RDKit          3D

  0  0  0  0  0  0  0  0  0  0999 V3000
M  V30 BEGIN CTAB
M  V30 COUNTS 47 50 0 0 0
M  V30 BEGIN ATOM
M  V30 1 C -3.051594 -2.869733 5.629331 0
M  V30 2 O -2.101761 -3.448375 4.748177 0
M  V30 3 C -1.337026 -2.631948 3.931200 0
M  V30 4 C -1.528917 -1.263246 4.005541 0
M  V30 5 C -0.756064 -0.496640 3.184113 0
M  V30 6 C 0.196194 -0.945835 2.286511 0
M  V30 7 C 0.953283 -0.010105 1.466382 0
M  V30 8 N 1.528149 1.129671 1.902515 0
M  V30 9 N 2.138474 1.742104 0.881017 0
M  V30 10 C 2.885470 2.951086 0.778563 0
M  V30 11 C 2.659211 3.845848 -0.249148 0
M  V30 12 C 3.348633 5.046578 -0.418032 0
M  V30 13 C 4.313698 5.318624 0.529828 0
M  V30 14 C 4.587063 4.455994 1.588542 0
M  V30 15 C 3.862328 3.263961 1.707027 0
M  V30 16 C 1.961626 0.996186 -0.237147 0
M  V30 17 C 1.205191 -0.121814 0.135620 0
M  V30 18 C 0.804003 -1.169458 -0.796244 0
M  V30 19 O 1.693819 -1.709689 -1.512068 0
M  V30 20 N -0.564787 -1.507562 -0.831169 0
M  V30 21 C -1.392057 -2.420368 -1.540802 0
M  V30 22 C -1.914661 -1.922170 -2.716642 0
M  V30 23 C -2.738946 -2.646123 -3.545905 0
M  V30 24 C -3.030150 -3.941060 -3.134574 0
M  V30 25 Cl -4.065727 -4.942755 -4.114309 0
M  V30 26 C -2.513598 -4.447487 -1.963002 0
M  V30 27 C -1.685924 -3.708326 -1.136811 0
M  V30 28 C 0.341659 -2.333053 2.259889 0
M  V30 29 C -0.407180 -3.159512 3.063142 0
M  V30 30 H -3.865317 -2.466121 4.977502 0
M  V30 31 H -2.642404 -2.021600 6.203452 0
M  V30 32 H -3.449189 -3.618287 6.349360 0
M  V30 33 H -2.235571 -0.762521 4.656196 0
M  V30 34 H -0.882546 0.595841 3.217431 0
M  V30 35 H 1.886383 3.571073 -0.960890 0
M  V30 36 H 3.120395 5.701107 -1.247770 0
M  V30 37 H 4.872128 6.239655 0.438869 0
M  V30 38 H 5.355567 4.711987 2.310201 0
M  V30 39 H 4.052888 2.576545 2.518857 0
M  V30 40 H 2.313992 1.171925 -1.262278 0
M  V30 41 H -1.280953 -1.041275 -0.220848 0
M  V30 42 H -1.714022 -0.909088 -3.082926 0
M  V30 43 H -3.164829 -2.282970 -4.473924 0
M  V30 44 H -2.707962 -5.454900 -1.591333 0
M  V30 45 H -1.253550 -4.049963 -0.210887 0
M  V30 46 H 1.085199 -2.722400 1.562011 0
M  V30 47 H -0.290535 -4.238074 3.037026 0
M  V30 END ATOM
M  V30 BEGIN BOND
M  V30 1 1 1 2
M  V30 2 1 2 3
M  V30 3 2 3 4
M  V30 4 1 4 5
M  V30 5 2 5 6
M  V30 6 1 6 7
M  V30 7 2 7 8
M  V30 8 1 8 9
M  V30 9 1 9 10
M  V30 10 2 10 11
M  V30 11 1 11 12
M  V30 12 2 12 13
M  V30 13 1 13 14
M  V30 14 2 14 15
M  V30 15 1 9 16
M  V30 16 2 16 17
M  V30 17 1 17 18
M  V30 18 2 18 19
M  V30 19 1 18 20
M  V30 20 1 20 21
M  V30 21 2 21 22
M  V30 22 1 22 23
M  V30 23 2 23 24
M  V30 24 1 24 25
M  V30 25 1 24 26
M  V30 26 2 26 27
M  V30 27 1 6 28
M  V30 28 2 28 29
M  V30 29 1 29 3
M  V30 30 1 17 7
M  V30 31 1 27 21
M  V30 32 1 15 10
M  V30 33 1 1 30
M  V30 34 1 1 31
M  V30 35 1 1 32
M  V30 36 1 4 33
M  V30 37 1 5 34
M  V30 38 1 11 35
M  V30 39 1 12 36
M  V30 40 1 13 37
M  V30 41 1 14 38
M  V30 42 1 15 39
M  V30 43 1 16 40
M  V30 44 1 20 41
M  V30 45 1 22 42
M  V30 46 1 23 43
M  V30 47 1 26 44
M  V30 48 1 27 45
M  V30 49 1 28 46
M  V30 50 1 29 47
M  V30 END BOND
M  V30 END CTAB
M  END
>  <Dataset>  (498) 
ChEMBL_Kinases

>  <Ligand_Instance>  (498) 
nan

>  <PDB_ID>  (498) 
nan

>  <Standardized_SMILES>  (498) 
COc1ccc(-c2nn(-c3ccccc3)cc2C(=O)Nc2ccc(Cl)cc2)cc1

>  <Name>  (498) 
nan

>  <Pocket>  (498) 
nan

>  <ATP_Site>  (498) 
nan

>  <Peripheral>  (498) 
nan

>  <Num_H_Atoms_ProtBoundConf>  (498) 
nan

>  <Num_Resolved_Atoms>  (498) 
nan

>  <Num_Not_Resolved_Atoms>  (498) 
nan

$$$$
CHEMBL2030972
     RDKit          3D

  0  0  0  0  0  0  0  0  0  0999 V3000
M  V30 BEGIN CTAB
M  V30 COUNTS 43 46 0 0 0
M  V30 BEGIN ATOM
M  V30 1 O 1.978765 -2.147249 2.001693 0
M  V30 2 C 1.488532 -1.287384 1.234616 0
M  V30 3 N 2.344314 -0.859378 0.159761 0
M  V30 4 C 3.674908 -1.235982 -0.209568 0
M  V30 5 C 4.397318 -2.174697 0.450291 0
M  V30 6 C 5.678104 -2.524667 0.089905 0
M  V30 7 C 6.252071 -1.886631 -0.996277 0
M  V30 8 Br 7.992171 -2.225756 -1.642623 0
M  V30 9 C 5.490644 -0.932536 -1.650017 0
M  V30 10 C 4.178118 -0.559459 -1.297771 0
M  V30 11 C 0.132040 -0.727399 1.391325 0
M  V30 12 C 0.092026 0.621171 1.782573 0
M  V30 13 N -1.238372 0.933736 1.835578 0
M  V30 14 C -1.654376 2.260130 2.206310 0
M  V30 15 C -1.437309 3.254660 1.245242 0
M  V30 16 C -1.790693 4.568765 1.501115 0
M  V30 17 C -2.357897 4.892413 2.708947 0
M  V30 18 C -2.590049 3.936754 3.686859 0
M  V30 19 C -2.226530 2.644150 3.396012 0
M  V30 20 N -1.983975 -0.125764 1.507232 0
M  V30 21 C -1.157787 -1.171276 1.226940 0
M  V30 22 C -1.515559 -2.522150 0.832603 0
M  V30 23 C -1.005865 -3.719786 1.290291 0
M  V30 24 C -1.548069 -4.870491 0.740963 0
M  V30 25 C -2.536455 -4.912056 -0.207909 0
M  V30 26 C -3.045659 -3.709671 -0.664251 0
M  V30 27 C -2.519020 -2.542259 -0.129459 0
M  V30 28 H 1.833825 -0.133576 -0.427058 0
M  V30 29 H 4.029343 -2.717471 1.300355 0
M  V30 30 H 6.257605 -3.273015 0.614735 0
M  V30 31 H 5.902083 -0.404465 -2.510989 0
M  V30 32 H 3.671028 0.199635 -1.881205 0
M  V30 33 H 0.897182 1.321956 2.008677 0
M  V30 34 H -0.998454 3.093485 0.263142 0
M  V30 35 H -1.637578 5.372922 0.771830 0
M  V30 36 H -2.632314 5.945381 2.894293 0
M  V30 37 H -3.036751 4.171818 4.645634 0
M  V30 38 H -2.356616 1.809976 4.074337 0
M  V30 39 H -0.248160 -3.646198 2.025591 0
M  V30 40 H -1.108928 -5.788297 1.138867 0
M  V30 41 H -2.871210 -5.889233 -0.551547 0
M  V30 42 H -3.814422 -3.757115 -1.398554 0
M  V30 43 H -3.003062 -1.662372 -0.569697 0
M  V30 END ATOM
M  V30 BEGIN BOND
M  V30 1 2 1 2
M  V30 2 1 2 3
M  V30 3 1 3 4
M  V30 4 2 4 5
M  V30 5 1 5 6
M  V30 6 2 6 7
M  V30 7 1 7 8
M  V30 8 1 7 9
M  V30 9 2 9 10
M  V30 10 1 2 11
M  V30 11 2 11 12
M  V30 12 1 12 13
M  V30 13 1 13 14
M  V30 14 2 14 15
M  V30 15 1 15 16
M  V30 16 2 16 17
M  V30 17 1 17 18
M  V30 18 2 18 19
M  V30 19 1 13 20
M  V30 20 2 20 21
M  V30 21 1 21 22
M  V30 22 2 22 23
M  V30 23 1 23 24
M  V30 24 2 24 25
M  V30 25 1 25 26
M  V30 26 2 26 27
M  V30 27 1 10 4
M  V30 28 1 21 11
M  V30 29 1 27 22
M  V30 30 1 19 14
M  V30 31 1 3 28
M  V30 32 1 5 29
M  V30 33 1 6 30
M  V30 34 1 9 31
M  V30 35 1 10 32
M  V30 36 1 12 33
M  V30 37 1 15 34
M  V30 38 1 16 35
M  V30 39 1 17 36
M  V30 40 1 18 37
M  V30 41 1 19 38
M  V30 42 1 23 39
M  V30 43 1 24 40
M  V30 44 1 25 41
M  V30 45 1 26 42
M  V30 46 1 27 43
M  V30 END BOND
M  V30 END CTAB
M  END
>  <Dataset>  (499) 
ChEMBL_Kinases

>  <Ligand_Instance>  (499) 
nan

>  <PDB_ID>  (499) 
nan

>  <Standardized_SMILES>  (499) 
O=C(Nc1ccc(Br)cc1)c1cn(-c2ccccc2)nc1-c1ccccc1

>  <Name>  (499) 
nan

>  <Pocket>  (499) 
nan

>  <ATP_Site>  (499) 
nan

>  <Peripheral>  (499) 
nan

>  <Num_H_Atoms_ProtBoundConf>  (499) 
nan

>  <Num_Resolved_Atoms>  (499) 
nan

>  <Num_Not_Resolved_Atoms>  (499) 
nan

$$$$
CHEMBL2030973
     RDKit          3D

  0  0  0  0  0  0  0  0  0  0999 V3000
M  V30 BEGIN CTAB
M  V30 COUNTS 47 50 0 0 0
M  V30 BEGIN ATOM
M  V30 1 C -0.561375 -5.811642 6.784904 0
M  V30 2 O 0.050508 -5.854173 5.516039 0
M  V30 3 C 0.106039 -4.755605 4.710680 0
M  V30 4 C 0.708228 -4.846545 3.477514 0
M  V30 5 C 0.800489 -3.780927 2.613491 0
M  V30 6 C 0.297054 -2.536052 2.915613 0
M  V30 7 N 0.322770 -1.386635 2.100554 0
M  V30 8 C 0.816974 -1.230493 0.773818 0
M  V30 9 O 1.308652 -2.226431 0.211565 0
M  V30 10 C 0.755965 0.043214 0.083937 0
M  V30 11 C 1.501498 1.130941 0.473749 0
M  V30 12 N 1.171105 2.105108 -0.388098 0
M  V30 13 C 1.539800 3.487411 -0.595576 0
M  V30 14 C 2.740939 3.688731 -1.233810 0
M  V30 15 C 3.068365 5.035523 -1.428991 0
M  V30 16 C 2.230290 6.071583 -1.003172 0
M  V30 17 C 1.044865 5.743269 -0.371394 0
M  V30 18 C 0.640602 4.423149 -0.135591 0
M  V30 19 N 0.276855 1.654449 -1.260095 0
M  V30 20 C -0.024105 0.351255 -1.008401 0
M  V30 21 C -0.982838 -0.405793 -1.795954 0
M  V30 22 C -0.871979 -1.646234 -2.330866 0
M  V30 23 C -1.874997 -2.254544 -3.057950 0
M  V30 24 C -3.077822 -1.600001 -3.279196 0
M  V30 25 C -3.193372 -0.339138 -2.737242 0
M  V30 26 C -2.192004 0.266123 -2.011788 0
M  V30 27 C -0.303702 -2.443945 4.142161 0
M  V30 28 C -0.405538 -3.501176 5.021123 0
M  V30 29 H -0.439523 -4.823423 7.241738 0
M  V30 30 H -1.643764 -6.081038 6.622182 0
M  V30 31 H -0.095202 -6.547624 7.489965 0
M  V30 32 H 1.125702 -5.796073 3.177005 0
M  V30 33 H 1.285561 -3.936321 1.666586 0
M  V30 34 H -0.065778 -0.493404 2.476202 0
M  V30 35 H 2.213055 1.338397 1.238822 0
M  V30 36 H 3.397366 2.903371 -1.566953 0
M  V30 37 H 3.996537 5.299332 -1.926327 0
M  V30 38 H 2.489448 7.111126 -1.159445 0
M  V30 39 H 0.380376 6.528582 -0.033797 0
M  V30 40 H -0.281085 4.161586 0.357359 0
M  V30 41 H 0.058114 -2.160949 -2.174351 0
M  V30 42 H -1.684956 -3.247256 -3.443688 0
M  V30 43 H -3.810655 -2.141713 -3.853971 0
M  V30 44 H -4.161362 0.135917 -2.939073 0
M  V30 45 H -2.450985 1.277575 -1.654368 0
M  V30 46 H -0.725531 -1.502559 4.463215 0
M  V30 47 H -0.890495 -3.351219 5.953470 0
M  V30 END ATOM
M  V30 BEGIN BOND
M  V30 1 1 1 2
M  V30 2 1 2 3
M  V30 3 2 3 4
M  V30 4 1 4 5
M  V30 5 2 5 6
M  V30 6 1 6 7
M  V30 7 1 7 8
M  V30 8 2 8 9
M  V30 9 1 8 10
M  V30 10 2 10 11
M  V30 11 1 11 12
M  V30 12 1 12 13
M  V30 13 2 13 14
M  V30 14 1 14 15
M  V30 15 2 15 16
M  V30 16 1 16 17
M  V30 17 2 17 18
M  V30 18 1 12 19
M  V30 19 2 19 20
M  V30 20 1 20 21
M  V30 21 2 21 22
M  V30 22 1 22 23
M  V30 23 2 23 24
M  V30 24 1 24 25
M  V30 25 2 25 26
M  V30 26 1 6 27
M  V30 27 2 27 28
M  V30 28 1 28 3
M  V30 29 1 20 10
M  V30 30 1 26 21
M  V30 31 1 18 13
M  V30 32 1 1 29
M  V30 33 1 1 30
M  V30 34 1 1 31
M  V30 35 1 4 32
M  V30 36 1 5 33
M  V30 37 1 7 34
M  V30 38 1 11 35
M  V30 39 1 14 36
M  V30 40 1 15 37
M  V30 41 1 16 38
M  V30 42 1 17 39
M  V30 43 1 18 40
M  V30 44 1 22 41
M  V30 45 1 23 42
M  V30 46 1 24 43
M  V30 47 1 25 44
M  V30 48 1 26 45
M  V30 49 1 27 46
M  V30 50 1 28 47
M  V30 END BOND
M  V30 END CTAB
M  END
>  <Dataset>  (500) 
ChEMBL_Kinases

>  <Ligand_Instance>  (500) 
nan

>  <PDB_ID>  (500) 
nan

>  <Standardized_SMILES>  (500) 
COc1ccc(NC(=O)c2cn(-c3ccccc3)nc2-c2ccccc2)cc1

>  <Name>  (500) 
nan

>  <Pocket>  (500) 
nan

>  <ATP_Site>  (500) 
nan

>  <Peripheral>  (500) 
nan

>  <Num_H_Atoms_ProtBoundConf>  (500) 
nan

>  <Num_Resolved_Atoms>  (500) 
nan

>  <Num_Not_Resolved_Atoms>  (500) 
nan

$$$$
CHEMBL2030974
     RDKit          3D

  0  0  0  0  0  0  0  0  0  0999 V3000
M  V30 BEGIN CTAB
M  V30 COUNTS 50 53 0 0 0
M  V30 BEGIN ATOM
M  V30 1 C 0.970843 -7.741530 1.982111 0
M  V30 2 C 2.187675 -7.613285 1.131979 0
M  V30 3 O 2.859786 -6.384859 1.287347 0
M  V30 4 C 2.309186 -5.139337 1.031142 0
M  V30 5 C 3.223923 -4.138457 1.283232 0
M  V30 6 C 2.844768 -2.802203 1.078871 0
M  V30 7 C 1.551931 -2.585871 0.629551 0
M  V30 8 N 1.102008 -1.255138 0.403073 0
M  V30 9 C 1.015863 -0.237375 -0.595543 0
M  V30 10 O 1.501736 -0.581559 -1.697803 0
M  V30 11 C 0.376252 1.010361 -0.132995 0
M  V30 12 C 0.928091 1.895369 0.767516 0
M  V30 13 N 0.088404 2.921098 0.986137 0
M  V30 14 C 0.103463 4.097845 1.787270 0
M  V30 15 C 0.510063 5.343720 1.349597 0
M  V30 16 C 0.476185 6.416216 2.229428 0
M  V30 17 C 0.031240 6.166388 3.507686 0
M  V30 18 C -0.379804 4.933960 3.971270 0
M  V30 19 C -0.341914 3.858785 3.075425 0
M  V30 20 N -0.994025 2.703584 0.235036 0
M  V30 21 C -0.857145 1.549493 -0.461072 0
M  V30 22 C -1.835846 0.972418 -1.379239 0
M  V30 23 C -1.598578 0.483448 -2.642279 0
M  V30 24 C -2.656430 -0.053856 -3.382898 0
M  V30 25 C -3.922106 -0.073621 -2.810978 0
M  V30 26 C -4.157714 0.418291 -1.542816 0
M  V30 27 C -3.099277 0.955236 -0.801111 0
M  V30 28 C 0.640975 -3.589745 0.378540 0
M  V30 29 C 1.025926 -4.922188 0.584246 0
M  V30 30 H 1.037394 -8.560157 2.729586 0
M  V30 31 H 0.733288 -6.785867 2.533381 0
M  V30 32 H 0.094607 -7.943065 1.338549 0
M  V30 33 H 2.882268 -8.459467 1.346511 0
M  V30 34 H 1.884445 -7.670682 0.066179 0
M  V30 35 H 4.238202 -4.255577 1.633262 0
M  V30 36 H 3.536386 -1.991078 1.263442 0
M  V30 37 H 0.728188 -1.091109 1.387870 0
M  V30 38 H 1.875058 1.865366 1.277566 0
M  V30 39 H 0.838639 5.416356 0.313076 0
M  V30 40 H 0.801343 7.381158 1.864989 0
M  V30 41 H 0.023694 7.031066 4.157039 0
M  V30 42 H -0.719607 4.823932 5.003045 0
M  V30 43 H -0.667260 2.905127 3.456221 0
M  V30 44 H -0.603199 0.542539 -2.996521 0
M  V30 45 H -2.443266 -0.431709 -4.390647 0
M  V30 46 H -4.684916 -0.507092 -3.460129 0
M  V30 47 H -5.207851 0.332720 -1.229733 0
M  V30 48 H -3.373934 1.315630 0.183120 0
M  V30 49 H -0.358614 -3.412498 0.029980 0
M  V30 50 H 0.381178 -5.754221 0.409759 0
M  V30 END ATOM
M  V30 BEGIN BOND
M  V30 1 1 1 2
M  V30 2 1 2 3
M  V30 3 1 3 4
M  V30 4 2 4 5
M  V30 5 1 5 6
M  V30 6 2 6 7
M  V30 7 1 7 8
M  V30 8 1 8 9
M  V30 9 2 9 10
M  V30 10 1 9 11
M  V30 11 2 11 12
M  V30 12 1 12 13
M  V30 13 1 13 14
M  V30 14 2 14 15
M  V30 15 1 15 16
M  V30 16 2 16 17
M  V30 17 1 17 18
M  V30 18 2 18 19
M  V30 19 1 13 20
M  V30 20 2 20 21
M  V30 21 1 21 22
M  V30 22 2 22 23
M  V30 23 1 23 24
M  V30 24 2 24 25
M  V30 25 1 25 26
M  V30 26 2 26 27
M  V30 27 1 7 28
M  V30 28 2 28 29
M  V30 29 1 29 4
M  V30 30 1 21 11
M  V30 31 1 27 22
M  V30 32 1 19 14
M  V30 33 1 1 30
M  V30 34 1 1 31
M  V30 35 1 1 32
M  V30 36 1 2 33
M  V30 37 1 2 34
M  V30 38 1 5 35
M  V30 39 1 6 36
M  V30 40 1 8 37
M  V30 41 1 12 38
M  V30 42 1 15 39
M  V30 43 1 16 40
M  V30 44 1 17 41
M  V30 45 1 18 42
M  V30 46 1 19 43
M  V30 47 1 23 44
M  V30 48 1 24 45
M  V30 49 1 25 46
M  V30 50 1 26 47
M  V30 51 1 27 48
M  V30 52 1 28 49
M  V30 53 1 29 50
M  V30 END BOND
M  V30 END CTAB
M  END
>  <Dataset>  (501) 
ChEMBL_Kinases

>  <Ligand_Instance>  (501) 
nan

>  <PDB_ID>  (501) 
nan

>  <Standardized_SMILES>  (501) 
CCOc1ccc(NC(=O)c2cn(-c3ccccc3)nc2-c2ccccc2)cc1

>  <Name>  (501) 
nan

>  <Pocket>  (501) 
nan

>  <ATP_Site>  (501) 
nan

>  <Peripheral>  (501) 
nan

>  <Num_H_Atoms_ProtBoundConf>  (501) 
nan

>  <Num_Resolved_Atoms>  (501) 
nan

>  <Num_Not_Resolved_Atoms>  (501) 
nan

$$$$
CHEMBL2030975
     RDKit          3D

  0  0  0  0  0  0  0  0  0  0999 V3000
M  V30 BEGIN CTAB
M  V30 COUNTS 46 49 0 0 0
M  V30 BEGIN ATOM
M  V30 1 C -1.119339 -5.421867 4.346236 0
M  V30 2 C -0.601291 -4.144466 3.740400 0
M  V30 3 C 0.730919 -3.937701 3.430953 0
M  V30 4 C 1.121259 -2.719675 2.874915 0
M  V30 5 C 0.196230 -1.702105 2.623857 0
M  V30 6 C 0.784373 -0.499232 2.057560 0
M  V30 7 N 1.889535 0.211406 2.370505 0
M  V30 8 N 1.999106 1.254382 1.556113 0
M  V30 9 C 3.021772 2.278742 1.529191 0
M  V30 10 C 2.805871 3.352048 2.389700 0
M  V30 11 C 3.761322 4.375950 2.380478 0
M  V30 12 C 4.831816 4.243500 1.528498 0
M  V30 13 C 5.030595 3.173061 0.682581 0
M  V30 14 C 4.091469 2.130691 0.668427 0
M  V30 15 C 0.928726 1.197487 0.703532 0
M  V30 16 C 0.125812 0.077427 1.000682 0
M  V30 17 C -1.010700 -0.019795 0.097949 0
M  V30 18 O -2.018477 0.668625 0.466857 0
M  V30 19 N -1.038533 -0.784648 -1.086390 0
M  V30 20 C -1.964290 -1.045887 -2.129951 0
M  V30 21 C -1.776625 -0.110544 -3.144224 0
M  V30 22 C -2.529082 -0.097416 -4.326391 0
M  V30 23 C -3.496939 -1.085065 -4.445477 0
M  V30 24 C -3.691666 -2.028750 -3.431097 0
M  V30 25 C -2.925514 -1.999711 -2.285392 0
M  V30 26 C -1.132703 -1.904471 2.930651 0
M  V30 27 C -1.531157 -3.125265 3.488855 0
M  V30 28 H -1.657960 -5.958893 3.540604 0
M  V30 29 H -1.817477 -5.184546 5.181425 0
M  V30 30 H -0.222121 -5.973034 4.724647 0
M  V30 31 H 1.449534 -4.738867 3.628764 0
M  V30 32 H 2.202147 -2.664286 2.670583 0
M  V30 33 H 1.936548 3.379233 3.029795 0
M  V30 34 H 3.622263 5.216968 3.032784 0
M  V30 35 H 5.522980 5.076802 1.582032 0
M  V30 36 H 5.891483 3.126998 0.035063 0
M  V30 37 H 4.188584 1.263121 0.030295 0
M  V30 38 H 0.855384 1.982800 -0.046401 0
M  V30 39 H -0.210220 -1.344153 -1.367024 0
M  V30 40 H -1.044819 0.718563 -3.167908 0
M  V30 41 H -2.401739 0.617218 -5.129352 0
M  V30 42 H -4.126028 -1.140592 -5.343339 0
M  V30 43 H -4.435269 -2.791156 -3.510098 0
M  V30 44 H -2.984358 -2.668796 -1.439009 0
M  V30 45 H -1.771918 -1.080417 2.710249 0
M  V30 46 H -2.591206 -3.220155 3.705774 0
M  V30 END ATOM
M  V30 BEGIN BOND
M  V30 1 1 1 2
M  V30 2 2 2 3
M  V30 3 1 3 4
M  V30 4 2 4 5
M  V30 5 1 5 6
M  V30 6 2 6 7
M  V30 7 1 7 8
M  V30 8 1 8 9
M  V30 9 2 9 10
M  V30 10 1 10 11
M  V30 11 2 11 12
M  V30 12 1 12 13
M  V30 13 2 13 14
M  V30 14 1 8 15
M  V30 15 2 15 16
M  V30 16 1 16 17
M  V30 17 2 17 18
M  V30 18 1 17 19
M  V30 19 1 19 20
M  V30 20 2 20 21
M  V30 21 1 21 22
M  V30 22 2 22 23
M  V30 23 1 23 24
M  V30 24 2 24 25
M  V30 25 1 5 26
M  V30 26 2 26 27
M  V30 27 1 27 2
M  V30 28 1 16 6
M  V30 29 1 25 20
M  V30 30 1 14 9
M  V30 31 1 1 28
M  V30 32 1 1 29
M  V30 33 1 1 30
M  V30 34 1 3 31
M  V30 35 1 4 32
M  V30 36 1 10 33
M  V30 37 1 11 34
M  V30 38 1 12 35
M  V30 39 1 13 36
M  V30 40 1 14 37
M  V30 41 1 15 38
M  V30 42 1 19 39
M  V30 43 1 21 40
M  V30 44 1 22 41
M  V30 45 1 23 42
M  V30 46 1 24 43
M  V30 47 1 25 44
M  V30 48 1 26 45
M  V30 49 1 27 46
M  V30 END BOND
M  V30 END CTAB
M  END
>  <Dataset>  (502) 
ChEMBL_Kinases

>  <Ligand_Instance>  (502) 
nan

>  <PDB_ID>  (502) 
nan

>  <Standardized_SMILES>  (502) 
Cc1ccc(-c2nn(-c3ccccc3)cc2C(=O)Nc2ccccc2)cc1

>  <Name>  (502) 
nan

>  <Pocket>  (502) 
nan

>  <ATP_Site>  (502) 
nan

>  <Peripheral>  (502) 
nan

>  <Num_H_Atoms_ProtBoundConf>  (502) 
nan

>  <Num_Resolved_Atoms>  (502) 
nan

>  <Num_Not_Resolved_Atoms>  (502) 
nan

$$$$
CHEMBL2030976
     RDKit          3D

  0  0  0  0  0  0  0  0  0  0999 V3000
M  V30 BEGIN CTAB
M  V30 COUNTS 46 49 0 0 0
M  V30 BEGIN ATOM
M  V30 1 C -0.342383 -5.657644 3.850066 0
M  V30 2 C 0.188069 -4.378711 3.312766 0
M  V30 3 C -0.118594 -4.088242 2.003994 0
M  V30 4 C 0.387877 -2.895631 1.508660 0
M  V30 5 C 1.170613 -2.016558 2.268372 0
M  V30 6 C 1.624884 -0.793458 1.615947 0
M  V30 7 N 2.779740 -0.114979 1.511845 0
M  V30 8 N 2.626528 0.962244 0.781658 0
M  V30 9 C 3.440761 2.038671 0.327910 0
M  V30 10 C 4.223348 2.077312 -0.813077 0
M  V30 11 C 4.937229 3.243041 -1.086812 0
M  V30 12 C 4.842259 4.329769 -0.206672 0
M  V30 13 C 4.063968 4.292254 0.928899 0
M  V30 14 C 3.360870 3.135588 1.193387 0
M  V30 15 C 1.327540 1.060337 0.348763 0
M  V30 16 C 0.675694 -0.065194 0.882582 0
M  V30 17 C -0.765230 -0.297773 0.627442 0
M  V30 18 O -1.372263 -0.585463 1.667097 0
M  V30 19 N -1.400651 -0.202882 -0.629717 0
M  V30 20 C -2.763915 -0.399571 -0.905527 0
M  V30 21 C -3.759521 -0.780785 -0.046739 0
M  V30 22 C -5.093428 -0.927423 -0.368041 0
M  V30 23 C -5.462371 -0.667642 -1.670679 0
M  V30 24 Cl -7.152574 -0.822226 -2.154652 0
M  V30 25 C -4.482522 -0.279225 -2.569419 0
M  V30 26 C -3.164615 -0.148999 -2.195245 0
M  V30 27 C 1.419851 -2.400877 3.567484 0
M  V30 28 C 0.950291 -3.571663 4.135222 0
M  V30 29 H -1.370971 -5.482069 4.225367 0
M  V30 30 H 0.297388 -6.059671 4.657222 0
M  V30 31 H -0.415601 -6.401056 3.015980 0
M  V30 32 H -0.703960 -4.695099 1.342982 0
M  V30 33 H 0.180552 -2.605267 0.470920 0
M  V30 34 H 4.193431 1.173112 -1.380003 0
M  V30 35 H 5.534727 3.222844 -1.991748 0
M  V30 36 H 5.432079 5.210228 -0.492949 0
M  V30 37 H 4.017789 5.158411 1.585406 0
M  V30 38 H 2.769837 3.171902 2.098929 0
M  V30 39 H 0.806024 1.806010 -0.275343 0
M  V30 40 H -0.703372 0.042981 -1.361042 0
M  V30 41 H -3.489840 -0.992456 0.974486 0
M  V30 42 H -5.798756 -1.237291 0.390638 0
M  V30 43 H -4.759308 -0.070576 -3.593509 0
M  V30 44 H -2.463425 0.158412 -2.960988 0
M  V30 45 H 2.020991 -1.709954 4.138206 0
M  V30 46 H 1.199255 -3.781199 5.157832 0
M  V30 END ATOM
M  V30 BEGIN BOND
M  V30 1 1 1 2
M  V30 2 2 2 3
M  V30 3 1 3 4
M  V30 4 2 4 5
M  V30 5 1 5 6
M  V30 6 2 6 7
M  V30 7 1 7 8
M  V30 8 1 8 9
M  V30 9 2 9 10
M  V30 10 1 10 11
M  V30 11 2 11 12
M  V30 12 1 12 13
M  V30 13 2 13 14
M  V30 14 1 8 15
M  V30 15 2 15 16
M  V30 16 1 16 17
M  V30 17 2 17 18
M  V30 18 1 17 19
M  V30 19 1 19 20
M  V30 20 2 20 21
M  V30 21 1 21 22
M  V30 22 2 22 23
M  V30 23 1 23 24
M  V30 24 1 23 25
M  V30 25 2 25 26
M  V30 26 1 5 27
M  V30 27 2 27 28
M  V30 28 1 28 2
M  V30 29 1 16 6
M  V30 30 1 26 20
M  V30 31 1 14 9
M  V30 32 1 1 29
M  V30 33 1 1 30
M  V30 34 1 1 31
M  V30 35 1 3 32
M  V30 36 1 4 33
M  V30 37 1 10 34
M  V30 38 1 11 35
M  V30 39 1 12 36
M  V30 40 1 13 37
M  V30 41 1 14 38
M  V30 42 1 15 39
M  V30 43 1 19 40
M  V30 44 1 21 41
M  V30 45 1 22 42
M  V30 46 1 25 43
M  V30 47 1 26 44
M  V30 48 1 27 45
M  V30 49 1 28 46
M  V30 END BOND
M  V30 END CTAB
M  END
>  <Dataset>  (503) 
ChEMBL_Kinases

>  <Ligand_Instance>  (503) 
nan

>  <PDB_ID>  (503) 
nan

>  <Standardized_SMILES>  (503) 
Cc1ccc(-c2nn(-c3ccccc3)cc2C(=O)Nc2ccc(Cl)cc2)cc1

>  <Name>  (503) 
nan

>  <Pocket>  (503) 
nan

>  <ATP_Site>  (503) 
nan

>  <Peripheral>  (503) 
nan

>  <Num_H_Atoms_ProtBoundConf>  (503) 
nan

>  <Num_Resolved_Atoms>  (503) 
nan

>  <Num_Not_Resolved_Atoms>  (503) 
nan

$$$$
CHEMBL2030977
     RDKit          3D

  0  0  0  0  0  0  0  0  0  0999 V3000
M  V30 BEGIN CTAB
M  V30 COUNTS 46 49 0 0 0
M  V30 BEGIN ATOM
M  V30 1 C -0.497388 -5.651548 3.756220 0
M  V30 2 C 0.099870 -4.373907 3.269794 0
M  V30 3 C -0.192030 -4.041208 1.964191 0
M  V30 4 C 0.348665 -2.864998 1.497523 0
M  V30 5 C 1.163078 -2.006870 2.256722 0
M  V30 6 C 1.641138 -0.799426 1.611582 0
M  V30 7 N 2.812190 -0.171446 1.522400 0
M  V30 8 N 2.697631 0.922877 0.797802 0
M  V30 9 C 3.492405 2.015564 0.317348 0
M  V30 10 C 4.204920 2.093986 -0.856537 0
M  V30 11 C 4.900027 3.262699 -1.160203 0
M  V30 12 C 4.858581 4.325616 -0.268265 0
M  V30 13 C 4.148304 4.247632 0.905436 0
M  V30 14 C 3.454166 3.075249 1.206015 0
M  V30 15 C 1.404109 1.061995 0.367262 0
M  V30 16 C 0.712752 -0.040261 0.883776 0
M  V30 17 C -0.732262 -0.260914 0.658596 0
M  V30 18 O -1.321135 -0.468488 1.734942 0
M  V30 19 N -1.328721 -0.226719 -0.628841 0
M  V30 20 C -2.697414 -0.419823 -0.853217 0
M  V30 21 C -3.692857 -0.744563 0.026400 0
M  V30 22 C -5.028437 -0.866456 -0.260446 0
M  V30 23 C -5.408419 -0.638145 -1.563508 0
M  V30 24 Br -7.260741 -0.772693 -2.047777 0
M  V30 25 C -4.450398 -0.309939 -2.491301 0
M  V30 26 C -3.132337 -0.204177 -2.145314 0
M  V30 27 C 1.409227 -2.411840 3.551653 0
M  V30 28 C 0.890552 -3.580414 4.071489 0
M  V30 29 H -1.527509 -5.429688 4.118289 0
M  V30 30 H 0.073243 -6.071937 4.585456 0
M  V30 31 H -0.513332 -6.373380 2.911131 0
M  V30 32 H -0.809532 -4.640055 1.314467 0
M  V30 33 H 0.143456 -2.560502 0.470293 0
M  V30 34 H 4.143614 1.188519 -1.444812 0
M  V30 35 H 5.434748 3.254849 -2.098522 0
M  V30 36 H 5.398715 5.228230 -0.516578 0
M  V30 37 H 4.147588 5.092882 1.558663 0
M  V30 38 H 2.934674 3.132553 2.161444 0
M  V30 39 H 0.860610 1.803720 -0.246070 0
M  V30 40 H -0.644392 -0.039891 -1.383682 0
M  V30 41 H -3.405919 -0.929081 1.046645 0
M  V30 42 H -5.740336 -1.133412 0.506391 0
M  V30 43 H -4.775604 -0.135745 -3.505242 0
M  V30 44 H -2.453420 0.060441 -2.946740 0
M  V30 45 H 2.041421 -1.752922 4.148793 0
M  V30 46 H 1.084794 -3.892834 5.084230 0
M  V30 END ATOM
M  V30 BEGIN BOND
M  V30 1 1 1 2
M  V30 2 2 2 3
M  V30 3 1 3 4
M  V30 4 2 4 5
M  V30 5 1 5 6
M  V30 6 2 6 7
M  V30 7 1 7 8
M  V30 8 1 8 9
M  V30 9 2 9 10
M  V30 10 1 10 11
M  V30 11 2 11 12
M  V30 12 1 12 13
M  V30 13 2 13 14
M  V30 14 1 8 15
M  V30 15 2 15 16
M  V30 16 1 16 17
M  V30 17 2 17 18
M  V30 18 1 17 19
M  V30 19 1 19 20
M  V30 20 2 20 21
M  V30 21 1 21 22
M  V30 22 2 22 23
M  V30 23 1 23 24
M  V30 24 1 23 25
M  V30 25 2 25 26
M  V30 26 1 5 27
M  V30 27 2 27 28
M  V30 28 1 28 2
M  V30 29 1 16 6
M  V30 30 1 26 20
M  V30 31 1 14 9
M  V30 32 1 1 29
M  V30 33 1 1 30
M  V30 34 1 1 31
M  V30 35 1 3 32
M  V30 36 1 4 33
M  V30 37 1 10 34
M  V30 38 1 11 35
M  V30 39 1 12 36
M  V30 40 1 13 37
M  V30 41 1 14 38
M  V30 42 1 15 39
M  V30 43 1 19 40
M  V30 44 1 21 41
M  V30 45 1 22 42
M  V30 46 1 25 43
M  V30 47 1 26 44
M  V30 48 1 27 45
M  V30 49 1 28 46
M  V30 END BOND
M  V30 END CTAB
M  END
>  <Dataset>  (504) 
ChEMBL_Kinases

>  <Ligand_Instance>  (504) 
nan

>  <PDB_ID>  (504) 
nan

>  <Standardized_SMILES>  (504) 
Cc1ccc(-c2nn(-c3ccccc3)cc2C(=O)Nc2ccc(Br)cc2)cc1

>  <Name>  (504) 
nan

>  <Pocket>  (504) 
nan

>  <ATP_Site>  (504) 
nan

>  <Peripheral>  (504) 
nan

>  <Num_H_Atoms_ProtBoundConf>  (504) 
nan

>  <Num_Resolved_Atoms>  (504) 
nan

>  <Num_Not_Resolved_Atoms>  (504) 
nan

$$$$
CHEMBL2030978
     RDKit          3D

  0  0  0  0  0  0  0  0  0  0999 V3000
M  V30 BEGIN CTAB
M  V30 COUNTS 53 56 0 0 0
M  V30 BEGIN ATOM
M  V30 1 C 3.094035 -6.619010 3.951476 0
M  V30 2 C 3.498640 -7.014572 2.546145 0
M  V30 3 O 2.631709 -6.503486 1.570183 0
M  V30 4 C 2.409771 -5.146775 1.381725 0
M  V30 5 C 2.986398 -4.120016 2.097029 0
M  V30 6 C 2.692105 -2.801495 1.824471 0
M  V30 7 C 1.796525 -2.540394 0.806669 0
M  V30 8 N 1.409371 -1.225215 0.426628 0
M  V30 9 C 0.265092 -0.661621 1.102297 0
M  V30 10 O -0.113715 -1.532600 1.900534 0
M  V30 11 C -0.068153 0.685016 0.657461 0
M  V30 12 C 0.767613 1.779644 0.671218 0
M  V30 13 N -0.010431 2.767790 0.160504 0
M  V30 14 C 0.338863 4.130614 -0.057237 0
M  V30 15 C 0.710525 4.821566 1.080675 0
M  V30 16 C 1.071029 6.140482 1.012077 0
M  V30 17 C 1.035163 6.707529 -0.243567 0
M  V30 18 C 0.672346 6.062587 -1.408491 0
M  V30 19 C 0.307566 4.715211 -1.315223 0
M  V30 20 N -1.219070 2.326310 -0.142337 0
M  V30 21 C -1.307917 1.005123 0.155254 0
M  V30 22 C -2.541496 0.272397 -0.086165 0
M  V30 23 C -3.136160 0.492323 -1.327291 0
M  V30 24 C -4.306935 -0.093661 -1.759175 0
M  V30 25 C -4.945587 -0.969665 -0.895147 0
M  V30 26 C -6.214799 -1.636772 -1.294519 0
M  V30 27 C -4.376414 -1.203940 0.339819 0
M  V30 28 C -3.203537 -0.604006 0.746925 0
M  V30 29 C 1.201045 -3.542973 0.070328 0
M  V30 30 C 1.508583 -4.873867 0.357600 0
M  V30 31 H 2.785189 -7.545736 4.516116 0
M  V30 32 H 2.222178 -5.952730 3.977479 0
M  V30 33 H 3.931876 -6.156581 4.490555 0
M  V30 34 H 3.584493 -8.108766 2.447444 0
M  V30 35 H 4.516049 -6.592052 2.349658 0
M  V30 36 H 3.678382 -4.398861 2.878009 0
M  V30 37 H 3.131992 -1.990291 2.371651 0
M  V30 38 H 2.030501 -0.808876 -0.331448 0
M  V30 39 H 1.792419 1.862329 1.000357 0
M  V30 40 H 0.731329 4.351002 2.067460 0
M  V30 41 H 1.360067 6.678433 1.897099 0
M  V30 42 H 1.328436 7.769474 -0.277090 0
M  V30 43 H 0.664021 6.561951 -2.367311 0
M  V30 44 H 0.010482 4.135093 -2.174614 0
M  V30 45 H -2.681210 1.173677 -2.055317 0
M  V30 46 H -4.722508 0.114309 -2.735121 0
M  V30 47 H -6.250313 -1.901367 -2.361971 0
M  V30 48 H -7.034370 -0.892178 -1.093777 0
M  V30 49 H -6.393335 -2.491949 -0.644940 0
M  V30 50 H -4.834465 -1.884755 1.063857 0
M  V30 51 H -2.726197 -0.757877 1.704209 0
M  V30 52 H 0.492333 -3.350732 -0.737090 0
M  V30 53 H 1.016548 -5.644020 -0.247479 0
M  V30 END ATOM
M  V30 BEGIN BOND
M  V30 1 1 1 2
M  V30 2 1 2 3
M  V30 3 1 3 4
M  V30 4 2 4 5
M  V30 5 1 5 6
M  V30 6 2 6 7
M  V30 7 1 7 8
M  V30 8 1 8 9
M  V30 9 2 9 10
M  V30 10 1 9 11
M  V30 11 2 11 12
M  V30 12 1 12 13
M  V30 13 1 13 14
M  V30 14 2 14 15
M  V30 15 1 15 16
M  V30 16 2 16 17
M  V30 17 1 17 18
M  V30 18 2 18 19
M  V30 19 1 13 20
M  V30 20 2 20 21
M  V30 21 1 21 22
M  V30 22 2 22 23
M  V30 23 1 23 24
M  V30 24 2 24 25
M  V30 25 1 25 26
M  V30 26 1 25 27
M  V30 27 2 27 28
M  V30 28 1 7 29
M  V30 29 2 29 30
M  V30 30 1 30 4
M  V30 31 1 21 11
M  V30 32 1 28 22
M  V30 33 1 19 14
M  V30 34 1 1 31
M  V30 35 1 1 32
M  V30 36 1 1 33
M  V30 37 1 2 34
M  V30 38 1 2 35
M  V30 39 1 5 36
M  V30 40 1 6 37
M  V30 41 1 8 38
M  V30 42 1 12 39
M  V30 43 1 15 40
M  V30 44 1 16 41
M  V30 45 1 17 42
M  V30 46 1 18 43
M  V30 47 1 19 44
M  V30 48 1 23 45
M  V30 49 1 24 46
M  V30 50 1 26 47
M  V30 51 1 26 48
M  V30 52 1 26 49
M  V30 53 1 27 50
M  V30 54 1 28 51
M  V30 55 1 29 52
M  V30 56 1 30 53
M  V30 END BOND
M  V30 END CTAB
M  END
>  <Dataset>  (505) 
ChEMBL_Kinases

>  <Ligand_Instance>  (505) 
nan

>  <PDB_ID>  (505) 
nan

>  <Standardized_SMILES>  (505) 
CCOc1ccc(NC(=O)c2cn(-c3ccccc3)nc2-c2ccc(C)cc2)cc1

>  <Name>  (505) 
nan

>  <Pocket>  (505) 
nan

>  <ATP_Site>  (505) 
nan

>  <Peripheral>  (505) 
nan

>  <Num_H_Atoms_ProtBoundConf>  (505) 
nan

>  <Num_Resolved_Atoms>  (505) 
nan

>  <Num_Not_Resolved_Atoms>  (505) 
nan

$$$$
CHEMBL2030979
     RDKit          3D

  0  0  0  0  0  0  0  0  0  0999 V3000
M  V30 BEGIN CTAB
M  V30 COUNTS 47 50 0 0 0
M  V30 BEGIN ATOM
M  V30 1 C -0.495172 -4.670703 5.404794 0
M  V30 2 O 0.757082 -4.071881 5.086238 0
M  V30 3 C 0.810194 -3.061531 4.144940 0
M  V30 4 C 2.007955 -2.439626 3.792967 0
M  V30 5 C 2.039876 -1.437809 2.854872 0
M  V30 6 C 0.887240 -0.999915 2.216847 0
M  V30 7 C 1.033042 0.070758 1.238867 0
M  V30 8 N 1.749426 1.174102 1.407210 0
M  V30 9 N 1.709133 1.979568 0.353502 0
M  V30 10 C 2.404039 3.225390 0.303026 0
M  V30 11 C 3.643588 3.342710 -0.294891 0
M  V30 12 C 4.304009 4.554948 -0.336564 0
M  V30 13 C 3.751789 5.684998 0.214484 0
M  V30 14 C 2.506056 5.582600 0.818818 0
M  V30 15 C 1.843921 4.362668 0.859393 0
M  V30 16 C 0.912941 1.351371 -0.552366 0
M  V30 17 C 0.485733 0.170631 -0.023606 0
M  V30 18 C -0.380153 -0.795761 -0.677360 0
M  V30 19 O 0.353371 -1.531717 -1.355847 0
M  V30 20 N -1.772799 -0.951560 -0.620343 0
M  V30 21 C -2.583531 -1.907161 -1.272902 0
M  V30 22 C -2.117163 -2.877408 -2.113744 0
M  V30 23 C -2.942894 -3.814730 -2.748870 0
M  V30 24 C -4.291245 -3.708859 -2.477156 0
M  V30 25 C -4.761082 -2.728569 -1.627935 0
M  V30 26 C -3.927181 -1.799653 -1.000447 0
M  V30 27 C -0.284283 -1.626175 2.577738 0
M  V30 28 C -0.333255 -2.631212 3.515161 0
M  V30 29 H -0.965100 -5.018421 4.464616 0
M  V30 30 H -1.180941 -3.943740 5.894577 0
M  V30 31 H -0.342658 -5.576633 6.031963 0
M  V30 32 H 2.884271 -2.817721 4.320057 0
M  V30 33 H 3.019098 -1.044736 2.674899 0
M  V30 34 H 4.084350 2.456939 -0.731223 0
M  V30 35 H 5.281913 4.657843 -0.807097 0
M  V30 36 H 4.275110 6.632247 0.179171 0
M  V30 37 H 2.085696 6.499475 1.252141 0
M  V30 38 H 0.857093 4.334110 1.350194 0
M  V30 39 H 0.706842 1.789220 -1.510718 0
M  V30 40 H -2.142840 -0.210830 0.014228 0
M  V30 41 H -1.070949 -2.978624 -2.341238 0
M  V30 42 H -2.550917 -4.559400 -3.397693 0
M  V30 43 H -4.941935 -4.426404 -2.961615 0
M  V30 44 H -5.811596 -2.716193 -1.473150 0
M  V30 45 H -4.442527 -1.094787 -0.364182 0
M  V30 46 H -1.176320 -1.291272 2.088696 0
M  V30 47 H -1.289141 -3.080818 3.751142 0
M  V30 END ATOM
M  V30 BEGIN BOND
M  V30 1 1 1 2
M  V30 2 1 2 3
M  V30 3 2 3 4
M  V30 4 1 4 5
M  V30 5 2 5 6
M  V30 6 1 6 7
M  V30 7 2 7 8
M  V30 8 1 8 9
M  V30 9 1 9 10
M  V30 10 2 10 11
M  V30 11 1 11 12
M  V30 12 2 12 13
M  V30 13 1 13 14
M  V30 14 2 14 15
M  V30 15 1 9 16
M  V30 16 2 16 17
M  V30 17 1 17 18
M  V30 18 2 18 19
M  V30 19 1 18 20
M  V30 20 1 20 21
M  V30 21 2 21 22
M  V30 22 1 22 23
M  V30 23 2 23 24
M  V30 24 1 24 25
M  V30 25 2 25 26
M  V30 26 1 6 27
M  V30 27 2 27 28
M  V30 28 1 28 3
M  V30 29 1 17 7
M  V30 30 1 26 21
M  V30 31 1 15 10
M  V30 32 1 1 29
M  V30 33 1 1 30
M  V30 34 1 1 31
M  V30 35 1 4 32
M  V30 36 1 5 33
M  V30 37 1 11 34
M  V30 38 1 12 35
M  V30 39 1 13 36
M  V30 40 1 14 37
M  V30 41 1 15 38
M  V30 42 1 16 39
M  V30 43 1 20 40
M  V30 44 1 22 41
M  V30 45 1 23 42
M  V30 46 1 24 43
M  V30 47 1 25 44
M  V30 48 1 26 45
M  V30 49 1 27 46
M  V30 50 1 28 47
M  V30 END BOND
M  V30 END CTAB
M  END
>  <Dataset>  (506) 
ChEMBL_Kinases

>  <Ligand_Instance>  (506) 
nan

>  <PDB_ID>  (506) 
nan

>  <Standardized_SMILES>  (506) 
COc1ccc(-c2nn(-c3ccccc3)cc2C(=O)Nc2ccccc2)cc1

>  <Name>  (506) 
nan

>  <Pocket>  (506) 
nan

>  <ATP_Site>  (506) 
nan

>  <Peripheral>  (506) 
nan

>  <Num_H_Atoms_ProtBoundConf>  (506) 
nan

>  <Num_Resolved_Atoms>  (506) 
nan

>  <Num_Not_Resolved_Atoms>  (506) 
nan

$$$$
CHEMBL2030971
     RDKit          3D

  0  0  0  0  0  0  0  0  0  0999 V3000
M  V30 BEGIN CTAB
M  V30 COUNTS 43 46 0 0 0
M  V30 BEGIN ATOM
M  V30 1 O 1.970534 -1.832784 2.127597 0
M  V30 2 C 1.559791 -1.179845 1.139185 0
M  V30 3 N 2.416631 -1.001853 0.036434 0
M  V30 4 C 3.762250 -1.427646 -0.223050 0
M  V30 5 C 4.376959 -2.124295 0.756645 0
M  V30 6 C 5.699865 -2.517385 0.477587 0
M  V30 7 C 6.259619 -2.174583 -0.738425 0
M  V30 8 Cl 7.909895 -2.650580 -1.124933 0
M  V30 9 C 5.570258 -1.456279 -1.701960 0
M  V30 10 C 4.256212 -1.055696 -1.447389 0
M  V30 11 C 0.201671 -0.648119 1.226202 0
M  V30 12 C 0.235154 0.745048 1.411825 0
M  V30 13 N -1.086299 1.119662 1.482717 0
M  V30 14 C -1.531326 2.485011 1.676354 0
M  V30 15 C -1.344058 3.523734 0.762845 0
M  V30 16 C -1.821608 4.751699 1.123680 0
M  V30 17 C -2.465719 4.972947 2.338350 0
M  V30 18 C -2.644383 3.944698 3.226573 0
M  V30 19 C -2.169999 2.711015 2.874782 0
M  V30 20 N -1.881788 0.066451 1.353660 0
M  V30 21 C -1.105862 -1.050420 1.192114 0
M  V30 22 C -1.498455 -2.431564 1.030546 0
M  V30 23 C -1.015468 -3.586471 1.535741 0
M  V30 24 C -1.607741 -4.818051 1.252825 0
M  V30 25 C -2.710795 -4.853478 0.440289 0
M  V30 26 C -3.265992 -3.702171 -0.117399 0
M  V30 27 C -2.610449 -2.517825 0.216330 0
M  V30 28 H 1.877249 -0.440898 -0.691648 0
M  V30 29 H 4.076009 -2.449341 1.706130 0
M  V30 30 H 6.359289 -3.092608 1.154531 0
M  V30 31 H 5.970963 -1.169155 -2.673538 0
M  V30 32 H 3.663910 -0.491781 -2.171158 0
M  V30 33 H 1.011582 1.518007 1.503773 0
M  V30 34 H -0.837321 3.274427 -0.156454 0
M  V30 35 H -1.694042 5.583210 0.434920 0
M  V30 36 H -2.804924 5.988307 2.526878 0
M  V30 37 H -3.164064 4.252141 4.144295 0
M  V30 38 H -2.335967 1.928200 3.611105 0
M  V30 39 H -0.156634 -3.475656 2.156147 0
M  V30 40 H -1.119134 -5.650446 1.719033 0
M  V30 41 H -3.050938 -5.883618 0.318981 0
M  V30 42 H -4.124273 -3.858011 -0.731779 0
M  V30 43 H -3.155633 -1.703378 -0.291547 0
M  V30 END ATOM
M  V30 BEGIN BOND
M  V30 1 2 1 2
M  V30 2 1 2 3
M  V30 3 1 3 4
M  V30 4 2 4 5
M  V30 5 1 5 6
M  V30 6 2 6 7
M  V30 7 1 7 8
M  V30 8 1 7 9
M  V30 9 2 9 10
M  V30 10 1 2 11
M  V30 11 2 11 12
M  V30 12 1 12 13
M  V30 13 1 13 14
M  V30 14 2 14 15
M  V30 15 1 15 16
M  V30 16 2 16 17
M  V30 17 1 17 18
M  V30 18 2 18 19
M  V30 19 1 13 20
M  V30 20 2 20 21
M  V30 21 1 21 22
M  V30 22 2 22 23
M  V30 23 1 23 24
M  V30 24 2 24 25
M  V30 25 1 25 26
M  V30 26 2 26 27
M  V30 27 1 10 4
M  V30 28 1 21 11
M  V30 29 1 27 22
M  V30 30 1 19 14
M  V30 31 1 3 28
M  V30 32 1 5 29
M  V30 33 1 6 30
M  V30 34 1 9 31
M  V30 35 1 10 32
M  V30 36 1 12 33
M  V30 37 1 15 34
M  V30 38 1 16 35
M  V30 39 1 17 36
M  V30 40 1 18 37
M  V30 41 1 19 38
M  V30 42 1 23 39
M  V30 43 1 24 40
M  V30 44 1 25 41
M  V30 45 1 26 42
M  V30 46 1 27 43
M  V30 END BOND
M  V30 END CTAB
M  END
>  <Dataset>  (507) 
ChEMBL_Kinases

>  <Ligand_Instance>  (507) 
nan

>  <PDB_ID>  (507) 
nan

>  <Standardized_SMILES>  (507) 
O=C(Nc1ccc(Cl)cc1)c1cn(-c2ccccc2)nc1-c1ccccc1

>  <Name>  (507) 
nan

>  <Pocket>  (507) 
nan

>  <ATP_Site>  (507) 
nan

>  <Peripheral>  (507) 
nan

>  <Num_H_Atoms_ProtBoundConf>  (507) 
nan

>  <Num_Resolved_Atoms>  (507) 
nan

>  <Num_Not_Resolved_Atoms>  (507) 
nan

$$$$
CHEMBL2023294
     RDKit          3D

  0  0  0  0  0  0  0  0  0  0999 V3000
M  V30 BEGIN CTAB
M  V30 COUNTS 70 75 0 0 0
M  V30 BEGIN ATOM
M  V30 1 C -0.392972 -2.492419 6.305276 0
M  V30 2 C 0.493088 -2.349624 5.119880 0
M  V30 3 C 0.555821 -1.173501 4.405323 0
M  V30 4 N 1.311568 -0.933577 3.326288 0
M  V30 5 C 1.445634 0.150688 2.556853 0
M  V30 6 C 0.832943 1.450205 2.577175 0
M  V30 7 C -0.078023 2.097512 3.370197 0
M  V30 8 N -0.319680 3.343285 2.896439 0
M  V30 9 N 0.404218 3.546143 1.809380 0
M  V30 10 C 0.295954 4.808966 1.115434 0
M  V30 11 C -0.768508 4.743764 0.061428 0
M  V30 12 O -0.337220 4.513928 -1.120804 0
M  V30 13 N -2.143941 4.920107 0.355740 0
M  V30 14 C -3.176311 4.855142 -0.635368 0
M  V30 15 C -3.504251 3.460506 -1.052167 0
M  V30 16 C -4.486581 2.827115 -0.301409 0
M  V30 17 C -4.944598 1.530869 -0.520656 0
M  V30 18 C -4.391670 0.813613 -1.553582 0
M  V30 19 C -3.422413 1.428878 -2.301113 0
M  V30 20 F -2.828378 0.768445 -3.348730 0
M  V30 21 C -2.964623 2.710920 -2.089411 0
M  V30 22 C 1.094387 2.415492 1.617742 0
M  V30 23 C 2.380833 -0.273205 1.607162 0
M  V30 24 N 2.731035 -1.543180 1.863503 0
M  V30 25 C 2.067166 -1.978539 2.944102 0
M  V30 26 C 2.076072 -3.194312 3.589932 0
M  V30 27 N 2.915560 -4.213479 3.074408 0
M  V30 28 C 2.449619 -4.785951 1.805437 0
M  V30 29 C 1.386987 -4.427079 1.069274 0
M  V30 30 C 1.172071 -5.119872 -0.086666 0
M  V30 31 C 0.023411 -4.818277 -1.020935 0
M  V30 32 N 0.509360 -3.797514 -1.963843 0
M  V30 33 C -0.632701 -3.400871 -2.775290 0
M  V30 34 C -0.269503 -2.215010 -3.654530 0
M  V30 35 C 1.228981 -2.033560 -3.680720 0
M  V30 36 C 1.953279 -3.353983 -3.834678 0
M  V30 37 C 1.534889 -4.382763 -2.818390 0
M  V30 38 N 2.047901 -6.153829 -0.449785 0
M  V30 39 S 3.223650 -6.071407 0.995346 0
M  V30 40 N 1.274833 -3.364802 4.687332 0
M  V30 41 H -0.105834 -3.436322 6.849544 0
M  V30 42 H -1.447904 -2.593309 6.041023 0
M  V30 43 H -0.204038 -1.684767 7.043097 0
M  V30 44 H -0.078062 -0.400191 4.782741 0
M  V30 45 H -0.550847 1.719196 4.238257 0
M  V30 46 H 1.292492 4.998606 0.668550 0
M  V30 47 H 0.066414 5.630373 1.790461 0
M  V30 48 H -2.456673 5.107098 1.327499 0
M  V30 49 H -2.828856 5.399264 -1.564504 0
M  V30 50 H -4.121965 5.346794 -0.349396 0
M  V30 51 H -4.983717 3.311144 0.536201 0
M  V30 52 H -5.702956 1.072170 0.075367 0
M  V30 53 H -4.696348 -0.201564 -1.786429 0
M  V30 54 H -2.206775 3.235059 -2.652122 0
M  V30 55 H 1.768198 2.368954 0.757063 0
M  V30 56 H 2.815660 0.241594 0.770963 0
M  V30 57 H 3.791459 -4.575185 3.498265 0
M  V30 58 H 0.730977 -3.628281 1.375500 0
M  V30 59 H -0.334348 -5.719725 -1.514717 0
M  V30 60 H -0.810538 -4.416678 -0.420000 0
M  V30 61 H -1.453974 -3.150311 -2.088367 0
M  V30 62 H -0.938001 -4.283883 -3.366952 0
M  V30 63 H -0.687483 -2.331100 -4.673530 0
M  V30 64 H -0.704720 -1.312448 -3.166272 0
M  V30 65 H 1.558631 -1.492618 -2.775246 0
M  V30 66 H 1.476985 -1.398718 -4.551413 0
M  V30 67 H 3.036661 -3.120233 -3.768630 0
M  V30 68 H 1.772950 -3.737531 -4.861966 0
M  V30 69 H 2.412415 -4.616416 -2.199406 0
M  V30 70 H 1.124082 -5.274114 -3.342652 0
M  V30 END ATOM
M  V30 BEGIN BOND
M  V30 1 1 1 2
M  V30 2 2 2 3
M  V30 3 1 3 4
M  V30 4 1 4 5
M  V30 5 1 5 6
M  V30 6 1 6 7
M  V30 7 2 7 8
M  V30 8 1 8 9
M  V30 9 1 9 10
M  V30 10 1 10 11
M  V30 11 2 11 12
M  V30 12 1 11 13
M  V30 13 1 13 14
M  V30 14 1 14 15
M  V30 15 2 15 16
M  V30 16 1 16 17
M  V30 17 2 17 18
M  V30 18 1 18 19
M  V30 19 1 19 20
M  V30 20 2 19 21
M  V30 21 1 9 22
M  V30 22 2 5 23
M  V30 23 1 23 24
M  V30 24 2 24 25
M  V30 25 1 25 26
M  V30 26 1 26 27
M  V30 27 1 27 28
M  V30 28 2 28 29
M  V30 29 1 29 30
M  V30 30 1 30 31
M  V30 31 1 31 32
M  V30 32 1 32 33
M  V30 33 1 33 34
M  V30 34 1 34 35
M  V30 35 1 35 36
M  V30 36 1 36 37
M  V30 37 2 30 38
M  V30 38 1 38 39
M  V30 39 2 26 40
M  V30 40 1 40 2
M  V30 41 1 25 4
M  V30 42 1 39 28
M  V30 43 2 22 6
M  V30 44 1 37 32
M  V30 45 1 21 15
M  V30 46 1 1 41
M  V30 47 1 1 42
M  V30 48 1 1 43
M  V30 49 1 3 44
M  V30 50 1 7 45
M  V30 51 1 10 46
M  V30 52 1 10 47
M  V30 53 1 13 48
M  V30 54 1 14 49
M  V30 55 1 14 50
M  V30 56 1 16 51
M  V30 57 1 17 52
M  V30 58 1 18 53
M  V30 59 1 21 54
M  V30 60 1 22 55
M  V30 61 1 23 56
M  V30 62 1 27 57
M  V30 63 1 29 58
M  V30 64 1 31 59
M  V30 65 1 31 60
M  V30 66 1 33 61
M  V30 67 1 33 62
M  V30 68 1 34 63
M  V30 69 1 34 64
M  V30 70 1 35 65
M  V30 71 1 35 66
M  V30 72 1 36 67
M  V30 73 1 36 68
M  V30 74 1 37 69
M  V30 75 1 37 70
M  V30 END BOND
M  V30 END CTAB
M  END
>  <Dataset>  (508) 
ChEMBL_Kinases

>  <Ligand_Instance>  (508) 
nan

>  <PDB_ID>  (508) 
nan

>  <Standardized_SMILES>  (508) 
Cc1cn2c(-c3cnn(CC(=O)NCc4cccc(F)c4)c3)cnc2c(Nc2cc(CN3CCCCC3)ns2)n1

>  <Name>  (508) 
nan

>  <Pocket>  (508) 
nan

>  <ATP_Site>  (508) 
nan

>  <Peripheral>  (508) 
nan

>  <Num_H_Atoms_ProtBoundConf>  (508) 
nan

>  <Num_Resolved_Atoms>  (508) 
nan

>  <Num_Not_Resolved_Atoms>  (508) 
nan

$$$$
CHEMBL2023293
     RDKit          3D

  0  0  0  0  0  0  0  0  0  0999 V3000
M  V30 BEGIN CTAB
M  V30 COUNTS 70 75 0 0 0
M  V30 BEGIN ATOM
M  V30 1 C 0.929750 -2.991247 6.405934 0
M  V30 2 C 1.484492 -2.627545 5.088729 0
M  V30 3 C 1.371037 -1.426254 4.424518 0
M  V30 4 N 1.880565 -1.099143 3.232428 0
M  V30 5 C 1.811935 0.032401 2.522129 0
M  V30 6 C 1.188139 1.306265 2.754364 0
M  V30 7 C 0.438455 1.886891 3.743061 0
M  V30 8 N 0.114160 3.172830 3.407572 0
M  V30 9 N 0.625688 3.446935 2.235580 0
M  V30 10 C 0.503426 4.736664 1.528766 0
M  V30 11 C -0.696365 4.729990 0.707451 0
M  V30 12 O -0.609195 5.895911 0.143838 0
M  V30 13 N -1.849961 4.075901 0.266674 0
M  V30 14 C -2.830170 4.563798 -0.664856 0
M  V30 15 C -3.906336 3.521626 -0.853583 0
M  V30 16 C -5.165763 3.550347 -0.284712 0
M  V30 17 C -6.072515 2.546427 -0.509297 0
M  V30 18 C -5.711481 1.487761 -1.322625 0
M  V30 19 C -4.455455 1.476674 -1.879593 0
M  V30 20 C -3.501129 2.467840 -1.683657 0
M  V30 21 F -2.262403 2.420116 -2.262186 0
M  V30 22 C 1.272180 2.348259 1.824514 0
M  V30 23 C 2.548298 -0.302462 1.380673 0
M  V30 24 N 2.992952 -1.558209 1.473297 0
M  V30 25 C 2.595644 -2.087954 2.617303 0
M  V30 26 C 2.758262 -3.320860 3.213405 0
M  V30 27 N 3.533468 -4.245607 2.462843 0
M  V30 28 C 2.978204 -4.789801 1.269146 0
M  V30 29 C 1.715139 -4.391392 0.808227 0
M  V30 30 C 1.377215 -5.028675 -0.357455 0
M  V30 31 C 0.098387 -4.818772 -1.103723 0
M  V30 32 N 0.223931 -3.724471 -2.047193 0
M  V30 33 C -1.118788 -3.543608 -2.631338 0
M  V30 34 C -1.141348 -2.310013 -3.506245 0
M  V30 35 C 0.253778 -1.804292 -3.797898 0
M  V30 36 C 1.251277 -2.895376 -4.061142 0
M  V30 37 C 1.048595 -4.120432 -3.194692 0
M  V30 38 N 2.304022 -6.018990 -0.996271 0
M  V30 39 S 3.669909 -5.908281 0.261789 0
M  V30 40 N 2.214197 -3.556427 4.402956 0
M  V30 41 H 0.038697 -3.649570 6.302578 0
M  V30 42 H 0.731499 -2.129604 7.064089 0
M  V30 43 H 1.676807 -3.622745 6.968754 0
M  V30 44 H 0.806413 -0.711451 4.958683 0
M  V30 45 H 0.141079 1.412335 4.651588 0
M  V30 46 H 1.437898 4.765819 0.892360 0
M  V30 47 H 0.516357 5.557108 2.295328 0
M  V30 48 H -1.766937 3.158312 0.815413 0
M  V30 49 H -2.288529 4.752602 -1.632190 0
M  V30 50 H -3.320048 5.506493 -0.365088 0
M  V30 51 H -5.378816 4.421148 0.350667 0
M  V30 52 H -7.047442 2.583397 -0.060393 0
M  V30 53 H -6.444752 0.717014 -1.477572 0
M  V30 54 H -4.144287 0.645488 -2.529752 0
M  V30 55 H 1.773860 2.366719 0.860603 0
M  V30 56 H 2.774375 0.296144 0.511233 0
M  V30 57 H 4.487295 -4.516321 2.787721 0
M  V30 58 H 1.024480 -3.690973 1.230751 0
M  V30 59 H -0.221695 -5.701418 -1.668895 0
M  V30 60 H -0.684048 -4.625393 -0.346546 0
M  V30 61 H -1.871439 -3.550292 -1.838098 0
M  V30 62 H -1.280670 -4.424507 -3.286230 0
M  V30 63 H -1.668300 -2.456702 -4.470340 0
M  V30 64 H -1.674731 -1.511676 -2.915012 0
M  V30 65 H 0.612205 -1.098329 -2.994221 0
M  V30 66 H 0.169785 -1.160325 -4.710006 0
M  V30 67 H 2.281686 -2.471535 -3.887149 0
M  V30 68 H 1.262951 -3.196280 -5.149362 0
M  V30 69 H 2.008728 -4.553172 -2.919290 0
M  V30 70 H 0.467153 -4.843432 -3.839850 0
M  V30 END ATOM
M  V30 BEGIN BOND
M  V30 1 1 1 2
M  V30 2 2 2 3
M  V30 3 1 3 4
M  V30 4 1 4 5
M  V30 5 1 5 6
M  V30 6 1 6 7
M  V30 7 2 7 8
M  V30 8 1 8 9
M  V30 9 1 9 10
M  V30 10 1 10 11
M  V30 11 2 11 12
M  V30 12 1 11 13
M  V30 13 1 13 14
M  V30 14 1 14 15
M  V30 15 2 15 16
M  V30 16 1 16 17
M  V30 17 2 17 18
M  V30 18 1 18 19
M  V30 19 2 19 20
M  V30 20 1 20 21
M  V30 21 1 9 22
M  V30 22 2 5 23
M  V30 23 1 23 24
M  V30 24 2 24 25
M  V30 25 1 25 26
M  V30 26 1 26 27
M  V30 27 1 27 28
M  V30 28 2 28 29
M  V30 29 1 29 30
M  V30 30 1 30 31
M  V30 31 1 31 32
M  V30 32 1 32 33
M  V30 33 1 33 34
M  V30 34 1 34 35
M  V30 35 1 35 36
M  V30 36 1 36 37
M  V30 37 2 30 38
M  V30 38 1 38 39
M  V30 39 2 26 40
M  V30 40 1 40 2
M  V30 41 1 25 4
M  V30 42 1 39 28
M  V30 43 2 22 6
M  V30 44 1 37 32
M  V30 45 1 20 15
M  V30 46 1 1 41
M  V30 47 1 1 42
M  V30 48 1 1 43
M  V30 49 1 3 44
M  V30 50 1 7 45
M  V30 51 1 10 46
M  V30 52 1 10 47
M  V30 53 1 13 48
M  V30 54 1 14 49
M  V30 55 1 14 50
M  V30 56 1 16 51
M  V30 57 1 17 52
M  V30 58 1 18 53
M  V30 59 1 19 54
M  V30 60 1 22 55
M  V30 61 1 23 56
M  V30 62 1 27 57
M  V30 63 1 29 58
M  V30 64 1 31 59
M  V30 65 1 31 60
M  V30 66 1 33 61
M  V30 67 1 33 62
M  V30 68 1 34 63
M  V30 69 1 34 64
M  V30 70 1 35 65
M  V30 71 1 35 66
M  V30 72 1 36 67
M  V30 73 1 36 68
M  V30 74 1 37 69
M  V30 75 1 37 70
M  V30 END BOND
M  V30 END CTAB
M  END
>  <Dataset>  (509) 
ChEMBL_Kinases

>  <Ligand_Instance>  (509) 
nan

>  <PDB_ID>  (509) 
nan

>  <Standardized_SMILES>  (509) 
Cc1cn2c(-c3cnn(CC(=O)NCc4ccccc4F)c3)cnc2c(Nc2cc(CN3CCCCC3)ns2)n1

>  <Name>  (509) 
nan

>  <Pocket>  (509) 
nan

>  <ATP_Site>  (509) 
nan

>  <Peripheral>  (509) 
nan

>  <Num_H_Atoms_ProtBoundConf>  (509) 
nan

>  <Num_Resolved_Atoms>  (509) 
nan

>  <Num_Not_Resolved_Atoms>  (509) 
nan

$$$$
CHEMBL2023292
     RDKit          3D

  0  0  0  0  0  0  0  0  0  0999 V3000
M  V30 BEGIN CTAB
M  V30 COUNTS 70 76 0 0 0
M  V30 BEGIN ATOM
M  V30 1 C 2.137933 0.955172 4.927892 0
M  V30 2 C 1.541084 -0.321729 4.412516 0
M  V30 3 C 0.281480 -0.462543 3.888064 0
M  V30 4 N -0.191612 -1.616079 3.451406 0
M  V30 5 C -1.376682 -1.925178 2.911780 0
M  V30 6 C -2.565697 -1.174553 2.594537 0
M  V30 7 C -3.680334 -1.775288 2.001098 0
M  V30 8 N -4.646126 -0.846345 1.812926 0
M  V30 9 N -4.232627 0.332343 2.248213 0
M  V30 10 C -5.099838 1.468823 2.141556 0
M  V30 11 C -4.891812 2.185777 0.831540 0
M  V30 12 N -5.580210 1.764641 -0.240146 0
M  V30 13 C -5.233316 2.544853 -1.287170 0
M  V30 14 C -5.690608 2.500228 -2.682882 0
M  V30 15 C -5.214340 3.398483 -3.630077 0
M  V30 16 C -5.696535 3.268957 -4.894982 0
M  V30 17 C -6.621186 2.301458 -5.269504 0
M  V30 18 C -7.088040 1.415042 -4.323010 0
M  V30 19 C -6.614201 1.517655 -3.010210 0
M  V30 20 C -4.304251 3.458058 -0.802787 0
M  V30 21 N -4.099443 3.231966 0.497299 0
M  V30 22 C -2.994124 0.115874 2.708697 0
M  V30 23 C -1.255657 -3.285927 2.658564 0
M  V30 24 N -0.041212 -3.713163 3.046736 0
M  V30 25 C 0.633224 -2.672670 3.544971 0
M  V30 26 C 1.910397 -2.624776 4.056046 0
M  V30 27 N 2.694786 -3.824019 4.112013 0
M  V30 28 C 3.288371 -4.231392 2.866257 0
M  V30 29 C 3.166878 -3.651497 1.661019 0
M  V30 30 C 3.840150 -4.273082 0.666284 0
M  V30 31 C 3.878986 -3.860215 -0.760464 0
M  V30 32 N 4.973001 -2.987206 -1.093567 0
M  V30 33 C 5.016656 -1.750238 -0.413246 0
M  V30 34 C 5.499303 -0.571911 -1.201141 0
M  V30 35 C 4.991615 -0.531193 -2.612110 0
M  V30 36 C 4.338961 -1.815188 -3.043373 0
M  V30 37 C 5.233664 -2.937845 -2.510833 0
M  V30 38 N 4.617765 -5.462824 0.918172 0
M  V30 39 S 4.313019 -5.631408 2.702017 0
M  V30 40 N 2.343891 -1.401554 4.492024 0
M  V30 41 H 2.267282 0.786783 6.027600 0
M  V30 42 H 3.110270 1.155000 4.480281 0
M  V30 43 H 1.405177 1.777918 4.823089 0
M  V30 44 H -0.320460 0.402197 3.839594 0
M  V30 45 H -3.867594 -2.803014 1.692388 0
M  V30 46 H -4.878624 2.243531 2.925729 0
M  V30 47 H -6.152228 1.212989 2.280257 0
M  V30 48 H -4.488671 4.156805 -3.337112 0
M  V30 49 H -5.326573 3.966478 -5.630893 0
M  V30 50 H -7.004369 2.204974 -6.295015 0
M  V30 51 H -7.807501 0.656683 -4.601634 0
M  V30 52 H -7.026527 0.790564 -2.332913 0
M  V30 53 H -3.771948 4.258192 -1.298476 0
M  V30 54 H -3.505983 3.649812 1.268422 0
M  V30 55 H -2.416635 0.916893 3.126890 0
M  V30 56 H -1.934918 -4.018428 2.225966 0
M  V30 57 H 2.841093 -4.380588 4.981441 0
M  V30 58 H 2.588910 -2.767005 1.472275 0
M  V30 59 H 3.849499 -4.716969 -1.446930 0
M  V30 60 H 2.925835 -3.299686 -0.968989 0
M  V30 61 H 5.667309 -1.848448 0.481702 0
M  V30 62 H 3.983115 -1.532274 -0.024628 0
M  V30 63 H 5.107306 0.339768 -0.687161 0
M  V30 64 H 6.604618 -0.485503 -1.158407 0
M  V30 65 H 5.856678 -0.360938 -3.295416 0
M  V30 66 H 4.281618 0.295630 -2.813452 0
M  V30 67 H 4.301852 -1.859916 -4.135369 0
M  V30 68 H 3.345996 -1.908479 -2.603573 0
M  V30 69 H 4.801760 -3.858269 -2.962140 0
M  V30 70 H 6.262169 -2.720529 -2.791145 0
M  V30 END ATOM
M  V30 BEGIN BOND
M  V30 1 1 1 2
M  V30 2 2 2 3
M  V30 3 1 3 4
M  V30 4 1 4 5
M  V30 5 1 5 6
M  V30 6 1 6 7
M  V30 7 2 7 8
M  V30 8 1 8 9
M  V30 9 1 9 10
M  V30 10 1 10 11
M  V30 11 2 11 12
M  V30 12 1 12 13
M  V30 13 1 13 14
M  V30 14 2 14 15
M  V30 15 1 15 16
M  V30 16 2 16 17
M  V30 17 1 17 18
M  V30 18 2 18 19
M  V30 19 2 13 20
M  V30 20 1 20 21
M  V30 21 1 9 22
M  V30 22 2 5 23
M  V30 23 1 23 24
M  V30 24 2 24 25
M  V30 25 1 25 26
M  V30 26 1 26 27
M  V30 27 1 27 28
M  V30 28 2 28 29
M  V30 29 1 29 30
M  V30 30 1 30 31
M  V30 31 1 31 32
M  V30 32 1 32 33
M  V30 33 1 33 34
M  V30 34 1 34 35
M  V30 35 1 35 36
M  V30 36 1 36 37
M  V30 37 2 30 38
M  V30 38 1 38 39
M  V30 39 2 26 40
M  V30 40 1 40 2
M  V30 41 1 25 4
M  V30 42 1 39 28
M  V30 43 2 22 6
M  V30 44 1 37 32
M  V30 45 1 21 11
M  V30 46 1 19 14
M  V30 47 1 1 41
M  V30 48 1 1 42
M  V30 49 1 1 43
M  V30 50 1 3 44
M  V30 51 1 7 45
M  V30 52 1 10 46
M  V30 53 1 10 47
M  V30 54 1 15 48
M  V30 55 1 16 49
M  V30 56 1 17 50
M  V30 57 1 18 51
M  V30 58 1 19 52
M  V30 59 1 20 53
M  V30 60 1 21 54
M  V30 61 1 22 55
M  V30 62 1 23 56
M  V30 63 1 27 57
M  V30 64 1 29 58
M  V30 65 1 31 59
M  V30 66 1 31 60
M  V30 67 1 33 61
M  V30 68 1 33 62
M  V30 69 1 34 63
M  V30 70 1 34 64
M  V30 71 1 35 65
M  V30 72 1 35 66
M  V30 73 1 36 67
M  V30 74 1 36 68
M  V30 75 1 37 69
M  V30 76 1 37 70
M  V30 END BOND
M  V30 END CTAB
M  END
>  <Dataset>  (510) 
ChEMBL_Kinases

>  <Ligand_Instance>  (510) 
nan

>  <PDB_ID>  (510) 
nan

>  <Standardized_SMILES>  (510) 
Cc1cn2c(-c3cnn(Cc4nc(-c5ccccc5)c[nH]4)c3)cnc2c(Nc2cc(CN3CCCCC3)ns2)n1

>  <Name>  (510) 
nan

>  <Pocket>  (510) 
nan

>  <ATP_Site>  (510) 
nan

>  <Peripheral>  (510) 
nan

>  <Num_H_Atoms_ProtBoundConf>  (510) 
nan

>  <Num_Resolved_Atoms>  (510) 
nan

>  <Num_Not_Resolved_Atoms>  (510) 
nan

$$$$
CHEMBL2023160
     RDKit          3D

  0  0  0  0  0  0  0  0  0  0999 V3000
M  V30 BEGIN CTAB
M  V30 COUNTS 47 49 0 0 0
M  V30 BEGIN ATOM
M  V30 1 O -0.192894 -0.425654 0.752339 0
M  V30 2 C 0.491591 -1.283378 1.363928 0
M  V30 3 N 1.889522 -1.039587 1.506386 0
M  V30 4 C 2.420013 0.171329 0.939945 0
M  V30 5 C 2.548829 1.401335 1.533922 0
M  V30 6 C 3.088380 2.445396 0.812063 0
M  V30 7 C 3.502260 2.289584 -0.489261 0
M  V30 8 C 4.071721 3.383033 -1.255444 0
M  V30 9 C 3.877591 3.421784 -2.641360 0
M  V30 10 C 4.396272 4.442873 -3.442484 0
M  V30 11 N 5.107130 5.425597 -2.871546 0
M  V30 12 C 5.321175 5.432947 -1.544188 0
M  V30 13 C 4.821502 4.438176 -0.727903 0
M  V30 14 C 3.379395 1.042520 -1.113539 0
M  V30 15 C 2.834578 -0.010796 -0.383824 0
M  V30 16 N -0.098095 -2.470099 1.904961 0
M  V30 17 C -1.532581 -2.650964 1.720470 0 CFG=1
M  V30 18 C -1.736727 -3.872017 0.866111 0
M  V30 19 O -1.177379 -4.961375 1.532595 0
M  V30 20 C -2.279008 -2.743370 3.032694 0
M  V30 21 C -3.731650 -2.926342 2.881852 0
M  V30 22 C -4.522938 -1.795450 2.813743 0
M  V30 23 C -5.892463 -1.879447 2.672974 0
M  V30 24 C -6.526767 -3.096962 2.594572 0
M  V30 25 C -5.744856 -4.249972 2.661479 0
M  V30 26 C -4.355164 -4.174306 2.804169 0
M  V30 27 H 2.473568 -1.754832 2.019520 0
M  V30 28 H 2.199332 1.435384 2.556467 0
M  V30 29 H 3.174874 3.391487 1.304593 0
M  V30 30 H 3.305312 2.647522 -3.168758 0
M  V30 31 H 4.234392 4.453106 -4.509964 0
M  V30 32 H 5.906404 6.246838 -1.094677 0
M  V30 33 H 4.982678 4.426840 0.339354 0
M  V30 34 H 3.707238 0.913441 -2.148662 0
M  V30 35 H 2.767350 -0.957272 -0.931728 0
M  V30 36 H 0.470455 -3.187947 2.415870 0
M  V30 37 H -1.906679 -1.768814 1.161546 0
M  V30 38 H -2.835026 -3.994809 0.734105 0
M  V30 39 H -1.245576 -3.661591 -0.113812 0
M  V30 40 H -0.628104 -5.517208 0.924277 0
M  V30 41 H -2.027915 -1.862118 3.657076 0
M  V30 42 H -1.908070 -3.624493 3.609424 0
M  V30 43 H -4.071170 -0.813566 2.870903 0
M  V30 44 H -6.537711 -1.032008 2.616498 0
M  V30 45 H -7.581143 -3.312636 2.484497 0
M  V30 46 H -6.136752 -5.257043 2.610353 0
M  V30 47 H -3.712807 -5.029411 2.860061 0
M  V30 END ATOM
M  V30 BEGIN BOND
M  V30 1 2 1 2
M  V30 2 1 2 3
M  V30 3 1 3 4
M  V30 4 2 4 5
M  V30 5 1 5 6
M  V30 6 2 6 7
M  V30 7 1 7 8
M  V30 8 2 8 9
M  V30 9 1 9 10
M  V30 10 2 10 11
M  V30 11 1 11 12
M  V30 12 2 12 13
M  V30 13 1 7 14
M  V30 14 2 14 15
M  V30 15 1 2 16
M  V30 16 1 16 17
M  V30 17 1 17 18
M  V30 18 1 18 19
M  V30 19 1 17 20
M  V30 20 1 20 21
M  V30 21 2 21 22
M  V30 22 1 22 23
M  V30 23 2 23 24
M  V30 24 1 24 25
M  V30 25 2 25 26
M  V30 26 1 15 4
M  V30 27 1 26 21
M  V30 28 1 13 8
M  V30 29 1 3 27
M  V30 30 1 5 28
M  V30 31 1 6 29
M  V30 32 1 9 30
M  V30 33 1 10 31
M  V30 34 1 12 32
M  V30 35 1 13 33
M  V30 36 1 14 34
M  V30 37 1 15 35
M  V30 38 1 16 36
M  V30 39 1 17 37 CFG=3
M  V30 40 1 18 38
M  V30 41 1 18 39
M  V30 42 1 19 40
M  V30 43 1 20 41
M  V30 44 1 20 42
M  V30 45 1 22 43
M  V30 46 1 23 44
M  V30 47 1 24 45
M  V30 48 1 25 46
M  V30 49 1 26 47
M  V30 END BOND
M  V30 END CTAB
M  END
>  <Dataset>  (511) 
ChEMBL_Kinases

>  <Ligand_Instance>  (511) 
nan

>  <PDB_ID>  (511) 
nan

>  <Standardized_SMILES>  (511) 
O=C(Nc1ccc(-c2ccncc2)cc1)N[C@@H](CO)Cc1ccccc1

>  <Name>  (511) 
nan

>  <Pocket>  (511) 
nan

>  <ATP_Site>  (511) 
nan

>  <Peripheral>  (511) 
nan

>  <Num_H_Atoms_ProtBoundConf>  (511) 
nan

>  <Num_Resolved_Atoms>  (511) 
nan

>  <Num_Not_Resolved_Atoms>  (511) 
nan

$$$$
CHEMBL2023159
     RDKit          3D

  0  0  0  0  0  0  0  0  0  0999 V3000
M  V30 BEGIN CTAB
M  V30 COUNTS 43 45 0 0 0
M  V30 BEGIN ATOM
M  V30 1 O 0.471820 -1.309759 0.851379 0
M  V30 2 C 1.448878 -1.991846 1.313768 0
M  V30 3 N 1.611064 -3.314220 0.878206 0
M  V30 4 C 0.732607 -3.958559 -0.070020 0
M  V30 5 C 0.683767 -3.262259 -1.412789 0
M  V30 6 C -0.248570 -3.987107 -2.348032 0
M  V30 7 C -1.583607 -3.643426 -2.394067 0
M  V30 8 C -2.438440 -4.309132 -3.251878 0
M  V30 9 C -1.992232 -5.329606 -4.083393 0
M  V30 10 C -0.644734 -5.598625 -3.964161 0
M  V30 11 C 0.273232 -4.988050 -3.140503 0
M  V30 12 N 2.261343 -1.283496 2.238719 0
M  V30 13 C 1.851360 0.058117 2.491562 0
M  V30 14 C 0.959273 0.193683 3.537121 0
M  V30 15 C 0.467569 1.429858 3.906892 0
M  V30 16 C 0.881491 2.548431 3.211719 0
M  V30 17 C 0.466131 3.926223 3.464320 0
M  V30 18 C 0.347393 4.937349 2.517433 0
M  V30 19 C -0.058067 6.201258 2.896972 0
M  V30 20 N -0.344183 6.476735 4.182386 0
M  V30 21 C -0.245051 5.533100 5.137226 0
M  V30 22 C 0.162026 4.241343 4.793761 0
M  V30 23 C 1.779755 2.434405 2.154953 0
M  V30 24 C 2.252816 1.181732 1.810442 0
M  V30 25 H 2.442982 -3.806382 1.309141 0
M  V30 26 H -0.295050 -3.968190 0.389023 0
M  V30 27 H 1.075866 -5.003322 -0.186525 0
M  V30 28 H 1.689102 -3.303803 -1.847610 0
M  V30 29 H 0.303850 -2.243502 -1.353234 0
M  V30 30 H -2.007957 -2.856871 -1.775341 0
M  V30 31 H -3.497819 -4.050736 -3.301921 0
M  V30 32 H -2.604422 -5.890317 -4.776087 0
M  V30 33 H -0.262556 -6.401552 -4.610056 0
M  V30 34 H 1.307077 -5.298727 -3.146498 0
M  V30 35 H 3.071649 -1.813336 2.637663 0
M  V30 36 H 0.551131 -0.602100 4.168016 0
M  V30 37 H -0.230293 1.630548 4.707949 0
M  V30 38 H 0.593339 4.649156 1.497524 0
M  V30 39 H -0.126602 6.928640 2.112611 0
M  V30 40 H -0.465847 5.702591 6.200802 0
M  V30 41 H 0.240482 3.484254 5.566601 0
M  V30 42 H 2.145022 3.271214 1.568282 0
M  V30 43 H 2.949369 1.006904 1.006434 0
M  V30 END ATOM
M  V30 BEGIN BOND
M  V30 1 2 1 2
M  V30 2 1 2 3
M  V30 3 1 3 4
M  V30 4 1 4 5
M  V30 5 1 5 6
M  V30 6 2 6 7
M  V30 7 1 7 8
M  V30 8 2 8 9
M  V30 9 1 9 10
M  V30 10 2 10 11
M  V30 11 1 2 12
M  V30 12 1 12 13
M  V30 13 2 13 14
M  V30 14 1 14 15
M  V30 15 2 15 16
M  V30 16 1 16 17
M  V30 17 2 17 18
M  V30 18 1 18 19
M  V30 19 2 19 20
M  V30 20 1 20 21
M  V30 21 2 21 22
M  V30 22 1 16 23
M  V30 23 2 23 24
M  V30 24 1 11 6
M  V30 25 1 24 13
M  V30 26 1 22 17
M  V30 27 1 3 25
M  V30 28 1 4 26
M  V30 29 1 4 27
M  V30 30 1 5 28
M  V30 31 1 5 29
M  V30 32 1 7 30
M  V30 33 1 8 31
M  V30 34 1 9 32
M  V30 35 1 10 33
M  V30 36 1 11 34
M  V30 37 1 12 35
M  V30 38 1 14 36
M  V30 39 1 15 37
M  V30 40 1 18 38
M  V30 41 1 19 39
M  V30 42 1 21 40
M  V30 43 1 22 41
M  V30 44 1 23 42
M  V30 45 1 24 43
M  V30 END BOND
M  V30 END CTAB
M  END
>  <Dataset>  (512) 
ChEMBL_Kinases

>  <Ligand_Instance>  (512) 
nan

>  <PDB_ID>  (512) 
nan

>  <Standardized_SMILES>  (512) 
O=C(NCCc1ccccc1)Nc1ccc(-c2ccncc2)cc1

>  <Name>  (512) 
nan

>  <Pocket>  (512) 
nan

>  <ATP_Site>  (512) 
nan

>  <Peripheral>  (512) 
nan

>  <Num_H_Atoms_ProtBoundConf>  (512) 
nan

>  <Num_Resolved_Atoms>  (512) 
nan

>  <Num_Not_Resolved_Atoms>  (512) 
nan

$$$$
CHEMBL2023157
     RDKit          3D

  0  0  0  0  0  0  0  0  0  0999 V3000
M  V30 BEGIN CTAB
M  V30 COUNTS 44 46 0 0 0
M  V30 BEGIN ATOM
M  V30 1 O 0.233544 -1.681742 0.656869 0
M  V30 2 C 0.140886 -1.234487 1.816469 0
M  V30 3 N 1.152932 -0.261516 2.072586 0
M  V30 4 C 2.078582 0.058935 1.038271 0
M  V30 5 C 3.296991 -0.516689 0.731002 0
M  V30 6 C 4.009578 -0.010790 -0.336477 0
M  V30 7 C 3.571596 1.039126 -1.113875 0
M  V30 8 C 4.349483 1.545572 -2.237613 0
M  V30 9 C 5.172752 0.758472 -3.030004 0
M  V30 10 C 5.879439 1.343310 -4.086477 0
M  V30 11 N 5.768518 2.657850 -4.340381 0
M  V30 12 C 4.998580 3.457234 -3.618051 0
M  V30 13 C 4.288404 2.896301 -2.564457 0
M  V30 14 C 2.335080 1.617613 -0.795690 0
M  V30 15 C 1.596562 1.119132 0.283225 0
M  V30 16 N -0.783008 -1.539366 2.868643 0
M  V30 17 C -1.837036 -2.522242 2.676329 0 CFG=1
M  V30 18 C -1.772342 -3.695900 3.587257 0
M  V30 19 O -2.858210 -4.525629 3.253066 0
M  V30 20 C -3.179150 -1.877228 2.642399 0
M  V30 21 C -3.595182 -0.896221 3.532006 0
M  V30 22 C -4.841322 -0.312875 3.484767 0
M  V30 23 C -5.746126 -0.706757 2.509060 0
M  V30 24 C -5.399820 -1.686151 1.581010 0
M  V30 25 C -4.130439 -2.222729 1.695568 0
M  V30 26 H 1.231053 0.227741 3.013629 0
M  V30 27 H 3.554821 -1.318321 1.381817 0
M  V30 28 H 4.965781 -0.502157 -0.536199 0
M  V30 29 H 5.244820 -0.308596 -2.801439 0
M  V30 30 H 6.498230 0.639252 -4.648568 0
M  V30 31 H 4.911140 4.522489 -3.827011 0
M  V30 32 H 3.658192 3.567051 -1.975563 0
M  V30 33 H 2.023392 2.441281 -1.428837 0
M  V30 34 H 0.680864 1.659087 0.401835 0
M  V30 35 H -0.673779 -1.031841 3.775968 0
M  V30 36 H -1.680858 -2.902726 1.640296 0
M  V30 37 H -0.857540 -4.274370 3.345776 0
M  V30 38 H -1.809539 -3.439564 4.662464 0
M  V30 39 H -2.582371 -5.330553 2.759510 0
M  V30 40 H -2.840747 -0.618392 4.286289 0
M  V30 41 H -5.039176 0.432991 4.228058 0
M  V30 42 H -6.722759 -0.231700 2.491360 0
M  V30 43 H -6.067388 -2.008866 0.823630 0
M  V30 44 H -3.826543 -2.996851 0.979071 0
M  V30 END ATOM
M  V30 BEGIN BOND
M  V30 1 2 1 2
M  V30 2 1 2 3
M  V30 3 1 3 4
M  V30 4 2 4 5
M  V30 5 1 5 6
M  V30 6 2 6 7
M  V30 7 1 7 8
M  V30 8 2 8 9
M  V30 9 1 9 10
M  V30 10 2 10 11
M  V30 11 1 11 12
M  V30 12 2 12 13
M  V30 13 1 7 14
M  V30 14 2 14 15
M  V30 15 1 2 16
M  V30 16 1 16 17
M  V30 17 1 17 18
M  V30 18 1 18 19
M  V30 19 1 17 20
M  V30 20 2 20 21
M  V30 21 1 21 22
M  V30 22 2 22 23
M  V30 23 1 23 24
M  V30 24 2 24 25
M  V30 25 1 15 4
M  V30 26 1 25 20
M  V30 27 1 13 8
M  V30 28 1 3 26
M  V30 29 1 5 27
M  V30 30 1 6 28
M  V30 31 1 9 29
M  V30 32 1 10 30
M  V30 33 1 12 31
M  V30 34 1 13 32
M  V30 35 1 14 33
M  V30 36 1 15 34
M  V30 37 1 16 35
M  V30 38 1 17 36 CFG=3
M  V30 39 1 18 37
M  V30 40 1 18 38
M  V30 41 1 19 39
M  V30 42 1 21 40
M  V30 43 1 22 41
M  V30 44 1 23 42
M  V30 45 1 24 43
M  V30 46 1 25 44
M  V30 END BOND
M  V30 END CTAB
M  END
>  <Dataset>  (513) 
ChEMBL_Kinases

>  <Ligand_Instance>  (513) 
nan

>  <PDB_ID>  (513) 
nan

>  <Standardized_SMILES>  (513) 
O=C(Nc1ccc(-c2ccncc2)cc1)N[C@@H](CO)c1ccccc1

>  <Name>  (513) 
nan

>  <Pocket>  (513) 
nan

>  <ATP_Site>  (513) 
nan

>  <Peripheral>  (513) 
nan

>  <Num_H_Atoms_ProtBoundConf>  (513) 
nan

>  <Num_Resolved_Atoms>  (513) 
nan

>  <Num_Not_Resolved_Atoms>  (513) 
nan

$$$$
CHEMBL2023156
     RDKit          3D

  0  0  0  0  0  0  0  0  0  0999 V3000
M  V30 BEGIN CTAB
M  V30 COUNTS 40 42 0 0 0
M  V30 BEGIN ATOM
M  V30 1 O 0.094906 -1.600543 -0.009253 0
M  V30 2 C 0.166397 -1.255171 -1.216237 0
M  V30 3 N 0.545025 -2.155632 -2.246112 0
M  V30 4 C 0.891570 -3.550549 -2.068499 0
M  V30 5 C 2.263091 -3.640748 -1.510268 0
M  V30 6 C 2.636423 -3.686835 -0.184800 0
M  V30 7 C 3.957196 -3.769241 0.199604 0
M  V30 8 C 4.942970 -3.807285 -0.763222 0
M  V30 9 C 4.608987 -3.763250 -2.088117 0
M  V30 10 C 3.273194 -3.680278 -2.462358 0
M  V30 11 N -0.165972 0.098400 -1.420660 0
M  V30 12 C -0.498687 0.708688 -0.154317 0
M  V30 13 C -1.844124 0.595813 0.139768 0
M  V30 14 C -2.292052 1.149028 1.345422 0
M  V30 15 C -1.390507 1.775564 2.181019 0
M  V30 16 C -1.932839 2.322741 3.417273 0
M  V30 17 C -1.237727 2.427485 4.625331 0
M  V30 18 C -1.831017 2.956747 5.742455 0
M  V30 19 N -3.097057 3.401057 5.747223 0
M  V30 20 C -3.823938 3.332790 4.626898 0
M  V30 21 C -3.245458 2.803568 3.491914 0
M  V30 22 C -0.035890 1.881655 1.870364 0
M  V30 23 C 0.402970 1.334474 0.679613 0
M  V30 24 H 0.575931 -1.769219 -3.232906 0
M  V30 25 H 0.153949 -3.989050 -1.332164 0
M  V30 26 H 0.758794 -4.142139 -2.975671 0
M  V30 27 H 1.820459 -3.655903 0.522555 0
M  V30 28 H 4.101123 -3.797473 1.278488 0
M  V30 29 H 5.941119 -3.872422 -0.311303 0
M  V30 30 H 5.463934 -3.799664 -2.741921 0
M  V30 31 H 3.138711 -3.652424 -3.537341 0
M  V30 32 H -0.137972 0.490135 -2.407502 0
M  V30 33 H -2.589440 0.119079 -0.474436 0
M  V30 34 H -3.331319 1.076840 1.601221 0
M  V30 35 H -0.220665 2.066693 4.608182 0
M  V30 36 H -1.214118 3.000614 6.644534 0
M  V30 37 H -4.847593 3.683764 4.603101 0
M  V30 38 H -3.864824 2.767752 2.614346 0
M  V30 39 H 0.647175 2.376042 2.539681 0
M  V30 40 H 1.420754 1.370453 0.363920 0
M  V30 END ATOM
M  V30 BEGIN BOND
M  V30 1 2 1 2
M  V30 2 1 2 3
M  V30 3 1 3 4
M  V30 4 1 4 5
M  V30 5 2 5 6
M  V30 6 1 6 7
M  V30 7 2 7 8
M  V30 8 1 8 9
M  V30 9 2 9 10
M  V30 10 1 2 11
M  V30 11 1 11 12
M  V30 12 2 12 13
M  V30 13 1 13 14
M  V30 14 2 14 15
M  V30 15 1 15 16
M  V30 16 2 16 17
M  V30 17 1 17 18
M  V30 18 2 18 19
M  V30 19 1 19 20
M  V30 20 2 20 21
M  V30 21 1 15 22
M  V30 22 2 22 23
M  V30 23 1 10 5
M  V30 24 1 23 12
M  V30 25 1 21 16
M  V30 26 1 3 24
M  V30 27 1 4 25
M  V30 28 1 4 26
M  V30 29 1 6 27
M  V30 30 1 7 28
M  V30 31 1 8 29
M  V30 32 1 9 30
M  V30 33 1 10 31
M  V30 34 1 11 32
M  V30 35 1 13 33
M  V30 36 1 14 34
M  V30 37 1 17 35
M  V30 38 1 18 36
M  V30 39 1 20 37
M  V30 40 1 21 38
M  V30 41 1 22 39
M  V30 42 1 23 40
M  V30 END BOND
M  V30 END CTAB
M  END
>  <Dataset>  (514) 
ChEMBL_Kinases

>  <Ligand_Instance>  (514) 
nan

>  <PDB_ID>  (514) 
nan

>  <Standardized_SMILES>  (514) 
O=C(NCc1ccccc1)Nc1ccc(-c2ccncc2)cc1

>  <Name>  (514) 
nan

>  <Pocket>  (514) 
nan

>  <ATP_Site>  (514) 
nan

>  <Peripheral>  (514) 
nan

>  <Num_H_Atoms_ProtBoundConf>  (514) 
nan

>  <Num_Resolved_Atoms>  (514) 
nan

>  <Num_Not_Resolved_Atoms>  (514) 
nan

$$$$
CHEMBL2023155
     RDKit          3D

  0  0  0  0  0  0  0  0  0  0999 V3000
M  V30 BEGIN CTAB
M  V30 COUNTS 40 42 0 0 0
M  V30 BEGIN ATOM
M  V30 1 O 0.313933 -1.469840 1.759909 0
M  V30 2 C 1.030913 -2.457878 1.356056 0
M  V30 3 N 0.449422 -3.009997 0.240572 0
M  V30 4 C -0.494293 -3.183252 -0.806082 0
M  V30 5 C -0.672956 -2.050447 -1.775491 0
M  V30 6 C -1.187792 -0.820193 -1.124451 0
M  V30 7 C -1.452086 0.319392 -2.095365 0
M  V30 8 C -2.657605 0.388507 -2.742275 0
M  V30 9 C -2.961338 1.426152 -3.604018 0
M  V30 10 C -1.959870 2.323865 -3.720488 0
M  V30 11 C -0.711807 2.416014 -3.162720 0
M  V30 12 C -0.529745 1.313141 -2.319278 0
M  V30 13 N 2.120727 -2.587197 2.216317 0
M  V30 14 C 2.059224 -1.607042 3.240520 0
M  V30 15 C 1.458540 -1.849201 4.452623 0
M  V30 16 C 1.347914 -0.963240 5.487478 0
M  V30 17 C 1.912741 0.276927 5.230966 0
M  V30 18 N 1.923254 1.290205 6.100001 0
M  V30 19 N 2.547943 2.305722 5.517404 0
M  V30 20 C 2.937766 1.936435 4.264170 0
M  V30 21 C 2.535276 0.608082 4.042886 0
M  V30 22 C 2.604519 -0.342991 3.052436 0
M  V30 23 H 1.191031 -3.778890 0.069524 0
M  V30 24 H -0.434255 -4.163660 -1.311927 0
M  V30 25 H -1.523679 -3.275606 -0.287588 0
M  V30 26 H 0.383768 -1.862464 -2.174354 0
M  V30 27 H -1.300762 -2.410323 -2.615282 0
M  V30 28 H -0.342606 -0.432581 -0.477306 0
M  V30 29 H -2.088259 -0.990553 -0.511315 0
M  V30 30 H -3.348442 -0.415143 -2.538195 0
M  V30 31 H -3.905129 1.494055 -4.116986 0
M  V30 32 H -2.211093 3.147000 -4.411217 0
M  V30 33 H 0.048080 3.160821 -3.280971 0
M  V30 34 H 0.425774 1.193948 -1.762088 0
M  V30 35 H 2.716435 -3.394461 1.865440 0
M  V30 36 H 1.052817 -2.850971 4.549768 0
M  V30 37 H 0.847071 -1.273189 6.389722 0
M  V30 38 H 1.511741 1.332180 7.089393 0
M  V30 39 H 3.466020 2.448061 3.469336 0
M  V30 40 H 3.100285 -0.039832 2.148701 0
M  V30 END ATOM
M  V30 BEGIN BOND
M  V30 1 2 1 2
M  V30 2 1 2 3
M  V30 3 1 3 4
M  V30 4 1 4 5
M  V30 5 1 5 6
M  V30 6 1 6 7
M  V30 7 2 7 8
M  V30 8 1 8 9
M  V30 9 2 9 10
M  V30 10 1 10 11
M  V30 11 2 11 12
M  V30 12 1 2 13
M  V30 13 1 13 14
M  V30 14 2 14 15
M  V30 15 1 15 16
M  V30 16 2 16 17
M  V30 17 1 17 18
M  V30 18 1 18 19
M  V30 19 2 19 20
M  V30 20 1 20 21
M  V30 21 2 21 22
M  V30 22 1 12 7
M  V30 23 1 22 14
M  V30 24 1 21 17
M  V30 25 1 3 23
M  V30 26 1 4 24
M  V30 27 1 4 25
M  V30 28 1 5 26
M  V30 29 1 5 27
M  V30 30 1 6 28
M  V30 31 1 6 29
M  V30 32 1 8 30
M  V30 33 1 9 31
M  V30 34 1 10 32
M  V30 35 1 11 33
M  V30 36 1 12 34
M  V30 37 1 13 35
M  V30 38 1 15 36
M  V30 39 1 16 37
M  V30 40 1 18 38
M  V30 41 1 20 39
M  V30 42 1 22 40
M  V30 END BOND
M  V30 END CTAB
M  END
>  <Dataset>  (515) 
ChEMBL_Kinases

>  <Ligand_Instance>  (515) 
nan

>  <PDB_ID>  (515) 
nan

>  <Standardized_SMILES>  (515) 
O=C(NCCCc1ccccc1)Nc1ccc2[nH]ncc2c1

>  <Name>  (515) 
nan

>  <Pocket>  (515) 
nan

>  <ATP_Site>  (515) 
nan

>  <Peripheral>  (515) 
nan

>  <Num_H_Atoms_ProtBoundConf>  (515) 
nan

>  <Num_Resolved_Atoms>  (515) 
nan

>  <Num_Not_Resolved_Atoms>  (515) 
nan

$$$$
CHEMBL2023154
     RDKit          3D

  0  0  0  0  0  0  0  0  0  0999 V3000
M  V30 BEGIN CTAB
M  V30 COUNTS 37 39 0 0 0
M  V30 BEGIN ATOM
M  V30 1 O 0.604424 -1.140967 1.348502 0
M  V30 2 C -0.507938 -1.062158 1.873492 0
M  V30 3 N -1.052234 -2.246294 2.412430 0
M  V30 4 C -0.569363 -3.588348 2.447717 0
M  V30 5 C -0.431347 -4.300179 1.152889 0
M  V30 6 C 0.418987 -3.777040 0.110638 0
M  V30 7 C 1.746251 -4.117672 0.265395 0
M  V30 8 C 2.738362 -3.752091 -0.649976 0
M  V30 9 C 2.398537 -3.018577 -1.764040 0
M  V30 10 C 1.086554 -2.669117 -1.938212 0
M  V30 11 C 0.106972 -3.028280 -1.037400 0
M  V30 12 N -1.161348 0.168887 1.908445 0
M  V30 13 C -0.723262 1.415353 1.406715 0
M  V30 14 C -1.534478 2.526664 1.545925 0
M  V30 15 C -1.187045 3.774171 1.088091 0
M  V30 16 C 0.001360 3.993130 0.457407 0
M  V30 17 N 0.584100 5.080757 -0.078359 0
M  V30 18 N 1.771009 4.714192 -0.573035 0
M  V30 19 C 1.951233 3.397023 -0.356662 0
M  V30 20 C 0.833800 2.922496 0.298441 0
M  V30 21 C 0.457961 1.704109 0.763409 0
M  V30 22 H -1.995284 -2.110499 2.875151 0
M  V30 23 H -1.176541 -4.211843 3.152507 0
M  V30 24 H 0.439202 -3.513656 2.975071 0
M  V30 25 H -1.481536 -4.349854 0.699124 0
M  V30 26 H -0.206812 -5.394842 1.343205 0
M  V30 27 H 2.163250 -4.698210 1.101222 0
M  V30 28 H 3.779323 -4.014532 -0.536447 0
M  V30 29 H 3.127015 -2.711383 -2.500601 0
M  V30 30 H 0.725944 -2.099040 -2.774121 0
M  V30 31 H -0.955646 -2.797940 -1.090879 0
M  V30 32 H -2.100301 0.160823 2.368767 0
M  V30 33 H -2.500645 2.446957 2.035965 0
M  V30 34 H -1.867576 4.613178 1.226423 0
M  V30 35 H 0.137987 6.026200 -0.079055 0
M  V30 36 H 2.811362 2.795097 -0.637445 0
M  V30 37 H 1.165372 0.907059 0.602269 0
M  V30 END ATOM
M  V30 BEGIN BOND
M  V30 1 2 1 2
M  V30 2 1 2 3
M  V30 3 1 3 4
M  V30 4 1 4 5
M  V30 5 1 5 6
M  V30 6 2 6 7
M  V30 7 1 7 8
M  V30 8 2 8 9
M  V30 9 1 9 10
M  V30 10 2 10 11
M  V30 11 1 2 12
M  V30 12 1 12 13
M  V30 13 2 13 14
M  V30 14 1 14 15
M  V30 15 2 15 16
M  V30 16 1 16 17
M  V30 17 1 17 18
M  V30 18 2 18 19
M  V30 19 1 19 20
M  V30 20 2 20 21
M  V30 21 1 11 6
M  V30 22 1 21 13
M  V30 23 1 20 16
M  V30 24 1 3 22
M  V30 25 1 4 23
M  V30 26 1 4 24
M  V30 27 1 5 25
M  V30 28 1 5 26
M  V30 29 1 7 27
M  V30 30 1 8 28
M  V30 31 1 9 29
M  V30 32 1 10 30
M  V30 33 1 11 31
M  V30 34 1 12 32
M  V30 35 1 14 33
M  V30 36 1 15 34
M  V30 37 1 17 35
M  V30 38 1 19 36
M  V30 39 1 21 37
M  V30 END BOND
M  V30 END CTAB
M  END
>  <Dataset>  (516) 
ChEMBL_Kinases

>  <Ligand_Instance>  (516) 
nan

>  <PDB_ID>  (516) 
nan

>  <Standardized_SMILES>  (516) 
O=C(NCCc1ccccc1)Nc1ccc2[nH]ncc2c1

>  <Name>  (516) 
nan

>  <Pocket>  (516) 
nan

>  <ATP_Site>  (516) 
nan

>  <Peripheral>  (516) 
nan

>  <Num_H_Atoms_ProtBoundConf>  (516) 
nan

>  <Num_Resolved_Atoms>  (516) 
nan

>  <Num_Not_Resolved_Atoms>  (516) 
nan

$$$$
CHEMBL2023153
     RDKit          3D

  0  0  0  0  0  0  0  0  0  0999 V3000
M  V30 BEGIN CTAB
M  V30 COUNTS 37 39 0 0 0
M  V30 BEGIN ATOM
M  V30 1 O 0.128407 -1.296651 2.379001 0
M  V30 2 C -0.716714 -1.264399 1.447484 0
M  V30 3 N -1.137187 -2.422234 0.736771 0
M  V30 4 C -0.617569 -3.715414 1.041079 0
M  V30 5 C 0.879795 -3.809294 0.868835 0
M  V30 6 C 1.307887 -3.515665 -0.511736 0
M  V30 7 C 1.640697 -2.265736 -1.005721 0
M  V30 8 C 2.034654 -2.062420 -2.314239 0
M  V30 9 C 2.101342 -3.147338 -3.170528 0
M  V30 10 Cl 2.608412 -2.836548 -4.827015 0
M  V30 11 C 1.772842 -4.399792 -2.693567 0
M  V30 12 C 1.382370 -4.575675 -1.382084 0
M  V30 13 N -1.276695 -0.010762 1.089805 0
M  V30 14 C -0.999931 1.262428 1.665312 0
M  V30 15 C -1.747055 1.728271 2.748197 0
M  V30 16 C -1.456668 2.982154 3.296624 0
M  V30 17 C -0.421200 3.715428 2.727274 0
M  V30 18 N 0.062876 4.935231 3.053547 0
M  V30 19 N 1.057877 5.266527 2.254282 0
M  V30 20 C 1.242723 4.245797 1.374704 0
M  V30 21 C 0.314639 3.239934 1.649479 0
M  V30 22 C 0.029400 2.002160 1.106640 0
M  V30 23 H -1.856415 -2.298798 -0.035578 0
M  V30 24 H -0.908559 -4.028141 2.063482 0
M  V30 25 H -1.075114 -4.473791 0.368551 0
M  V30 26 H 1.228136 -4.823494 1.151483 0
M  V30 27 H 1.356891 -3.132143 1.615375 0
M  V30 28 H 1.580086 -1.434748 -0.315479 0
M  V30 29 H 2.281873 -1.037687 -2.626622 0
M  V30 30 H 1.858994 -5.190253 -3.453259 0
M  V30 31 H 1.151568 -5.613037 -1.136243 0
M  V30 32 H -1.985229 0.128947 0.332508 0
M  V30 33 H -2.543985 1.096763 3.141012 0
M  V30 34 H -2.036029 3.349730 4.140622 0
M  V30 35 H -0.244363 5.600650 3.818963 0
M  V30 36 H 1.991691 4.205158 0.577178 0
M  V30 37 H 0.607198 1.638416 0.266837 0
M  V30 END ATOM
M  V30 BEGIN BOND
M  V30 1 2 1 2
M  V30 2 1 2 3
M  V30 3 1 3 4
M  V30 4 1 4 5
M  V30 5 1 5 6
M  V30 6 2 6 7
M  V30 7 1 7 8
M  V30 8 2 8 9
M  V30 9 1 9 10
M  V30 10 1 9 11
M  V30 11 2 11 12
M  V30 12 1 2 13
M  V30 13 1 13 14
M  V30 14 2 14 15
M  V30 15 1 15 16
M  V30 16 2 16 17
M  V30 17 1 17 18
M  V30 18 1 18 19
M  V30 19 2 19 20
M  V30 20 1 20 21
M  V30 21 2 21 22
M  V30 22 1 12 6
M  V30 23 1 22 14
M  V30 24 1 21 17
M  V30 25 1 3 23
M  V30 26 1 4 24
M  V30 27 1 4 25
M  V30 28 1 5 26
M  V30 29 1 5 27
M  V30 30 1 7 28
M  V30 31 1 8 29
M  V30 32 1 11 30
M  V30 33 1 12 31
M  V30 34 1 13 32
M  V30 35 1 15 33
M  V30 36 1 16 34
M  V30 37 1 18 35
M  V30 38 1 20 36
M  V30 39 1 22 37
M  V30 END BOND
M  V30 END CTAB
M  END
>  <Dataset>  (517) 
ChEMBL_Kinases

>  <Ligand_Instance>  (517) 
nan

>  <PDB_ID>  (517) 
nan

>  <Standardized_SMILES>  (517) 
O=C(NCCc1ccc(Cl)cc1)Nc1ccc2[nH]ncc2c1

>  <Name>  (517) 
nan

>  <Pocket>  (517) 
nan

>  <ATP_Site>  (517) 
nan

>  <Peripheral>  (517) 
nan

>  <Num_H_Atoms_ProtBoundConf>  (517) 
nan

>  <Num_Resolved_Atoms>  (517) 
nan

>  <Num_Not_Resolved_Atoms>  (517) 
nan

$$$$
CHEMBL2023152
     RDKit          3D

  0  0  0  0  0  0  0  0  0  0999 V3000
M  V30 BEGIN CTAB
M  V30 COUNTS 41 43 0 0 0
M  V30 BEGIN ATOM
M  V30 1 C 0.303791 -8.154444 0.329129 0
M  V30 2 O 1.161354 -7.165472 0.864948 0
M  V30 3 C 0.845484 -5.826861 0.656889 0
M  V30 4 C 1.684443 -4.858173 1.181090 0
M  V30 5 C 1.371721 -3.511037 0.974971 0
M  V30 6 C 0.282093 -3.090804 0.283608 0
M  V30 7 C -0.082761 -1.680645 0.044162 0
M  V30 8 C 0.488397 -1.099029 -1.200317 0
M  V30 9 N 0.048188 0.281846 -1.303815 0
M  V30 10 C 0.307680 1.298462 -0.376699 0
M  V30 11 O 0.966078 1.089686 0.655760 0
M  V30 12 N -0.150548 2.636885 -0.530456 0
M  V30 13 C 0.260573 3.471400 0.570998 0
M  V30 14 C 1.433671 4.197948 0.638022 0
M  V30 15 C 1.671795 4.952601 1.780299 0
M  V30 16 C 0.765833 4.980322 2.823095 0
M  V30 17 N 0.774407 5.627912 4.017512 0
M  V30 18 N -0.350363 5.314431 4.665456 0
M  V30 19 C -1.105873 4.479541 3.940134 0
M  V30 20 C -0.424753 4.247556 2.763649 0
M  V30 21 C -0.639305 3.504970 1.618012 0
M  V30 22 C -0.525435 -4.112424 -0.220396 0
M  V30 23 C -0.284622 -5.452717 -0.059769 0
M  V30 24 H -0.728030 -8.114496 0.739687 0
M  V30 25 H 0.712358 -9.145238 0.587263 0
M  V30 26 H 0.290332 -7.976534 -0.772971 0
M  V30 27 H 2.576606 -5.143134 1.746789 0
M  V30 28 H 2.041046 -2.775031 1.393425 0
M  V30 29 H -1.195985 -1.644055 -0.016322 0
M  V30 30 H 0.219095 -1.105825 0.925469 0
M  V30 31 H 0.262051 -1.635971 -2.115023 0
M  V30 32 H 1.602291 -1.019369 -1.032485 0
M  V30 33 H -0.517968 0.588882 -2.131905 0
M  V30 34 H -0.720063 2.873656 -1.396934 0
M  V30 35 H 2.087529 4.121220 -0.220039 0
M  V30 36 H 2.602848 5.510358 1.798395 0
M  V30 37 H 1.526711 6.260909 4.371051 0
M  V30 38 H -2.060663 4.058093 4.201402 0
M  V30 39 H -1.579348 2.954243 1.622830 0
M  V30 40 H -1.418818 -3.836720 -0.786812 0
M  V30 41 H -0.949007 -6.198991 -0.475021 0
M  V30 END ATOM
M  V30 BEGIN BOND
M  V30 1 1 1 2
M  V30 2 1 2 3
M  V30 3 2 3 4
M  V30 4 1 4 5
M  V30 5 2 5 6
M  V30 6 1 6 7
M  V30 7 1 7 8
M  V30 8 1 8 9
M  V30 9 1 9 10
M  V30 10 2 10 11
M  V30 11 1 10 12
M  V30 12 1 12 13
M  V30 13 2 13 14
M  V30 14 1 14 15
M  V30 15 2 15 16
M  V30 16 1 16 17
M  V30 17 1 17 18
M  V30 18 2 18 19
M  V30 19 1 19 20
M  V30 20 2 20 21
M  V30 21 1 6 22
M  V30 22 2 22 23
M  V30 23 1 23 3
M  V30 24 1 21 13
M  V30 25 1 20 16
M  V30 26 1 1 24
M  V30 27 1 1 25
M  V30 28 1 1 26
M  V30 29 1 4 27
M  V30 30 1 5 28
M  V30 31 1 7 29
M  V30 32 1 7 30
M  V30 33 1 8 31
M  V30 34 1 8 32
M  V30 35 1 9 33
M  V30 36 1 12 34
M  V30 37 1 14 35
M  V30 38 1 15 36
M  V30 39 1 17 37
M  V30 40 1 19 38
M  V30 41 1 21 39
M  V30 42 1 22 40
M  V30 43 1 23 41
M  V30 END BOND
M  V30 END CTAB
M  END
>  <Dataset>  (518) 
ChEMBL_Kinases

>  <Ligand_Instance>  (518) 
nan

>  <PDB_ID>  (518) 
nan

>  <Standardized_SMILES>  (518) 
COc1ccc(CCNC(=O)Nc2ccc3[nH]ncc3c2)cc1

>  <Name>  (518) 
nan

>  <Pocket>  (518) 
nan

>  <ATP_Site>  (518) 
nan

>  <Peripheral>  (518) 
nan

>  <Num_H_Atoms_ProtBoundConf>  (518) 
nan

>  <Num_Resolved_Atoms>  (518) 
nan

>  <Num_Not_Resolved_Atoms>  (518) 
nan

$$$$
CHEMBL2023151
     RDKit          3D

  0  0  0  0  0  0  0  0  0  0999 V3000
M  V30 BEGIN CTAB
M  V30 COUNTS 38 40 0 0 0
M  V30 BEGIN ATOM
M  V30 1 O -0.806346 -1.729776 0.723256 0
M  V30 2 C -0.184995 -0.744429 1.235127 0
M  V30 3 N 1.223067 -0.983200 1.249737 0
M  V30 4 C 1.544274 -2.287338 0.673962 0
M  V30 5 C 3.019859 -2.576704 0.671096 0
M  V30 6 O 3.184162 -3.838120 0.101130 0
M  V30 7 C 3.794760 -1.621357 -0.170111 0
M  V30 8 C 4.641891 -0.616911 0.277207 0
M  V30 9 C 5.273788 0.169362 -0.656202 0
M  V30 10 C 5.122476 0.027047 -2.005556 0
M  V30 11 C 4.283790 -0.967216 -2.454302 0
M  V30 12 C 3.628615 -1.780728 -1.545466 0
M  V30 13 N -0.767052 0.440957 1.732642 0
M  V30 14 C -2.193525 0.662628 1.708470 0
M  V30 15 C -2.702672 1.279734 0.570581 0
M  V30 16 C -4.067572 1.537894 0.450824 0
M  V30 17 C -4.923601 1.167512 1.493042 0
M  V30 18 N -6.262628 1.260554 1.711870 0
M  V30 19 N -6.535934 0.736979 2.895423 0
M  V30 20 C -5.416368 0.286579 3.494591 0
M  V30 21 C -4.382495 0.557166 2.606853 0
M  V30 22 C -3.030268 0.289493 2.750501 0
M  V30 23 H 1.866571 -0.239727 1.651513 0
M  V30 24 H 1.141136 -2.363223 -0.345024 0
M  V30 25 H 1.069140 -3.033208 1.313914 0
M  V30 26 H 3.437649 -2.555208 1.686522 0
M  V30 27 H 3.647509 -4.428572 0.717645 0
M  V30 28 H 4.729027 -0.543665 1.352355 0
M  V30 29 H 5.914693 0.925968 -0.204191 0
M  V30 30 H 5.665121 0.697672 -2.650120 0
M  V30 31 H 4.140568 -1.108022 -3.522417 0
M  V30 32 H 2.985009 -2.541319 -1.972258 0
M  V30 33 H -0.124404 1.177926 2.131312 0
M  V30 34 H -2.062392 1.575560 -0.248406 0
M  V30 35 H -4.506218 2.020189 -0.425894 0
M  V30 36 H -6.916801 1.692489 1.007527 0
M  V30 37 H -5.351671 -0.187059 4.468799 0
M  V30 38 H -2.603443 -0.181061 3.606228 0
M  V30 END ATOM
M  V30 BEGIN BOND
M  V30 1 2 1 2
M  V30 2 1 2 3
M  V30 3 1 3 4
M  V30 4 1 4 5
M  V30 5 1 5 6
M  V30 6 1 5 7
M  V30 7 2 7 8
M  V30 8 1 8 9
M  V30 9 2 9 10
M  V30 10 1 10 11
M  V30 11 2 11 12
M  V30 12 1 2 13
M  V30 13 1 13 14
M  V30 14 2 14 15
M  V30 15 1 15 16
M  V30 16 2 16 17
M  V30 17 1 17 18
M  V30 18 1 18 19
M  V30 19 2 19 20
M  V30 20 1 20 21
M  V30 21 2 21 22
M  V30 22 1 12 7
M  V30 23 1 22 14
M  V30 24 1 21 17
M  V30 25 1 3 23
M  V30 26 1 4 24
M  V30 27 1 4 25
M  V30 28 1 5 26
M  V30 29 1 6 27
M  V30 30 1 8 28
M  V30 31 1 9 29
M  V30 32 1 10 30
M  V30 33 1 11 31
M  V30 34 1 12 32
M  V30 35 1 13 33
M  V30 36 1 15 34
M  V30 37 1 16 35
M  V30 38 1 18 36
M  V30 39 1 20 37
M  V30 40 1 22 38
M  V30 END BOND
M  V30 END CTAB
M  END
>  <Dataset>  (519) 
ChEMBL_Kinases

>  <Ligand_Instance>  (519) 
nan

>  <PDB_ID>  (519) 
nan

>  <Standardized_SMILES>  (519) 
O=C(NCC(O)c1ccccc1)Nc1ccc2[nH]ncc2c1

>  <Name>  (519) 
nan

>  <Pocket>  (519) 
nan

>  <ATP_Site>  (519) 
nan

>  <Peripheral>  (519) 
nan

>  <Num_H_Atoms_ProtBoundConf>  (519) 
nan

>  <Num_Resolved_Atoms>  (519) 
nan

>  <Num_Not_Resolved_Atoms>  (519) 
nan

$$$$
CHEMBL2023150
     RDKit          3D

  0  0  0  0  0  0  0  0  0  0999 V3000
M  V30 BEGIN CTAB
M  V30 COUNTS 41 43 0 0 0
M  V30 BEGIN ATOM
M  V30 1 O -0.432778 -0.857777 -0.265954 0
M  V30 2 C 0.513026 -0.142988 0.174184 0
M  V30 3 N 1.778671 -0.798149 0.173286 0
M  V30 4 C 2.047571 -2.128998 -0.263060 0
M  V30 5 C 2.021517 -3.300945 0.473189 0
M  V30 6 C 2.318096 -4.492715 -0.155292 0
M  V30 7 C 2.640446 -4.566538 -1.490008 0
M  V30 8 N 2.958434 -5.586458 -2.301442 0
M  V30 9 N 3.192671 -5.140793 -3.537679 0
M  V30 10 C 3.018247 -3.795821 -3.511629 0
M  V30 11 C 2.669150 -3.397541 -2.235971 0
M  V30 12 C 2.375171 -2.211920 -1.615293 0
M  V30 13 N 0.361836 1.170951 0.626553 0
M  V30 14 C -0.928218 1.785143 0.607864 0 CFG=2
M  V30 15 C -0.975431 2.982634 -0.349140 0
M  V30 16 O -2.281741 3.477636 -0.264747 0
M  V30 17 C -1.247773 2.355239 1.947284 0
M  V30 18 C -1.287019 1.432035 3.074991 0
M  V30 19 C -2.480381 0.794249 3.420713 0
M  V30 20 C -2.502281 -0.074057 4.486952 0
M  V30 21 C -1.380227 -0.363568 5.262098 0
M  V30 22 C -0.197188 0.261094 4.928776 0
M  V30 23 C -0.180156 1.118275 3.874497 0
M  V30 24 H 2.639043 -0.288589 0.522195 0
M  V30 25 H 1.760312 -3.153706 1.508085 0
M  V30 26 H 2.280423 -5.379451 0.478335 0
M  V30 27 H 3.005996 -6.579275 -1.974547 0
M  V30 28 H 3.136046 -3.130279 -4.368819 0
M  V30 29 H 2.421724 -1.351123 -2.272935 0
M  V30 30 H 1.163979 1.731241 0.983017 0
M  V30 31 H -1.654672 1.079088 0.212328 0
M  V30 32 H -0.795001 2.716281 -1.387398 0
M  V30 33 H -0.336455 3.799605 0.042422 0
M  V30 34 H -2.588395 3.823170 -1.153925 0
M  V30 35 H -0.431463 3.100401 2.180665 0
M  V30 36 H -2.175875 2.962260 1.960144 0
M  V30 37 H -3.377217 0.974308 2.864677 0
M  V30 38 H -3.434887 -0.580849 4.767484 0
M  V30 39 H -1.478157 -1.054717 6.080881 0
M  V30 40 H 0.698289 0.064457 5.504805 0
M  V30 41 H 0.717502 1.652140 3.547494 0
M  V30 END ATOM
M  V30 BEGIN BOND
M  V30 1 2 1 2
M  V30 2 1 2 3
M  V30 3 1 3 4
M  V30 4 2 4 5
M  V30 5 1 5 6
M  V30 6 2 6 7
M  V30 7 1 7 8
M  V30 8 1 8 9
M  V30 9 2 9 10
M  V30 10 1 10 11
M  V30 11 2 11 12
M  V30 12 1 2 13
M  V30 13 1 13 14
M  V30 14 1 14 15
M  V30 15 1 15 16
M  V30 16 1 14 17
M  V30 17 1 17 18
M  V30 18 2 18 19
M  V30 19 1 19 20
M  V30 20 2 20 21
M  V30 21 1 21 22
M  V30 22 2 22 23
M  V30 23 1 12 4
M  V30 24 1 23 18
M  V30 25 1 11 7
M  V30 26 1 3 24
M  V30 27 1 5 25
M  V30 28 1 6 26
M  V30 29 1 8 27
M  V30 30 1 10 28
M  V30 31 1 12 29
M  V30 32 1 13 30
M  V30 33 1 14 31 CFG=3
M  V30 34 1 15 32
M  V30 35 1 15 33
M  V30 36 1 16 34
M  V30 37 1 17 35
M  V30 38 1 17 36
M  V30 39 1 19 37
M  V30 40 1 20 38
M  V30 41 1 21 39
M  V30 42 1 22 40
M  V30 43 1 23 41
M  V30 END BOND
M  V30 END CTAB
M  END
>  <Dataset>  (520) 
ChEMBL_Kinases

>  <Ligand_Instance>  (520) 
nan

>  <PDB_ID>  (520) 
nan

>  <Standardized_SMILES>  (520) 
O=C(Nc1ccc2[nH]ncc2c1)N[C@H](CO)Cc1ccccc1

>  <Name>  (520) 
nan

>  <Pocket>  (520) 
nan

>  <ATP_Site>  (520) 
nan

>  <Peripheral>  (520) 
nan

>  <Num_H_Atoms_ProtBoundConf>  (520) 
nan

>  <Num_Resolved_Atoms>  (520) 
nan

>  <Num_Not_Resolved_Atoms>  (520) 
nan

$$$$
CHEMBL2023147
     RDKit          3D

  0  0  0  0  0  0  0  0  0  0999 V3000
M  V30 BEGIN CTAB
M  V30 COUNTS 27 28 0 0 0
M  V30 BEGIN ATOM
M  V30 1 C -1.587872 -0.618818 4.150854 0
M  V30 2 N -0.692076 -1.418710 3.341686 0
M  V30 3 C -0.255257 -2.706562 3.834463 0
M  V30 4 C -0.282879 -0.895809 2.093968 0
M  V30 5 O -0.721094 0.237852 1.755952 0
M  V30 6 N 0.585267 -1.550274 1.190443 0
M  V30 7 C 0.796285 -0.741077 0.013643 0
M  V30 8 C 1.887244 0.125872 0.133057 0
M  V30 9 C 2.183580 0.958209 -0.950950 0
M  V30 10 C 1.400521 0.894046 -2.080649 0
M  V30 11 N 1.418253 1.543574 -3.267373 0
M  V30 12 N 0.424425 1.115763 -4.053230 0
M  V30 13 C -0.295564 0.165708 -3.425123 0
M  V30 14 C 0.325420 0.036898 -2.193079 0
M  V30 15 C 0.023244 -0.789740 -1.129053 0
M  V30 16 H -1.476599 -0.846169 5.239170 0
M  V30 17 H -1.322376 0.442419 3.986201 0
M  V30 18 H -2.667524 -0.778501 3.892808 0
M  V30 19 H 0.811287 -2.893343 3.587871 0
M  V30 20 H -0.452778 -2.783105 4.916173 0
M  V30 21 H -0.943785 -3.455174 3.357299 0
M  V30 22 H 0.951367 -2.503812 1.479061 0
M  V30 23 H 2.529129 0.222624 0.976480 0
M  V30 24 H 3.021435 1.673411 -0.951620 0
M  V30 25 H 2.142451 2.277583 -3.484624 0
M  V30 26 H -1.160859 -0.368681 -3.806514 0
M  V30 27 H -0.795583 -1.488547 -1.128677 0
M  V30 END ATOM
M  V30 BEGIN BOND
M  V30 1 1 1 2
M  V30 2 1 2 3
M  V30 3 1 2 4
M  V30 4 2 4 5
M  V30 5 1 4 6
M  V30 6 1 6 7
M  V30 7 2 7 8
M  V30 8 1 8 9
M  V30 9 2 9 10
M  V30 10 1 10 11
M  V30 11 1 11 12
M  V30 12 2 12 13
M  V30 13 1 13 14
M  V30 14 2 14 15
M  V30 15 1 15 7
M  V30 16 1 14 10
M  V30 17 1 1 16
M  V30 18 1 1 17
M  V30 19 1 1 18
M  V30 20 1 3 19
M  V30 21 1 3 20
M  V30 22 1 3 21
M  V30 23 1 6 22
M  V30 24 1 8 23
M  V30 25 1 9 24
M  V30 26 1 11 25
M  V30 27 1 13 26
M  V30 28 1 15 27
M  V30 END BOND
M  V30 END CTAB
M  END
>  <Dataset>  (521) 
ChEMBL_Kinases

>  <Ligand_Instance>  (521) 
nan

>  <PDB_ID>  (521) 
nan

>  <Standardized_SMILES>  (521) 
CN(C)C(=O)Nc1ccc2[nH]ncc2c1

>  <Name>  (521) 
nan

>  <Pocket>  (521) 
nan

>  <ATP_Site>  (521) 
nan

>  <Peripheral>  (521) 
nan

>  <Num_H_Atoms_ProtBoundConf>  (521) 
nan

>  <Num_Resolved_Atoms>  (521) 
nan

>  <Num_Not_Resolved_Atoms>  (521) 
nan

$$$$
CHEMBL2022713
     RDKit          3D

  0  0  0  0  0  0  0  0  0  0999 V3000
M  V30 BEGIN CTAB
M  V30 COUNTS 69 74 0 0 0
M  V30 BEGIN ATOM
M  V30 1 C 2.146083 -4.699864 5.535397 0
M  V30 2 C 1.402973 -4.370682 4.300157 0
M  V30 3 C 0.735441 -3.187955 4.099908 0
M  V30 4 N 0.048053 -2.838504 3.003742 0
M  V30 5 C -0.637398 -1.736144 2.683846 0
M  V30 6 C -0.888908 -0.510260 3.408005 0
M  V30 7 C -0.583979 0.044787 4.620978 0
M  V30 8 N -1.123085 1.273916 4.740402 0
M  V30 9 N -1.790710 1.574240 3.636896 0
M  V30 10 C -2.495856 2.818744 3.419798 0
M  V30 11 C -1.510200 3.741670 2.797176 0
M  V30 12 O -0.661693 2.811220 2.858280 0
M  V30 13 N -1.541641 5.071859 2.346479 0
M  V30 14 C -0.265540 5.440447 1.826536 0
M  V30 15 C 0.682600 5.988119 2.636167 0
M  V30 16 C 1.873460 6.290440 1.969396 0
M  V30 17 C 2.063103 6.054727 0.623668 0
M  V30 18 N 1.066240 5.509808 -0.092636 0
M  V30 19 C -0.120753 5.182854 0.460117 0
M  V30 20 F -1.105565 4.634829 -0.290293 0
M  V30 21 C -1.652132 0.509577 2.839337 0
M  V30 22 C -1.083431 -2.053759 1.415180 0
M  V30 23 N -0.672028 -3.264231 1.044613 0
M  V30 24 C 0.043231 -3.770660 2.038207 0
M  V30 25 C 0.685221 -4.982051 2.154881 0
M  V30 26 N 0.622669 -5.903324 1.076955 0
M  V30 27 C -0.088067 -5.577387 -0.101552 0
M  V30 28 C 0.487648 -4.923900 -1.229626 0
M  V30 29 C -0.373808 -4.711783 -2.243552 0
M  V30 30 C 0.012339 -4.036687 -3.534855 0
M  V30 31 N -0.215685 -2.630491 -3.377301 0
M  V30 32 C -1.591469 -2.392202 -3.105521 0
M  V30 33 C -2.106779 -1.072065 -3.643085 0
M  V30 34 C -1.007629 -0.067947 -3.511760 0
M  V30 35 C 0.110725 -0.446266 -4.456687 0
M  V30 36 C 1.356439 0.324478 -4.087856 0
M  V30 37 C 0.343383 -1.932807 -4.496301 0
M  V30 38 N -1.768004 -5.112407 -2.195227 0
M  V30 39 S -1.776260 -5.856442 -0.510995 0
M  V30 40 N 1.362817 -5.280685 3.282577 0
M  V30 41 H 1.598006 -5.458895 6.148707 0
M  V30 42 H 2.385071 -3.797986 6.115216 0
M  V30 43 H 3.130961 -5.168297 5.293331 0
M  V30 44 H 0.795806 -2.508677 4.923503 0
M  V30 45 H 0.006742 -0.447670 5.364605 0
M  V30 46 H -2.930003 3.225110 4.354038 0
M  V30 47 H -3.358485 2.673016 2.734798 0
M  V30 48 H -2.506278 5.425418 2.520765 0
M  V30 49 H 0.538192 6.171313 3.676979 0
M  V30 50 H 2.702937 6.731749 2.512211 0
M  V30 51 H 2.958960 6.273948 0.086653 0
M  V30 52 H -2.134263 0.545074 1.856807 0
M  V30 53 H -1.700328 -1.442506 0.737507 0
M  V30 54 H 1.108045 -6.821597 1.168683 0
M  V30 55 H 1.516964 -4.632334 -1.255935 0
M  V30 56 H -0.475287 -4.515414 -4.381758 0
M  V30 57 H 1.120231 -4.182466 -3.709589 0
M  V30 58 H -2.268426 -3.188262 -3.492204 0
M  V30 59 H -1.708470 -2.361945 -2.003340 0
M  V30 60 H -2.479852 -1.173951 -4.683456 0
M  V30 61 H -2.945348 -0.761820 -2.986226 0
M  V30 62 H -1.340151 0.966431 -3.639243 0
M  V30 63 H -0.591774 -0.170269 -2.489105 0
M  V30 64 H -0.204081 -0.131340 -5.472958 0
M  V30 65 H 1.542164 0.237602 -2.995349 0
M  V30 66 H 1.223567 1.372607 -4.404106 0
M  V30 67 H 2.190374 -0.108577 -4.695895 0
M  V30 68 H 1.444114 -2.081434 -4.458143 0
M  V30 69 H 0.007647 -2.387815 -5.463619 0
M  V30 END ATOM
M  V30 BEGIN BOND
M  V30 1 1 1 2
M  V30 2 2 2 3
M  V30 3 1 3 4
M  V30 4 1 4 5
M  V30 5 1 5 6
M  V30 6 1 6 7
M  V30 7 2 7 8
M  V30 8 1 8 9
M  V30 9 1 9 10
M  V30 10 1 10 11
M  V30 11 2 11 12
M  V30 12 1 11 13
M  V30 13 1 13 14
M  V30 14 2 14 15
M  V30 15 1 15 16
M  V30 16 2 16 17
M  V30 17 1 17 18
M  V30 18 2 18 19
M  V30 19 1 19 20
M  V30 20 1 9 21
M  V30 21 2 5 22
M  V30 22 1 22 23
M  V30 23 2 23 24
M  V30 24 1 24 25
M  V30 25 1 25 26
M  V30 26 1 26 27
M  V30 27 2 27 28
M  V30 28 1 28 29
M  V30 29 1 29 30
M  V30 30 1 30 31
M  V30 31 1 31 32
M  V30 32 1 32 33
M  V30 33 1 33 34
M  V30 34 1 34 35
M  V30 35 1 35 36
M  V30 36 1 35 37
M  V30 37 2 29 38
M  V30 38 1 38 39
M  V30 39 2 25 40
M  V30 40 1 40 2
M  V30 41 1 24 4
M  V30 42 1 39 27
M  V30 43 2 21 6
M  V30 44 1 37 31
M  V30 45 1 19 14
M  V30 46 1 1 41
M  V30 47 1 1 42
M  V30 48 1 1 43
M  V30 49 1 3 44
M  V30 50 1 7 45
M  V30 51 1 10 46
M  V30 52 1 10 47
M  V30 53 1 13 48
M  V30 54 1 15 49
M  V30 55 1 16 50
M  V30 56 1 17 51
M  V30 57 1 21 52
M  V30 58 1 22 53
M  V30 59 1 26 54
M  V30 60 1 28 55
M  V30 61 1 30 56
M  V30 62 1 30 57
M  V30 63 1 32 58
M  V30 64 1 32 59
M  V30 65 1 33 60
M  V30 66 1 33 61
M  V30 67 1 34 62
M  V30 68 1 34 63
M  V30 69 1 35 64
M  V30 70 1 36 65
M  V30 71 1 36 66
M  V30 72 1 36 67
M  V30 73 1 37 68
M  V30 74 1 37 69
M  V30 END BOND
M  V30 END CTAB
M  END
>  <Dataset>  (522) 
ChEMBL_Kinases

>  <Ligand_Instance>  (522) 
nan

>  <PDB_ID>  (522) 
nan

>  <Standardized_SMILES>  (522) 
Cc1cn2c(-c3cnn(CC(=O)Nc4cccnc4F)c3)cnc2c(Nc2cc(CN3CCCC(C)C3)ns2)n1

>  <Name>  (522) 
nan

>  <Pocket>  (522) 
nan

>  <ATP_Site>  (522) 
nan

>  <Peripheral>  (522) 
nan

>  <Num_H_Atoms_ProtBoundConf>  (522) 
nan

>  <Num_Resolved_Atoms>  (522) 
nan

>  <Num_Not_Resolved_Atoms>  (522) 
nan

$$$$
CHEMBL2024654
     RDKit          3D

  0  0  0  0  0  0  0  0  0  0999 V3000
M  V30 BEGIN CTAB
M  V30 COUNTS 148 150 0 0 0
M  V30 BEGIN ATOM
M  V30 1 C 0.355619 -2.502892 -0.358599 0
M  V30 2 C 1.237083 -2.444259 -1.325316 0
M  V30 3 N 0.322024 -3.189243 -2.158603 0
M  V30 4 N 2.539587 -1.857400 -1.419575 0
M  V30 5 C 2.895687 -0.489246 -1.616693 0
M  V30 6 C 4.327214 -0.138043 -1.787931 0
M  V30 7 C 5.288594 -0.433140 -0.714989 0
M  V30 8 C 5.512615 -1.844742 -0.325772 0 CFG=1
M  V30 9 N 6.060599 -2.746505 -1.310805 0
M  V30 10 C 5.403244 -3.123522 -2.460252 0
M  V30 11 O 4.467749 -3.073590 -3.224260 0
M  V30 12 C 5.461942 -3.980011 -3.634927 0 CFG=1
M  V30 13 C 5.142908 -5.409130 -3.060524 0
M  V30 14 C 5.142682 -6.445964 -4.113393 0
M  V30 15 C 4.863909 -7.805356 -3.510769 0
M  V30 16 N 3.611813 -7.933406 -2.829931 0
M  V30 17 C 3.269838 -7.342034 -1.610176 0
M  V30 18 N 4.177447 -7.439663 -0.684335 0
M  V30 19 N 2.044463 -6.693084 -1.370147 0
M  V30 20 N 4.527824 -3.635260 -4.645839 0
M  V30 21 C 3.133633 -3.726481 -5.025701 0
M  V30 22 O 2.443733 -4.319708 -4.153986 0
M  V30 23 C 2.742240 -3.133330 -6.315730 0
M  V30 24 C 1.311619 -2.764960 -6.396543 0
M  V30 25 C 0.958850 -1.616127 -5.422129 0
M  V30 26 C -0.507101 -1.329916 -5.562299 0
M  V30 27 C -1.019676 -0.192999 -4.761260 0
M  V30 28 N -0.871818 -0.226082 -3.358645 0
M  V30 29 C -1.492343 0.969033 -2.815788 0
M  V30 30 O -1.981040 1.661792 -3.798063 0
M  V30 31 C -1.796928 1.718169 -1.574666 0 CFG=1
M  V30 32 C -3.267990 1.879855 -1.342334 0
M  V30 33 C -4.025360 2.627365 -2.356611 0
M  V30 34 C -3.659513 4.065122 -2.574606 0
M  V30 35 C -3.860083 4.950714 -1.375804 0
M  V30 36 N -3.083676 4.607001 -0.227740 0
M  V30 37 N -1.204382 1.153059 -0.366782 0
M  V30 38 C 0.000243 1.309865 0.419321 0
M  V30 39 O 0.805025 2.136207 -0.066786 0
M  V30 40 C 0.109526 0.522878 1.620300 0
M  V30 41 C -1.037531 0.727364 2.423949 0
M  V30 42 C -1.141529 0.029519 3.637303 0
M  V30 43 C -0.197790 -0.876901 4.139646 0
M  V30 44 C -0.767573 -1.325857 5.413729 0
M  V30 45 N -1.766019 -2.343067 5.189914 0
M  V30 46 C -2.712851 -3.351858 4.978067 0
M  V30 47 O -2.026187 -4.421286 5.172128 0
M  V30 48 C -4.185618 -3.369411 4.614586 0
M  V30 49 N -4.651048 -2.030597 4.402011 0
M  V30 50 C -4.757790 -1.241249 5.583455 0
M  V30 51 C -4.738442 0.203103 5.189466 0
M  V30 52 O -4.675027 0.053045 3.907330 0
M  V30 53 N -4.744039 1.581387 5.514702 0
M  V30 54 C -4.632643 2.273120 4.267823 0
M  V30 55 C -4.486620 3.785588 4.462200 0
M  V30 56 N -3.329268 4.022724 5.248773 0
M  V30 57 S -2.908293 5.597242 5.593782 0
M  V30 58 O -1.804397 5.707867 6.619463 0
M  V30 59 O -4.104712 6.300886 6.217248 0
M  V30 60 C -2.526941 6.522260 4.154893 0
M  V30 61 C -3.195374 7.672874 3.708447 0
M  V30 62 C -2.789806 8.314574 2.564962 0
M  V30 63 C -1.718528 7.845425 1.825654 0
M  V30 64 C -1.034746 6.719622 2.226120 0
M  V30 65 C 0.027598 6.287377 1.466068 0
M  V30 66 N 0.715015 5.193697 1.840755 0
M  V30 67 C 0.365783 4.513656 2.965697 0
M  V30 68 C -0.707638 4.984789 3.696938 0
M  V30 69 C -1.463082 6.101620 3.373775 0
M  V30 70 C 0.875452 -1.025090 3.318447 0
M  V30 71 C 1.019166 -0.363563 2.131917 0
M  V30 72 C 6.148493 -2.031781 0.980255 0
M  V30 73 N 5.510594 -1.102327 1.841384 0
M  V30 74 O 7.062006 -2.814208 1.348307 0
M  V30 75 H -0.194874 -2.429144 0.538719 0
M  V30 76 H -0.206987 -2.437675 0.535760 0
M  V30 77 H 0.159849 -4.211666 -2.283106 0
M  V30 78 H -0.411136 -2.938924 -2.848191 0
M  V30 79 H 2.665298 -2.884311 -1.278035 0
M  V30 80 H 2.347514 -0.146690 -2.558718 0
M  V30 81 H 2.510758 0.156075 -0.767230 0
M  V30 82 H 4.692324 -0.548338 -2.752130 0
M  V30 83 H 4.353569 1.027889 -1.943459 0
M  V30 84 H 6.296429 -0.013453 -1.033545 0
M  V30 85 H 5.085981 0.134184 0.233331 0
M  V30 86 H 4.420795 -2.223575 -0.157570 0
M  V30 87 H 6.980410 -3.264794 -1.361383 0
M  V30 88 H 6.466260 -4.132215 -4.012710 0
M  V30 89 H 4.221357 -5.325681 -2.457451 0
M  V30 90 H 5.984265 -5.587567 -2.364663 0
M  V30 91 H 4.475934 -6.231698 -4.973743 0
M  V30 92 H 6.199545 -6.483647 -4.524224 0
M  V30 93 H 5.029490 -8.628761 -4.239166 0
M  V30 94 H 5.664473 -7.965584 -2.739992 0
M  V30 95 H 2.860801 -8.535096 -3.296312 0
M  V30 96 H 4.036776 -7.033171 0.263224 0
M  V30 97 H 1.029920 -6.564703 -1.263950 0
M  V30 98 H 2.008508 -5.655058 -1.130812 0
M  V30 99 H 5.097241 -3.102002 -5.388797 0
M  V30 100 H 3.038181 -3.775816 -7.179634 0
M  V30 101 H 3.358823 -2.196408 -6.463534 0
M  V30 102 H 1.118010 -2.310059 -7.408736 0
M  V30 103 H 0.636601 -3.621538 -6.225933 0
M  V30 104 H 1.293034 -1.915726 -4.427301 0
M  V30 105 H 1.517563 -0.723419 -5.827449 0
M  V30 106 H -0.684110 -1.083151 -6.642697 0
M  V30 107 H -1.127091 -2.251171 -5.389803 0
M  V30 108 H -2.124841 -0.119034 -5.010782 0
M  V30 109 H -0.566358 0.745159 -5.182636 0
M  V30 110 H -0.573079 -0.597024 -2.416716 0
M  V30 111 H -1.328635 2.719580 -1.699761 0
M  V30 112 H -3.392994 2.311631 -0.336601 0
M  V30 113 H -3.758849 0.849854 -1.248403 0
M  V30 114 H -5.116650 2.659965 -2.031163 0
M  V30 115 H -4.105074 2.143471 -3.356185 0
M  V30 116 H -4.296160 4.520521 -3.399695 0
M  V30 117 H -2.620014 4.138891 -2.955208 0
M  V30 118 H -3.594276 5.985840 -1.723988 0
M  V30 119 H -4.960511 5.014332 -1.154520 0
M  V30 120 H -3.665271 4.459232 0.643367 0
M  V30 121 H -2.406499 5.390575 0.017837 0
M  V30 122 H -1.870962 0.409386 0.030311 0
M  V30 123 H -1.845800 1.427627 2.110579 0
M  V30 124 H -2.071252 0.315252 4.151573 0
M  V30 125 H 0.063456 -1.866541 6.000177 0
M  V30 126 H -1.076431 -0.521792 6.069730 0
M  V30 127 H -2.424619 -1.526566 4.938868 0
M  V30 128 H -4.736971 -3.868968 5.438092 0
M  V30 129 H -4.263049 -3.980427 3.680074 0
M  V30 130 H -4.009280 -1.597544 3.713189 0
M  V30 131 H -4.132933 -1.491440 6.433625 0
M  V30 132 H -5.831430 -1.420491 5.957350 0
M  V30 133 H -4.829346 1.423261 6.560229 0
M  V30 134 H -5.508628 2.045964 3.637695 0
M  V30 135 H -3.722103 1.976212 3.682419 0
M  V30 136 H -5.439277 4.171079 4.892407 0
M  V30 137 H -4.370255 4.219883 3.456567 0
M  V30 138 H -2.760665 3.242341 5.520642 0
M  V30 139 H -4.018719 7.975870 4.332240 0
M  V30 140 H -3.323055 9.186416 2.265680 0
M  V30 141 H -1.406332 8.372188 0.917105 0
M  V30 142 H 0.359060 6.771635 0.565649 0
M  V30 143 H 0.947243 3.647441 3.221933 0
M  V30 144 H -0.912048 4.392966 4.558069 0
M  V30 145 H 1.553771 -1.721174 3.766219 0
M  V30 146 H 1.859796 -0.500892 1.519271 0
M  V30 147 H 4.528071 -0.983927 2.183146 0
M  V30 148 H 6.122636 -0.361774 2.235265 0
M  V30 END ATOM
M  V30 BEGIN BOND
M  V30 1 2 1 2
M  V30 2 1 2 3
M  V30 3 1 2 4
M  V30 4 1 4 5
M  V30 5 1 5 6
M  V30 6 1 6 7
M  V30 7 1 7 8
M  V30 8 1 8 9
M  V30 9 1 9 10
M  V30 10 2 10 11
M  V30 11 1 10 12
M  V30 12 1 12 13
M  V30 13 1 13 14
M  V30 14 1 14 15
M  V30 15 1 15 16
M  V30 16 1 16 17
M  V30 17 2 17 18 CFG=2
M  V30 18 1 17 19
M  V30 19 1 12 20
M  V30 20 1 20 21
M  V30 21 2 21 22
M  V30 22 1 21 23
M  V30 23 1 23 24
M  V30 24 1 24 25
M  V30 25 1 25 26
M  V30 26 1 26 27
M  V30 27 1 27 28
M  V30 28 1 28 29
M  V30 29 2 29 30
M  V30 30 1 29 31
M  V30 31 1 31 32
M  V30 32 1 32 33
M  V30 33 1 33 34
M  V30 34 1 34 35
M  V30 35 1 35 36
M  V30 36 1 31 37
M  V30 37 1 37 38
M  V30 38 2 38 39
M  V30 39 1 38 40
M  V30 40 2 40 41
M  V30 41 1 41 42
M  V30 42 2 42 43
M  V30 43 1 43 44
M  V30 44 1 44 45
M  V30 45 1 45 46
M  V30 46 2 46 47
M  V30 47 1 46 48
M  V30 48 1 48 49
M  V30 49 1 49 50
M  V30 50 1 50 51
M  V30 51 2 51 52
M  V30 52 1 51 53
M  V30 53 1 53 54
M  V30 54 1 54 55
M  V30 55 1 55 56
M  V30 56 1 56 57
M  V30 57 2 57 58
M  V30 58 2 57 59
M  V30 59 1 57 60
M  V30 60 2 60 61
M  V30 61 1 61 62
M  V30 62 2 62 63
M  V30 63 1 63 64
M  V30 64 2 64 65
M  V30 65 1 65 66
M  V30 66 2 66 67
M  V30 67 1 67 68
M  V30 68 2 68 69
M  V30 69 1 43 70
M  V30 70 2 70 71
M  V30 71 1 8 72
M  V30 72 1 72 73
M  V30 73 2 72 74
M  V30 74 1 71 40
M  V30 75 1 69 60
M  V30 76 1 69 64
M  V30 77 1 1 75
M  V30 78 1 1 76
M  V30 79 1 3 77
M  V30 80 1 3 78
M  V30 81 1 4 79
M  V30 82 1 5 80
M  V30 83 1 5 81
M  V30 84 1 6 82
M  V30 85 1 6 83
M  V30 86 1 7 84
M  V30 87 1 7 85
M  V30 88 1 8 86 CFG=1
M  V30 89 1 9 87
M  V30 90 1 12 88 CFG=3
M  V30 91 1 13 89
M  V30 92 1 13 90
M  V30 93 1 14 91
M  V30 94 1 14 92
M  V30 95 1 15 93
M  V30 96 1 15 94
M  V30 97 1 16 95
M  V30 98 1 18 96
M  V30 99 1 19 97
M  V30 100 1 19 98
M  V30 101 1 20 99
M  V30 102 1 23 100
M  V30 103 1 23 101
M  V30 104 1 24 102
M  V30 105 1 24 103
M  V30 106 1 25 104
M  V30 107 1 25 105
M  V30 108 1 26 106
M  V30 109 1 26 107
M  V30 110 1 27 108
M  V30 111 1 27 109
M  V30 112 1 28 110
M  V30 113 1 31 111 CFG=3
M  V30 114 1 32 112
M  V30 115 1 32 113
M  V30 116 1 33 114
M  V30 117 1 33 115
M  V30 118 1 34 116
M  V30 119 1 34 117
M  V30 120 1 35 118
M  V30 121 1 35 119
M  V30 122 1 36 120
M  V30 123 1 36 121
M  V30 124 1 37 122
M  V30 125 1 41 123
M  V30 126 1 42 124
M  V30 127 1 44 125
M  V30 128 1 44 126
M  V30 129 1 45 127
M  V30 130 1 48 128
M  V30 131 1 48 129
M  V30 132 1 49 130
M  V30 133 1 50 131
M  V30 134 1 50 132
M  V30 135 1 53 133
M  V30 136 1 54 134
M  V30 137 1 54 135
M  V30 138 1 55 136
M  V30 139 1 55 137
M  V30 140 1 56 138
M  V30 141 1 61 139
M  V30 142 1 62 140
M  V30 143 1 63 141
M  V30 144 1 65 142
M  V30 145 1 67 143
M  V30 146 1 68 144
M  V30 147 1 70 145
M  V30 148 1 71 146
M  V30 149 1 73 147
M  V30 150 1 73 148
M  V30 END BOND
M  V30 END CTAB
M  END
>  <Dataset>  (523) 
ChEMBL_Kinases

>  <Ligand_Instance>  (523) 
nan

>  <PDB_ID>  (523) 
nan

>  <Standardized_SMILES>  (523) 
C=C(N)NCCC[C@@H](NC(=O)[C@@H](CCCNC(=N)N)NC(=O)CCCCCNC(=O)[C@@H](CCCCN)NC(=O)c1ccc(CNC(=O)CNCC(=O)NCCNS(=O)(=O)c2cccc3cnccc23)cc1)C(N)=O

>  <Name>  (523) 
nan

>  <Pocket>  (523) 
nan

>  <ATP_Site>  (523) 
nan

>  <Peripheral>  (523) 
nan

>  <Num_H_Atoms_ProtBoundConf>  (523) 
nan

>  <Num_Resolved_Atoms>  (523) 
nan

>  <Num_Not_Resolved_Atoms>  (523) 
nan

$$$$
CHEMBL2022377
     RDKit          3D

  0  0  0  0  0  0  0  0  0  0999 V3000
M  V30 BEGIN CTAB
M  V30 COUNTS 69 74 0 0 0
M  V30 BEGIN ATOM
M  V30 1 C 4.583192 1.074528 3.798913 0
M  V30 2 C 3.222446 0.468264 3.810836 0
M  V30 3 C 2.066099 1.094667 3.461572 0
M  V30 4 N 0.860013 0.540541 3.474653 0
M  V30 5 C -0.354895 1.003020 3.169437 0
M  V30 6 C -0.810434 2.293427 2.702863 0
M  V30 7 C -0.253188 3.503482 2.396841 0
M  V30 8 N -1.192588 4.387427 1.990126 0
M  V30 9 N -2.381685 3.800689 2.013962 0
M  V30 10 C -3.728992 4.289594 1.673049 0
M  V30 11 C -3.935796 3.994783 0.233301 0
M  V30 12 O -4.269589 2.766435 0.101979 0
M  V30 13 N -3.809660 4.867117 -0.880427 0
M  V30 14 C -4.065315 4.370984 -2.209798 0
M  V30 15 C -3.914668 5.269395 -3.248053 0
M  V30 16 C -4.171338 4.783045 -4.536959 0
M  V30 17 C -4.546998 3.459502 -4.632627 0
M  V30 18 C -4.695431 2.568152 -3.594129 0
M  V30 19 N -4.434757 3.086977 -2.357344 0
M  V30 20 C -2.161547 2.551477 2.438074 0
M  V30 21 C -1.158193 -0.095945 3.407248 0
M  V30 22 N -0.432051 -1.136588 3.828501 0
M  V30 23 C 0.837230 -0.754940 3.876842 0
M  V30 24 C 1.955848 -1.469355 4.248940 0
M  V30 25 N 1.765876 -2.843675 4.647508 0
M  V30 26 C 1.887866 -3.911336 3.689287 0
M  V30 27 C 2.252573 -3.776186 2.369879 0
M  V30 28 C 2.275360 -4.954608 1.684458 0
M  V30 29 C 2.659020 -5.044220 0.248005 0
M  V30 30 N 1.549619 -4.843466 -0.654477 0
M  V30 31 C 0.496928 -5.800504 -0.482946 0
M  V30 32 C -0.342541 -5.947252 -1.743860 0
M  V30 33 C -0.273685 -4.692398 -2.596313 0
M  V30 34 C 1.144221 -4.519876 -3.052348 0
M  V30 35 C 1.442929 -3.048968 -3.269746 0
M  V30 36 C 2.089836 -5.056331 -1.999107 0
M  V30 37 N 1.946728 -6.184215 2.309010 0
M  V30 38 S 1.586016 -5.531174 4.015842 0
M  V30 39 N 3.164996 -0.836285 4.211294 0
M  V30 40 H 5.091494 0.740634 4.727005 0
M  V30 41 H 4.517169 2.186260 3.774848 0
M  V30 42 H 5.125086 0.662950 2.924981 0
M  V30 43 H 2.172915 2.099143 3.161114 0
M  V30 44 H 0.788425 3.734582 2.466984 0
M  V30 45 H -4.463394 3.812980 2.332338 0
M  V30 46 H -3.789998 5.379819 1.822866 0
M  V30 47 H -3.536921 5.820510 -0.637626 0
M  V30 48 H -3.618575 6.301407 -3.138466 0
M  V30 49 H -4.088946 5.390433 -5.441362 0
M  V30 50 H -4.753092 3.055805 -5.622154 0
M  V30 51 H -4.994593 1.540256 -3.735362 0
M  V30 52 H -2.987001 1.826284 2.554268 0
M  V30 53 H -2.244528 -0.173462 3.286844 0
M  V30 54 H 1.539683 -3.039797 5.640656 0
M  V30 55 H 2.492474 -2.820874 1.944265 0
M  V30 56 H 3.096251 -6.024582 -0.022128 0
M  V30 57 H 3.401737 -4.226735 0.016573 0
M  V30 58 H -0.142140 -5.626920 0.398689 0
M  V30 59 H 0.972266 -6.807766 -0.318880 0
M  V30 60 H -0.020518 -6.818572 -2.344281 0
M  V30 61 H -1.401710 -6.025903 -1.423425 0
M  V30 62 H -0.921461 -4.866524 -3.478002 0
M  V30 63 H -0.619673 -3.821856 -2.001152 0
M  V30 64 H 1.353878 -5.080532 -3.983941 0
M  V30 65 H 2.511812 -2.887371 -3.483997 0
M  V30 66 H 0.817685 -2.649815 -4.087089 0
M  V30 67 H 1.125765 -2.555952 -2.303319 0
M  V30 68 H 2.275000 -6.129459 -2.152753 0
M  V30 69 H 3.056302 -4.526903 -2.117458 0
M  V30 END ATOM
M  V30 BEGIN BOND
M  V30 1 1 1 2
M  V30 2 2 2 3
M  V30 3 1 3 4
M  V30 4 1 4 5
M  V30 5 1 5 6
M  V30 6 1 6 7
M  V30 7 2 7 8
M  V30 8 1 8 9
M  V30 9 1 9 10
M  V30 10 1 10 11
M  V30 11 2 11 12
M  V30 12 1 11 13
M  V30 13 1 13 14
M  V30 14 2 14 15
M  V30 15 1 15 16
M  V30 16 2 16 17
M  V30 17 1 17 18
M  V30 18 2 18 19
M  V30 19 1 9 20
M  V30 20 2 5 21
M  V30 21 1 21 22
M  V30 22 2 22 23
M  V30 23 1 23 24
M  V30 24 1 24 25
M  V30 25 1 25 26
M  V30 26 2 26 27
M  V30 27 1 27 28
M  V30 28 1 28 29
M  V30 29 1 29 30
M  V30 30 1 30 31
M  V30 31 1 31 32
M  V30 32 1 32 33
M  V30 33 1 33 34
M  V30 34 1 34 35
M  V30 35 1 34 36
M  V30 36 2 28 37
M  V30 37 1 37 38
M  V30 38 2 24 39
M  V30 39 1 39 2
M  V30 40 1 23 4
M  V30 41 1 38 26
M  V30 42 2 20 6
M  V30 43 1 36 30
M  V30 44 1 19 14
M  V30 45 1 1 40
M  V30 46 1 1 41
M  V30 47 1 1 42
M  V30 48 1 3 43
M  V30 49 1 7 44
M  V30 50 1 10 45
M  V30 51 1 10 46
M  V30 52 1 13 47
M  V30 53 1 15 48
M  V30 54 1 16 49
M  V30 55 1 17 50
M  V30 56 1 18 51
M  V30 57 1 20 52
M  V30 58 1 21 53
M  V30 59 1 25 54
M  V30 60 1 27 55
M  V30 61 1 29 56
M  V30 62 1 29 57
M  V30 63 1 31 58
M  V30 64 1 31 59
M  V30 65 1 32 60
M  V30 66 1 32 61
M  V30 67 1 33 62
M  V30 68 1 33 63
M  V30 69 1 34 64
M  V30 70 1 35 65
M  V30 71 1 35 66
M  V30 72 1 35 67
M  V30 73 1 36 68
M  V30 74 1 36 69
M  V30 END BOND
M  V30 END CTAB
M  END
>  <Dataset>  (524) 
ChEMBL_Kinases

>  <Ligand_Instance>  (524) 
nan

>  <PDB_ID>  (524) 
nan

>  <Standardized_SMILES>  (524) 
Cc1cn2c(-c3cnn(CC(=O)Nc4ccccn4)c3)cnc2c(Nc2cc(CN3CCCC(C)C3)ns2)n1

>  <Name>  (524) 
nan

>  <Pocket>  (524) 
nan

>  <ATP_Site>  (524) 
nan

>  <Peripheral>  (524) 
nan

>  <Num_H_Atoms_ProtBoundConf>  (524) 
nan

>  <Num_Resolved_Atoms>  (524) 
nan

>  <Num_Not_Resolved_Atoms>  (524) 
nan

$$$$
CHEMBL2022379
     RDKit          3D

  0  0  0  0  0  0  0  0  0  0999 V3000
M  V30 BEGIN CTAB
M  V30 COUNTS 69 74 0 0 0
M  V30 BEGIN ATOM
M  V30 1 C 4.507821 0.403194 4.922032 0
M  V30 2 C 3.597989 -0.334713 3.988559 0
M  V30 3 C 2.650168 0.376569 3.291347 0
M  V30 4 N 1.801704 -0.220956 2.442225 0
M  V30 5 C 0.820896 0.269019 1.682571 0
M  V30 6 C 0.292570 1.595024 1.469187 0
M  V30 7 C 0.574116 2.857115 1.939166 0
M  V30 8 N -0.272880 3.759068 1.397542 0
M  V30 9 N -1.111286 3.153331 0.583649 0
M  V30 10 C -2.175902 3.750376 -0.198919 0
M  V30 11 C -3.466499 3.802197 0.556248 0
M  V30 12 O -3.910068 4.805356 1.170639 0
M  V30 13 N -4.291296 2.621904 0.602769 0
M  V30 14 C -5.556849 2.455479 1.255427 0
M  V30 15 C -6.597026 2.751655 0.402253 0
M  V30 16 C -7.915679 2.658546 0.833033 0
M  V30 17 N -8.157782 2.274000 2.097524 0
M  V30 18 C -7.143403 1.987414 2.922447 0
M  V30 19 C -5.808965 2.062294 2.549162 0
M  V30 20 C -0.775418 1.876795 0.627788 0
M  V30 21 C 0.338972 -0.863550 1.059978 0
M  V30 22 N 1.020466 -1.948023 1.452437 0
M  V30 23 C 1.937226 -1.550510 2.317803 0
M  V30 24 C 2.855695 -2.330585 2.976893 0
M  V30 25 N 2.963698 -3.738180 2.803466 0
M  V30 26 C 2.055016 -4.326100 1.807019 0
M  V30 27 C 2.374236 -4.545454 0.522727 0
M  V30 28 C 1.387242 -5.098448 -0.239500 0
M  V30 29 C 1.512645 -5.448536 -1.703680 0
M  V30 30 N 1.123559 -4.356286 -2.513064 0
M  V30 31 C -0.178876 -3.926781 -2.274811 0
M  V30 32 C -0.614670 -2.754394 -3.139290 0
M  V30 33 C 0.415654 -1.674284 -2.875483 0
M  V30 34 C 1.728380 -2.141877 -3.393379 0
M  V30 35 C 2.799529 -1.130617 -2.986948 0
M  V30 36 C 2.113987 -3.544145 -3.039273 0
M  V30 37 N 0.129155 -5.402424 0.329345 0
M  V30 38 S 0.476563 -4.825310 2.068320 0
M  V30 39 N 3.702848 -1.686276 3.833711 0
M  V30 40 H 5.348337 0.885851 4.399208 0
M  V30 41 H 4.931837 -0.273115 5.670868 0
M  V30 42 H 3.941707 1.190066 5.477113 0
M  V30 43 H 2.596100 1.436032 3.436996 0
M  V30 44 H 1.344112 3.116790 2.628823 0
M  V30 45 H -1.915123 4.747946 -0.569041 0
M  V30 46 H -2.380561 3.117480 -1.105123 0
M  V30 47 H -3.982519 1.735151 0.115027 0
M  V30 48 H -6.549823 3.072208 -0.639869 0
M  V30 49 H -8.826696 2.855628 0.288937 0
M  V30 50 H -7.320549 1.677288 3.942341 0
M  V30 51 H -4.934123 1.857224 3.126722 0
M  V30 52 H -1.334241 1.145166 0.023712 0
M  V30 53 H -0.481872 -0.945878 0.336502 0
M  V30 54 H 3.641119 -4.263430 3.357678 0
M  V30 55 H 3.334799 -4.308405 0.099926 0
M  V30 56 H 0.946148 -6.385341 -1.912208 0
M  V30 57 H 2.602798 -5.731374 -1.874012 0
M  V30 58 H -0.974626 -4.677027 -2.365944 0
M  V30 59 H -0.242963 -3.568892 -1.205228 0
M  V30 60 H -0.553462 -3.071435 -4.205064 0
M  V30 61 H -1.634399 -2.476129 -2.855776 0
M  V30 62 H 0.054764 -0.745701 -3.358486 0
M  V30 63 H 0.464576 -1.584842 -1.764422 0
M  V30 64 H 1.684212 -2.081045 -4.517212 0
M  V30 65 H 3.795139 -1.579954 -2.997259 0
M  V30 66 H 2.541570 -0.822916 -1.932013 0
M  V30 67 H 2.739763 -0.205388 -3.608937 0
M  V30 68 H 2.599504 -4.069651 -3.923655 0
M  V30 69 H 2.969772 -3.463973 -2.306196 0
M  V30 END ATOM
M  V30 BEGIN BOND
M  V30 1 1 1 2
M  V30 2 2 2 3
M  V30 3 1 3 4
M  V30 4 1 4 5
M  V30 5 1 5 6
M  V30 6 1 6 7
M  V30 7 2 7 8
M  V30 8 1 8 9
M  V30 9 1 9 10
M  V30 10 1 10 11
M  V30 11 2 11 12
M  V30 12 1 11 13
M  V30 13 1 13 14
M  V30 14 2 14 15
M  V30 15 1 15 16
M  V30 16 2 16 17
M  V30 17 1 17 18
M  V30 18 2 18 19
M  V30 19 1 9 20
M  V30 20 2 5 21
M  V30 21 1 21 22
M  V30 22 2 22 23
M  V30 23 1 23 24
M  V30 24 1 24 25
M  V30 25 1 25 26
M  V30 26 2 26 27
M  V30 27 1 27 28
M  V30 28 1 28 29
M  V30 29 1 29 30
M  V30 30 1 30 31
M  V30 31 1 31 32
M  V30 32 1 32 33
M  V30 33 1 33 34
M  V30 34 1 34 35
M  V30 35 1 34 36
M  V30 36 2 28 37
M  V30 37 1 37 38
M  V30 38 2 24 39
M  V30 39 1 39 2
M  V30 40 1 23 4
M  V30 41 1 38 26
M  V30 42 2 20 6
M  V30 43 1 36 30
M  V30 44 1 19 14
M  V30 45 1 1 40
M  V30 46 1 1 41
M  V30 47 1 1 42
M  V30 48 1 3 43
M  V30 49 1 7 44
M  V30 50 1 10 45
M  V30 51 1 10 46
M  V30 52 1 13 47
M  V30 53 1 15 48
M  V30 54 1 16 49
M  V30 55 1 18 50
M  V30 56 1 19 51
M  V30 57 1 20 52
M  V30 58 1 21 53
M  V30 59 1 25 54
M  V30 60 1 27 55
M  V30 61 1 29 56
M  V30 62 1 29 57
M  V30 63 1 31 58
M  V30 64 1 31 59
M  V30 65 1 32 60
M  V30 66 1 32 61
M  V30 67 1 33 62
M  V30 68 1 33 63
M  V30 69 1 34 64
M  V30 70 1 35 65
M  V30 71 1 35 66
M  V30 72 1 35 67
M  V30 73 1 36 68
M  V30 74 1 36 69
M  V30 END BOND
M  V30 END CTAB
M  END
>  <Dataset>  (525) 
ChEMBL_Kinases

>  <Ligand_Instance>  (525) 
nan

>  <PDB_ID>  (525) 
nan

>  <Standardized_SMILES>  (525) 
Cc1cn2c(-c3cnn(CC(=O)Nc4ccncc4)c3)cnc2c(Nc2cc(CN3CCCC(C)C3)ns2)n1

>  <Name>  (525) 
nan

>  <Pocket>  (525) 
nan

>  <ATP_Site>  (525) 
nan

>  <Peripheral>  (525) 
nan

>  <Num_H_Atoms_ProtBoundConf>  (525) 
nan

>  <Num_Resolved_Atoms>  (525) 
nan

>  <Num_Not_Resolved_Atoms>  (525) 
nan

$$$$
CHEMBL2022412
     RDKit          3D

  0  0  0  0  0  0  0  0  0  0999 V3000
M  V30 BEGIN CTAB
M  V30 COUNTS 47 51 0 0 0
M  V30 BEGIN ATOM
M  V30 1 C -1.206172 -1.326162 4.023229 0
M  V30 2 C -0.155117 -2.038572 3.487878 0
M  V30 3 C 0.356171 -1.566220 2.285201 0
M  V30 4 C -0.168374 -0.446454 1.673036 0
M  V30 5 C 0.419592 0.000819 0.400321 0
M  V30 6 N 1.661680 0.452789 0.447594 0
M  V30 7 C 2.220807 0.842199 -0.563296 0
M  V30 8 N 3.393461 1.328359 -0.848958 0
M  V30 9 C 4.383375 1.510771 0.175185 0
M  V30 10 C 3.850015 1.737946 1.524932 0
M  V30 11 C 3.550115 0.798495 2.490603 0
M  V30 12 C 3.050677 1.150507 3.727553 0
M  V30 13 C 2.851211 2.511047 3.985278 0
M  V30 14 N 3.143326 3.445600 3.040908 0
M  V30 15 C 3.633897 3.070725 1.831548 0
M  V30 16 S 0.969830 0.632021 -1.970950 0
M  V30 17 N -0.274032 -0.044047 -0.777995 0
M  V30 18 C -1.568279 -0.493857 -0.944714 0
M  V30 19 C -2.725853 0.290730 -0.923048 0
M  V30 20 C -4.004758 -0.244911 -1.100886 0
M  V30 21 C -4.074799 -1.604968 -1.302082 0
M  V30 22 C -2.970415 -2.428317 -1.333515 0
M  V30 23 C -3.194712 -3.771668 -1.544459 0
M  V30 24 C -2.099708 -4.603166 -1.577802 0
M  V30 25 C -0.830922 -4.073495 -1.401615 0
M  V30 26 C -0.662348 -2.711513 -1.192381 0
M  V30 27 C -1.735341 -1.852391 -1.153332 0
M  V30 28 C -1.209685 0.258920 2.203922 0
M  V30 29 C -1.728609 -0.209347 3.411743 0
M  V30 30 H -1.714248 -1.559414 4.946638 0
M  V30 31 H 0.176279 -2.896351 4.047606 0
M  V30 32 H 1.181714 -2.140210 1.881311 0
M  V30 33 H 5.022618 0.579793 0.134340 0
M  V30 34 H 5.112537 2.321047 -0.106126 0
M  V30 35 H 3.738972 -0.232367 2.196756 0
M  V30 36 H 2.826433 0.388671 4.461118 0
M  V30 37 H 2.456999 2.734156 4.972221 0
M  V30 38 H 3.797327 3.977431 1.228858 0
M  V30 39 H -2.595227 1.346360 -0.760881 0
M  V30 40 H -4.877758 0.391922 -1.078058 0
M  V30 41 H -5.091900 -1.972892 -1.435174 0
M  V30 42 H -4.185506 -4.155830 -1.677804 0
M  V30 43 H -2.317688 -5.662644 -1.747409 0
M  V30 44 H -0.031790 -4.803445 -1.443657 0
M  V30 45 H 0.345365 -2.368053 -1.063570 0
M  V30 46 H -1.569903 1.114165 1.684292 0
M  V30 47 H -2.559170 0.377552 3.807238 0
M  V30 END ATOM
M  V30 BEGIN BOND
M  V30 1 2 1 2
M  V30 2 1 2 3
M  V30 3 2 3 4
M  V30 4 1 4 5
M  V30 5 2 5 6
M  V30 6 1 6 7
M  V30 7 2 7 8
M  V30 8 1 8 9
M  V30 9 1 9 10
M  V30 10 2 10 11
M  V30 11 1 11 12
M  V30 12 2 12 13
M  V30 13 1 13 14
M  V30 14 2 14 15
M  V30 15 1 7 16
M  V30 16 1 16 17
M  V30 17 1 17 18
M  V30 18 2 18 19
M  V30 19 1 19 20
M  V30 20 2 20 21
M  V30 21 1 21 22
M  V30 22 2 22 23
M  V30 23 1 23 24
M  V30 24 2 24 25
M  V30 25 1 25 26
M  V30 26 2 26 27
M  V30 27 1 4 28
M  V30 28 2 28 29
M  V30 29 1 29 1
M  V30 30 1 17 5
M  V30 31 1 27 18
M  V30 32 1 15 10
M  V30 33 1 27 22
M  V30 34 1 1 30
M  V30 35 1 2 31
M  V30 36 1 3 32
M  V30 37 1 9 33
M  V30 38 1 9 34
M  V30 39 1 11 35
M  V30 40 1 12 36
M  V30 41 1 13 37
M  V30 42 1 15 38
M  V30 43 1 19 39
M  V30 44 1 20 40
M  V30 45 1 21 41
M  V30 46 1 23 42
M  V30 47 1 24 43
M  V30 48 1 25 44
M  V30 49 1 26 45
M  V30 50 1 28 46
M  V30 51 1 29 47
M  V30 END BOND
M  V30 END CTAB
M  END
>  <Dataset>  (526) 
ChEMBL_Kinases

>  <Ligand_Instance>  (526) 
nan

>  <PDB_ID>  (526) 
nan

>  <Standardized_SMILES>  (526) 
c1ccc(-c2n/c(=N\Cc3cccnc3)sn2-c2cccc3ccccc23)cc1

>  <Name>  (526) 
nan

>  <Pocket>  (526) 
nan

>  <ATP_Site>  (526) 
nan

>  <Peripheral>  (526) 
nan

>  <Num_H_Atoms_ProtBoundConf>  (526) 
nan

>  <Num_Resolved_Atoms>  (526) 
nan

>  <Num_Not_Resolved_Atoms>  (526) 
nan

$$$$
CHEMBL2022413
     RDKit          3D

  0  0  0  0  0  0  0  0  0  0999 V3000
M  V30 BEGIN CTAB
M  V30 COUNTS 42 45 0 0 0
M  V30 BEGIN ATOM
M  V30 1 O 5.080562 -5.006993 3.209537 0
M  V30 2 C 5.252665 -3.722521 2.693682 0
M  V30 3 C 4.423150 -3.528773 1.438995 0
M  V30 4 N 3.031394 -3.729901 1.795062 0
M  V30 5 C 2.172495 -2.764848 1.597442 0
M  V30 6 N 2.201919 -1.637163 1.159427 0
M  V30 7 C 1.109179 -0.895649 1.094295 0
M  V30 8 C 1.272721 0.466428 0.539595 0
M  V30 9 C 1.663605 0.613027 -0.794934 0
M  V30 10 C 1.829010 1.860061 -1.356314 0
M  V30 11 C 1.596517 2.952127 -0.559227 0
M  V30 12 C 1.208852 2.856784 0.764455 0
M  V30 13 C 1.043892 1.599359 1.324280 0
M  V30 14 N -0.076579 -1.372772 1.514779 0
M  V30 15 C -1.297557 -0.674500 1.491914 0
M  V30 16 C -1.903645 -0.152367 2.617202 0
M  V30 17 C -3.098549 0.537715 2.638528 0
M  V30 18 C -3.751735 0.728537 1.443120 0
M  V30 19 C -3.210807 0.237239 0.274979 0
M  V30 20 C -3.861575 0.424664 -0.933446 0
M  V30 21 C -3.348717 -0.053833 -2.123165 0
M  V30 22 C -2.134239 -0.739009 -2.039880 0
M  V30 23 C -1.444532 -0.953336 -0.860737 0
M  V30 24 C -2.003694 -0.451989 0.304617 0
M  V30 25 S 0.365880 -3.075656 2.078631 0
M  V30 26 H 4.128140 -5.179501 3.448220 0
M  V30 27 H 6.340858 -3.628174 2.479086 0
M  V30 28 H 4.998539 -2.923752 3.418940 0
M  V30 29 H 4.696458 -4.240483 0.655590 0
M  V30 30 H 4.602738 -2.513974 1.053687 0
M  V30 31 H 1.836653 -0.294881 -1.388481 0
M  V30 32 H 2.135042 1.989522 -2.401093 0
M  V30 33 H 1.727361 3.932513 -1.003344 0
M  V30 34 H 1.026095 3.721080 1.391051 0
M  V30 35 H 0.743694 1.495257 2.349213 0
M  V30 36 H -1.392459 -0.300060 3.563480 0
M  V30 37 H -3.490353 0.909806 3.589820 0
M  V30 38 H -4.685913 1.267452 1.455983 0
M  V30 39 H -4.813565 0.974156 -0.918419 0
M  V30 40 H -3.848644 0.087211 -3.070487 0
M  V30 41 H -1.747787 -1.107111 -2.985199 0
M  V30 42 H -0.512177 -1.498239 -0.919171 0
M  V30 END ATOM
M  V30 BEGIN BOND
M  V30 1 1 1 2
M  V30 2 1 2 3
M  V30 3 1 3 4
M  V30 4 2 4 5
M  V30 5 1 5 6
M  V30 6 2 6 7
M  V30 7 1 7 8
M  V30 8 2 8 9
M  V30 9 1 9 10
M  V30 10 2 10 11
M  V30 11 1 11 12
M  V30 12 2 12 13
M  V30 13 1 7 14
M  V30 14 1 14 15
M  V30 15 2 15 16
M  V30 16 1 16 17
M  V30 17 2 17 18
M  V30 18 1 18 19
M  V30 19 2 19 20
M  V30 20 1 20 21
M  V30 21 2 21 22
M  V30 22 1 22 23
M  V30 23 2 23 24
M  V30 24 1 14 25
M  V30 25 1 25 5
M  V30 26 1 13 8
M  V30 27 1 24 15
M  V30 28 1 24 19
M  V30 29 1 1 26
M  V30 30 1 2 27
M  V30 31 1 2 28
M  V30 32 1 3 29
M  V30 33 1 3 30
M  V30 34 1 9 31
M  V30 35 1 10 32
M  V30 36 1 11 33
M  V30 37 1 12 34
M  V30 38 1 13 35
M  V30 39 1 16 36
M  V30 40 1 17 37
M  V30 41 1 18 38
M  V30 42 1 20 39
M  V30 43 1 21 40
M  V30 44 1 22 41
M  V30 45 1 23 42
M  V30 END BOND
M  V30 END CTAB
M  END
>  <Dataset>  (527) 
ChEMBL_Kinases

>  <Ligand_Instance>  (527) 
nan

>  <PDB_ID>  (527) 
nan

>  <Standardized_SMILES>  (527) 
OCC/N=c1\nc(-c2ccccc2)n(-c2cccc3ccccc23)s1

>  <Name>  (527) 
nan

>  <Pocket>  (527) 
nan

>  <ATP_Site>  (527) 
nan

>  <Peripheral>  (527) 
nan

>  <Num_H_Atoms_ProtBoundConf>  (527) 
nan

>  <Num_Resolved_Atoms>  (527) 
nan

>  <Num_Not_Resolved_Atoms>  (527) 
nan

$$$$
CHEMBL2022414
     RDKit          3D

  0  0  0  0  0  0  0  0  0  0999 V3000
M  V30 BEGIN CTAB
M  V30 COUNTS 47 51 0 0 0
M  V30 BEGIN ATOM
M  V30 1 C -1.512680 -4.656701 3.943406 0
M  V30 2 C -0.504759 -5.083217 3.079429 0
M  V30 3 C 0.144149 -4.175330 2.240650 0
M  V30 4 C -0.280934 -2.887312 2.340190 0
M  V30 5 N 0.287049 -1.792785 1.532234 0
M  V30 6 S 2.108837 -1.731076 1.969997 0
M  V30 7 C 2.305673 -0.247774 0.797009 0
M  V30 8 N 3.416671 0.468605 0.504025 0
M  V30 9 C 3.355332 1.573881 -0.426019 0
M  V30 10 C 3.942787 2.757628 0.253518 0
M  V30 11 C 5.295797 3.105660 0.210452 0
M  V30 12 C 5.731184 4.232086 0.882615 0
M  V30 13 C 4.878676 5.053415 1.613469 0
M  V30 14 N 3.561466 4.705296 1.649107 0
M  V30 15 C 3.131695 3.610540 0.997207 0
M  V30 16 N 1.249466 -0.180812 0.457240 0
M  V30 17 C 0.132879 -0.815324 0.680850 0
M  V30 18 C -1.202608 -0.504766 0.218169 0
M  V30 19 C -1.610776 0.840112 0.250548 0
M  V30 20 C -2.822398 1.346846 -0.161142 0
M  V30 21 C -3.739875 0.450170 -0.660293 0
M  V30 22 C -3.417554 -0.883218 -0.728927 0
M  V30 23 C -4.316669 -1.779526 -1.265001 0
M  V30 24 C -4.022629 -3.140135 -1.398701 0
M  V30 25 C -2.760012 -3.550403 -0.959040 0
M  V30 26 C -1.903152 -2.614115 -0.431505 0
M  V30 27 C -2.182426 -1.292086 -0.294373 0
M  V30 28 C -1.273060 -2.433958 3.182646 0
M  V30 29 C -1.907424 -3.336335 4.006206 0
M  V30 30 H -1.999101 -5.394808 4.585922 0
M  V30 31 H -0.200312 -6.121234 3.035715 0
M  V30 32 H 0.924935 -4.423643 1.551840 0
M  V30 33 H 3.910536 1.304329 -1.361883 0
M  V30 34 H 2.304449 1.842367 -0.690308 0
M  V30 35 H 5.923754 2.453769 -0.359629 0
M  V30 36 H 6.801958 4.468048 0.821859 0
M  V30 37 H 5.245354 5.928633 2.129907 0
M  V30 38 H 2.075139 3.391276 1.066352 0
M  V30 39 H -0.904411 1.584561 0.642060 0
M  V30 40 H -3.029234 2.404235 -0.089311 0
M  V30 41 H -4.687373 0.848179 -0.979789 0
M  V30 42 H -5.272862 -1.400725 -1.586200 0
M  V30 43 H -4.792632 -3.765177 -1.830167 0
M  V30 44 H -2.540994 -4.601684 -1.067690 0
M  V30 45 H -0.958351 -3.030907 -0.177886 0
M  V30 46 H -1.604511 -1.404794 3.254334 0
M  V30 47 H -2.690964 -3.066060 4.692503 0
M  V30 END ATOM
M  V30 BEGIN BOND
M  V30 1 2 1 2
M  V30 2 1 2 3
M  V30 3 2 3 4
M  V30 4 1 4 5
M  V30 5 1 5 6
M  V30 6 1 6 7
M  V30 7 2 7 8
M  V30 8 1 8 9
M  V30 9 1 9 10
M  V30 10 2 10 11
M  V30 11 1 11 12
M  V30 12 2 12 13
M  V30 13 1 13 14
M  V30 14 2 14 15
M  V30 15 1 7 16
M  V30 16 2 16 17
M  V30 17 1 17 18
M  V30 18 2 18 19
M  V30 19 1 19 20
M  V30 20 2 20 21
M  V30 21 1 21 22
M  V30 22 2 22 23
M  V30 23 1 23 24
M  V30 24 2 24 25
M  V30 25 1 25 26
M  V30 26 2 26 27
M  V30 27 1 4 28
M  V30 28 2 28 29
M  V30 29 1 29 1
M  V30 30 1 17 5
M  V30 31 1 27 18
M  V30 32 1 15 10
M  V30 33 1 27 22
M  V30 34 1 1 30
M  V30 35 1 2 31
M  V30 36 1 3 32
M  V30 37 1 9 33
M  V30 38 1 9 34
M  V30 39 1 11 35
M  V30 40 1 12 36
M  V30 41 1 13 37
M  V30 42 1 15 38
M  V30 43 1 19 39
M  V30 44 1 20 40
M  V30 45 1 21 41
M  V30 46 1 23 42
M  V30 47 1 24 43
M  V30 48 1 25 44
M  V30 49 1 26 45
M  V30 50 1 28 46
M  V30 51 1 29 47
M  V30 END BOND
M  V30 END CTAB
M  END
>  <Dataset>  (528) 
ChEMBL_Kinases

>  <Ligand_Instance>  (528) 
nan

>  <PDB_ID>  (528) 
nan

>  <Standardized_SMILES>  (528) 
c1ccc(-n2s/c(=N/Cc3cccnc3)nc2-c2cccc3ccccc23)cc1

>  <Name>  (528) 
nan

>  <Pocket>  (528) 
nan

>  <ATP_Site>  (528) 
nan

>  <Peripheral>  (528) 
nan

>  <Num_H_Atoms_ProtBoundConf>  (528) 
nan

>  <Num_Resolved_Atoms>  (528) 
nan

>  <Num_Not_Resolved_Atoms>  (528) 
nan

$$$$
CHEMBL2022415
     RDKit          3D

  0  0  0  0  0  0  0  0  0  0999 V3000
M  V30 BEGIN CTAB
M  V30 COUNTS 42 45 0 0 0
M  V30 BEGIN ATOM
M  V30 1 O 2.547519 -4.563799 3.561126 0
M  V30 2 C 2.650551 -5.618505 2.652464 0
M  V30 3 C 2.228306 -5.191022 1.261420 0
M  V30 4 N 0.863082 -4.754901 1.334970 0
M  V30 5 C 0.520805 -3.527427 1.059454 0
M  V30 6 N 1.126160 -2.504088 0.706973 0
M  V30 7 C 0.549975 -1.354343 0.484526 0
M  V30 8 C 1.335017 -0.247457 -0.016528 0
M  V30 9 C 2.262742 -0.486264 -1.050279 0
M  V30 10 C 3.108165 0.427425 -1.636825 0
M  V30 11 C 3.051132 1.720387 -1.170326 0
M  V30 12 C 2.175345 2.044944 -0.158440 0
M  V30 13 C 2.150407 3.330413 0.333541 0
M  V30 14 C 1.318793 3.700568 1.383078 0
M  V30 15 C 0.514179 2.700730 1.909678 0
M  V30 16 C 0.572133 1.445090 1.390382 0
M  V30 17 C 1.383378 1.062574 0.352254 0
M  V30 18 N -0.791324 -1.281736 0.648461 0
M  V30 19 C -1.927999 -0.408385 0.522315 0
M  V30 20 C -2.156652 0.221541 -0.665019 0
M  V30 21 C -3.213446 1.079117 -0.898741 0
M  V30 22 C -4.042132 1.253279 0.192715 0
M  V30 23 C -3.861886 0.643416 1.418503 0
M  V30 24 C -2.781655 -0.206056 1.588020 0
M  V30 25 S -1.264127 -2.898648 1.140190 0
M  V30 26 H 1.748967 -4.678762 4.106056 0
M  V30 27 H 1.953873 -6.436049 2.976012 0
M  V30 28 H 3.672794 -6.036732 2.697444 0
M  V30 29 H 2.939648 -4.399654 0.950848 0
M  V30 30 H 2.364089 -6.074228 0.598987 0
M  V30 31 H 2.343654 -1.505793 -1.454277 0
M  V30 32 H 3.778292 0.148162 -2.418014 0
M  V30 33 H 3.708871 2.442455 -1.626077 0
M  V30 34 H 2.812456 4.056802 -0.133025 0
M  V30 35 H 1.304522 4.709765 1.762106 0
M  V30 36 H -0.124622 3.018467 2.730764 0
M  V30 37 H -0.058996 0.754311 1.914063 0
M  V30 38 H -1.456317 0.034444 -1.485309 0
M  V30 39 H -3.413170 1.584040 -1.819950 0
M  V30 40 H -4.898543 1.907916 0.106493 0
M  V30 41 H -4.529314 0.800100 2.255559 0
M  V30 42 H -2.599779 -0.704643 2.526121 0
M  V30 END ATOM
M  V30 BEGIN BOND
M  V30 1 1 1 2
M  V30 2 1 2 3
M  V30 3 1 3 4
M  V30 4 2 4 5
M  V30 5 1 5 6
M  V30 6 2 6 7
M  V30 7 1 7 8
M  V30 8 2 8 9
M  V30 9 1 9 10
M  V30 10 2 10 11
M  V30 11 1 11 12
M  V30 12 2 12 13
M  V30 13 1 13 14
M  V30 14 2 14 15
M  V30 15 1 15 16
M  V30 16 2 16 17
M  V30 17 1 7 18
M  V30 18 1 18 19
M  V30 19 2 19 20
M  V30 20 1 20 21
M  V30 21 2 21 22
M  V30 22 1 22 23
M  V30 23 2 23 24
M  V30 24 1 18 25
M  V30 25 1 25 5
M  V30 26 1 17 8
M  V30 27 1 24 19
M  V30 28 1 17 12
M  V30 29 1 1 26
M  V30 30 1 2 27
M  V30 31 1 2 28
M  V30 32 1 3 29
M  V30 33 1 3 30
M  V30 34 1 9 31
M  V30 35 1 10 32
M  V30 36 1 11 33
M  V30 37 1 13 34
M  V30 38 1 14 35
M  V30 39 1 15 36
M  V30 40 1 16 37
M  V30 41 1 20 38
M  V30 42 1 21 39
M  V30 43 1 22 40
M  V30 44 1 23 41
M  V30 45 1 24 42
M  V30 END BOND
M  V30 END CTAB
M  END
>  <Dataset>  (529) 
ChEMBL_Kinases

>  <Ligand_Instance>  (529) 
nan

>  <PDB_ID>  (529) 
nan

>  <Standardized_SMILES>  (529) 
OCC/N=c1\nc(-c2cccc3ccccc23)n(-c2ccccc2)s1

>  <Name>  (529) 
nan

>  <Pocket>  (529) 
nan

>  <ATP_Site>  (529) 
nan

>  <Peripheral>  (529) 
nan

>  <Num_H_Atoms_ProtBoundConf>  (529) 
nan

>  <Num_Resolved_Atoms>  (529) 
nan

>  <Num_Not_Resolved_Atoms>  (529) 
nan

$$$$
CHEMBL2022416
     RDKit          3D

  0  0  0  0  0  0  0  0  0  0999 V3000
M  V30 BEGIN CTAB
M  V30 COUNTS 34 36 0 0 0
M  V30 BEGIN ATOM
M  V30 1 C -1.863896 -0.512312 2.094518 0
M  V30 2 C -0.675364 0.050446 1.355628 0
M  V30 3 N 0.460861 -0.622149 1.464234 0
M  V30 4 C 1.487815 -0.283828 0.925375 0
M  V30 5 N 2.696854 -0.694282 0.835434 0
M  V30 6 C 3.049478 -1.908527 1.546035 0
M  V30 7 C 3.070516 -3.023845 0.561573 0
M  V30 8 C 1.917597 -3.769377 0.305413 0
M  V30 9 C 1.975565 -4.806008 -0.622797 0
M  V30 10 C 3.167475 -5.081068 -1.274261 0
M  V30 11 N 4.264086 -4.349383 -1.010846 0
M  V30 12 C 4.248795 -3.334380 -0.116282 0
M  V30 13 S 0.979477 1.248138 0.048028 0
M  V30 14 N -0.709569 1.178164 0.606795 0
M  V30 15 C -1.848375 1.967849 0.420142 0
M  V30 16 C -1.731908 3.325658 0.709402 0
M  V30 17 C -2.868920 4.109647 0.522209 0
M  V30 18 C -4.059926 3.575853 0.071648 0
M  V30 19 C -4.136070 2.221358 -0.205129 0
M  V30 20 C -3.026630 1.387270 -0.035453 0
M  V30 21 H -2.675644 0.252629 2.129546 0
M  V30 22 H -2.199806 -1.466538 1.646284 0
M  V30 23 H -1.633534 -0.721599 3.159627 0
M  V30 24 H 4.092722 -1.844498 1.962025 0
M  V30 25 H 2.317309 -2.155362 2.339934 0
M  V30 26 H 0.997433 -3.534368 0.828187 0
M  V30 27 H 1.073161 -5.400817 -0.833170 0
M  V30 28 H 3.249514 -5.885508 -2.007310 0
M  V30 29 H 5.125267 -2.718652 0.121361 0
M  V30 30 H -0.794283 3.740999 1.063198 0
M  V30 31 H -2.808189 5.176210 0.740374 0
M  V30 32 H -4.958238 4.178697 -0.079368 0
M  V30 33 H -5.062328 1.801877 -0.556355 0
M  V30 34 H -3.122852 0.354220 -0.257757 0
M  V30 END ATOM
M  V30 BEGIN BOND
M  V30 1 1 1 2
M  V30 2 2 2 3
M  V30 3 1 3 4
M  V30 4 2 4 5
M  V30 5 1 5 6
M  V30 6 1 6 7
M  V30 7 2 7 8
M  V30 8 1 8 9
M  V30 9 2 9 10
M  V30 10 1 10 11
M  V30 11 2 11 12
M  V30 12 1 4 13
M  V30 13 1 13 14
M  V30 14 1 14 15
M  V30 15 2 15 16
M  V30 16 1 16 17
M  V30 17 2 17 18
M  V30 18 1 18 19
M  V30 19 2 19 20
M  V30 20 1 14 2
M  V30 21 1 20 15
M  V30 22 1 12 7
M  V30 23 1 1 21
M  V30 24 1 1 22
M  V30 25 1 1 23
M  V30 26 1 6 24
M  V30 27 1 6 25
M  V30 28 1 8 26
M  V30 29 1 9 27
M  V30 30 1 10 28
M  V30 31 1 12 29
M  V30 32 1 16 30
M  V30 33 1 17 31
M  V30 34 1 18 32
M  V30 35 1 19 33
M  V30 36 1 20 34
M  V30 END BOND
M  V30 END CTAB
M  END
>  <Dataset>  (530) 
ChEMBL_Kinases

>  <Ligand_Instance>  (530) 
nan

>  <PDB_ID>  (530) 
nan

>  <Standardized_SMILES>  (530) 
Cc1n/c(=N\Cc2cccnc2)sn1-c1ccccc1

>  <Name>  (530) 
nan

>  <Pocket>  (530) 
nan

>  <ATP_Site>  (530) 
nan

>  <Peripheral>  (530) 
nan

>  <Num_H_Atoms_ProtBoundConf>  (530) 
nan

>  <Num_Resolved_Atoms>  (530) 
nan

>  <Num_Not_Resolved_Atoms>  (530) 
nan

$$$$
CHEMBL2022712
     RDKit          3D

  0  0  0  0  0  0  0  0  0  0999 V3000
M  V30 BEGIN CTAB
M  V30 COUNTS 69 74 0 0 0
M  V30 BEGIN ATOM
M  V30 1 C 1.650279 -3.842559 6.037364 0
M  V30 2 C 0.965198 -3.657849 4.734323 0
M  V30 3 C 0.256614 -2.556451 4.311646 0
M  V30 4 N -0.344873 -2.423411 3.136880 0
M  V30 5 C -1.055015 -1.427601 2.608289 0
M  V30 6 C -1.443177 -0.135804 3.090368 0
M  V30 7 C -1.266850 0.605458 4.229463 0
M  V30 8 N -1.885948 1.809006 4.135870 0
M  V30 9 N -2.477665 1.900535 2.959564 0
M  V30 10 C -3.237849 3.046743 2.508541 0
M  V30 11 C -2.231874 3.937058 1.825322 0
M  V30 12 O -1.555894 2.926641 2.218129 0
M  V30 13 N -2.181665 5.171799 1.160731 0
M  V30 14 C -0.821259 5.348235 0.781106 0
M  V30 15 C 0.107189 5.973213 1.577469 0
M  V30 16 C 1.381634 6.039817 1.016556 0
M  V30 17 C 1.616704 5.504041 -0.232343 0
M  V30 18 C 0.655781 4.884400 -0.999710 0
M  V30 19 F 0.940998 4.380686 -2.208066 0
M  V30 20 N -0.581460 4.820882 -0.452974 0
M  V30 21 C -2.218453 0.747359 2.332139 0
M  V30 22 C -1.392062 -1.940730 1.353546 0
M  V30 23 N -0.883135 -3.169281 1.208312 0
M  V30 24 C -0.209201 -3.494219 2.342192 0
M  V30 25 C 0.473689 -4.640318 2.663027 0
M  V30 26 N 0.561227 -5.722350 1.745252 0
M  V30 27 C -0.062731 -5.542328 0.460451 0
M  V30 28 C 0.654107 -5.037540 -0.676343 0
M  V30 29 C -0.101513 -4.934399 -1.797446 0
M  V30 30 C 0.496886 -4.420566 -3.081103 0
M  V30 31 N 0.309220 -3.008402 -3.082508 0
M  V30 32 C -1.077271 -2.689183 -3.068830 0
M  V30 33 C -1.279370 -1.275245 -3.540074 0
M  V30 34 C -0.182077 -0.421014 -2.926795 0
M  V30 35 C 1.116561 -0.769698 -3.632355 0
M  V30 36 C 2.324418 -0.375234 -2.850481 0
M  V30 37 C 1.126182 -2.264797 -3.989137 0
M  V30 38 N -1.493813 -5.313896 -1.783512 0
M  V30 39 S -1.622354 -5.837261 0.000432 0
M  V30 40 N 1.066607 -4.709360 3.884809 0
M  V30 41 H 1.495099 -4.868381 6.436668 0
M  V30 42 H 1.325562 -3.125506 6.809339 0
M  V30 43 H 2.748290 -3.694328 5.901240 0
M  V30 44 H 0.212486 -1.759669 5.026892 0
M  V30 45 H -0.715415 0.291397 5.090362 0
M  V30 46 H -4.019923 2.749962 1.765568 0
M  V30 47 H -3.738908 3.540305 3.349865 0
M  V30 48 H -3.178073 5.491625 1.200883 0
M  V30 49 H -0.176560 6.356213 2.534252 0
M  V30 50 H 2.159468 6.527796 1.608183 0
M  V30 51 H 2.604881 5.564416 -0.648178 0
M  V30 52 H -2.622389 0.610481 1.324726 0
M  V30 53 H -1.977481 -1.475641 0.554926 0
M  V30 54 H 1.062882 -6.575805 2.042647 0
M  V30 55 H 1.692363 -4.777054 -0.603917 0
M  V30 56 H -0.083452 -4.866140 -3.912884 0
M  V30 57 H 1.564013 -4.728060 -3.153936 0
M  V30 58 H -1.616315 -3.386293 -3.775807 0
M  V30 59 H -1.538183 -2.896349 -2.085126 0
M  V30 60 H -1.195215 -1.277555 -4.649309 0
M  V30 61 H -2.275986 -0.862544 -3.216447 0
M  V30 62 H -0.451014 0.629632 -3.037515 0
M  V30 63 H -0.081328 -0.749368 -1.867803 0
M  V30 64 H 1.123687 -0.223658 -4.596680 0
M  V30 65 H 2.124685 -0.281237 -1.761508 0
M  V30 66 H 2.763850 0.615985 -3.165151 0
M  V30 67 H 3.173809 -1.090322 -3.009761 0
M  V30 68 H 0.949489 -2.437981 -5.052823 0
M  V30 69 H 2.180732 -2.594074 -3.804485 0
M  V30 END ATOM
M  V30 BEGIN BOND
M  V30 1 1 1 2
M  V30 2 2 2 3
M  V30 3 1 3 4
M  V30 4 1 4 5
M  V30 5 1 5 6
M  V30 6 1 6 7
M  V30 7 2 7 8
M  V30 8 1 8 9
M  V30 9 1 9 10
M  V30 10 1 10 11
M  V30 11 2 11 12
M  V30 12 1 11 13
M  V30 13 1 13 14
M  V30 14 2 14 15
M  V30 15 1 15 16
M  V30 16 2 16 17
M  V30 17 1 17 18
M  V30 18 1 18 19
M  V30 19 2 18 20
M  V30 20 1 9 21
M  V30 21 2 5 22
M  V30 22 1 22 23
M  V30 23 2 23 24
M  V30 24 1 24 25
M  V30 25 1 25 26
M  V30 26 1 26 27
M  V30 27 2 27 28
M  V30 28 1 28 29
M  V30 29 1 29 30
M  V30 30 1 30 31
M  V30 31 1 31 32
M  V30 32 1 32 33
M  V30 33 1 33 34
M  V30 34 1 34 35
M  V30 35 1 35 36
M  V30 36 1 35 37
M  V30 37 2 29 38
M  V30 38 1 38 39
M  V30 39 2 25 40
M  V30 40 1 40 2
M  V30 41 1 24 4
M  V30 42 1 39 27
M  V30 43 2 21 6
M  V30 44 1 37 31
M  V30 45 1 20 14
M  V30 46 1 1 41
M  V30 47 1 1 42
M  V30 48 1 1 43
M  V30 49 1 3 44
M  V30 50 1 7 45
M  V30 51 1 10 46
M  V30 52 1 10 47
M  V30 53 1 13 48
M  V30 54 1 15 49
M  V30 55 1 16 50
M  V30 56 1 17 51
M  V30 57 1 21 52
M  V30 58 1 22 53
M  V30 59 1 26 54
M  V30 60 1 28 55
M  V30 61 1 30 56
M  V30 62 1 30 57
M  V30 63 1 32 58
M  V30 64 1 32 59
M  V30 65 1 33 60
M  V30 66 1 33 61
M  V30 67 1 34 62
M  V30 68 1 34 63
M  V30 69 1 35 64
M  V30 70 1 36 65
M  V30 71 1 36 66
M  V30 72 1 36 67
M  V30 73 1 37 68
M  V30 74 1 37 69
M  V30 END BOND
M  V30 END CTAB
M  END
>  <Dataset>  (531) 
ChEMBL_Kinases

>  <Ligand_Instance>  (531) 
nan

>  <PDB_ID>  (531) 
nan

>  <Standardized_SMILES>  (531) 
Cc1cn2c(-c3cnn(CC(=O)Nc4cccc(F)n4)c3)cnc2c(Nc2cc(CN3CCCC(C)C3)ns2)n1

>  <Name>  (531) 
nan

>  <Pocket>  (531) 
nan

>  <ATP_Site>  (531) 
nan

>  <Peripheral>  (531) 
nan

>  <Num_H_Atoms_ProtBoundConf>  (531) 
nan

>  <Num_Resolved_Atoms>  (531) 
nan

>  <Num_Not_Resolved_Atoms>  (531) 
nan

$$$$
CHEMBL2022418
     RDKit          3D

  0  0  0  0  0  0  0  0  0  0999 V3000
M  V30 BEGIN CTAB
M  V30 COUNTS 36 38 0 0 0
M  V30 BEGIN ATOM
M  V30 1 O 1.172434 -4.051277 5.767499 0
M  V30 2 C 2.272774 -3.578250 5.054157 0
M  V30 3 C 1.813664 -3.169828 3.664199 0
M  V30 4 N 0.812174 -2.126753 3.780022 0
M  V30 5 C 0.499933 -1.469885 2.716574 0
M  V30 6 N 0.801078 -1.438832 1.538965 0
M  V30 7 C 0.243450 -0.581894 0.688010 0
M  V30 8 C 0.741797 -0.698464 -0.704058 0
M  V30 9 C 0.534782 -1.873256 -1.433347 0
M  V30 10 C 0.947434 -2.086888 -2.711255 0
M  V30 11 C 1.627316 -1.057470 -3.340064 0
M  V30 12 C 1.855037 0.122384 -2.658029 0
M  V30 13 C 1.426420 0.301021 -1.376925 0
M  V30 14 N -0.674915 0.285290 1.090425 0
M  V30 15 C -1.311497 1.230195 0.229604 0
M  V30 16 C -1.308393 2.545869 0.691060 0
M  V30 17 C -1.902609 3.526563 -0.078262 0
M  V30 18 C -2.475049 3.150451 -1.276858 0
M  V30 19 C -2.447659 1.831222 -1.682637 0
M  V30 20 C -1.872820 0.837963 -0.953824 0
M  V30 21 S -0.801700 -0.094562 2.802149 0
M  V30 22 H 0.335472 -3.630586 5.437913 0
M  V30 23 H 2.972441 -4.427172 4.927178 0
M  V30 24 H 2.779527 -2.759860 5.596888 0
M  V30 25 H 1.306580 -4.065721 3.246015 0
M  V30 26 H 2.632195 -2.826048 3.033843 0
M  V30 27 H -0.002616 -2.650750 -0.897613 0
M  V30 28 H 0.730887 -3.041120 -3.180513 0
M  V30 29 H 1.947786 -1.251425 -4.362479 0
M  V30 30 H 2.389534 0.901356 -3.184776 0
M  V30 31 H 1.603362 1.222000 -0.842463 0
M  V30 32 H -0.847523 2.822460 1.646955 0
M  V30 33 H -1.878654 4.534515 0.315514 0
M  V30 34 H -2.918992 3.985416 -1.816198 0
M  V30 35 H -2.924578 1.635223 -2.640579 0
M  V30 36 H -1.865407 -0.178760 -1.292104 0
M  V30 END ATOM
M  V30 BEGIN BOND
M  V30 1 1 1 2
M  V30 2 1 2 3
M  V30 3 1 3 4
M  V30 4 2 4 5
M  V30 5 1 5 6
M  V30 6 2 6 7
M  V30 7 1 7 8
M  V30 8 2 8 9
M  V30 9 1 9 10
M  V30 10 2 10 11
M  V30 11 1 11 12
M  V30 12 2 12 13
M  V30 13 1 7 14
M  V30 14 1 14 15
M  V30 15 2 15 16
M  V30 16 1 16 17
M  V30 17 2 17 18
M  V30 18 1 18 19
M  V30 19 2 19 20
M  V30 20 1 14 21
M  V30 21 1 21 5
M  V30 22 1 13 8
M  V30 23 1 20 15
M  V30 24 1 1 22
M  V30 25 1 2 23
M  V30 26 1 2 24
M  V30 27 1 3 25
M  V30 28 1 3 26
M  V30 29 1 9 27
M  V30 30 1 10 28
M  V30 31 1 11 29
M  V30 32 1 12 30
M  V30 33 1 13 31
M  V30 34 1 16 32
M  V30 35 1 17 33
M  V30 36 1 18 34
M  V30 37 1 19 35
M  V30 38 1 20 36
M  V30 END BOND
M  V30 END CTAB
M  END
>  <Dataset>  (532) 
ChEMBL_Kinases

>  <Ligand_Instance>  (532) 
nan

>  <PDB_ID>  (532) 
nan

>  <Standardized_SMILES>  (532) 
OCC/N=c1\nc(-c2ccccc2)n(-c2ccccc2)s1

>  <Name>  (532) 
nan

>  <Pocket>  (532) 
nan

>  <ATP_Site>  (532) 
nan

>  <Peripheral>  (532) 
nan

>  <Num_H_Atoms_ProtBoundConf>  (532) 
nan

>  <Num_Resolved_Atoms>  (532) 
nan

>  <Num_Not_Resolved_Atoms>  (532) 
nan

$$$$
CHEMBL2022420
     RDKit          3D

  0  0  0  0  0  0  0  0  0  0999 V3000
M  V30 BEGIN CTAB
M  V30 COUNTS 48 50 0 0 0
M  V30 BEGIN ATOM
M  V30 1 C 2.544845 -5.960603 2.093163 0
M  V30 2 C 3.150568 -5.014785 1.065746 0
M  V30 3 C 2.471062 -3.690168 1.222292 0
M  V30 4 C 2.958990 -2.636299 0.272743 0
M  V30 5 C 2.778012 -2.977625 -1.177755 0
M  V30 6 N 1.387473 -3.191806 -1.527341 0
M  V30 7 C 0.588658 -2.143476 -1.129097 0
M  V30 8 N 0.582685 -1.147232 -0.620626 0
M  V30 9 C -0.411630 -0.323704 -0.371056 0
M  V30 10 C -0.198030 0.968061 0.326439 0
M  V30 11 C -0.196860 0.818807 1.711813 0
M  V30 12 C -0.015757 1.883809 2.570373 0
M  V30 13 C 0.165919 3.117881 1.967093 0
M  V30 14 O 0.354584 4.238092 2.766641 0
M  V30 15 C 0.372001 4.191074 4.170204 0
M  V30 16 C 0.168157 3.287120 0.598283 0
M  V30 17 C -0.014765 2.208687 -0.244558 0
M  V30 18 N -1.621752 -0.702654 -0.773705 0
M  V30 19 C -2.853621 0.016646 -0.618423 0
M  V30 20 C -2.947910 1.124025 -1.420502 0
M  V30 21 C -4.095867 1.892505 -1.351740 0
M  V30 22 C -5.137222 1.571888 -0.502153 0
M  V30 23 C -4.995767 0.447191 0.286075 0
M  V30 24 C -3.851705 -0.353605 0.244559 0
M  V30 25 S -1.256199 -2.323529 -1.539571 0
M  V30 26 H 1.453101 -5.715503 2.220254 0
M  V30 27 H 2.606239 -7.011566 1.749715 0
M  V30 28 H 3.046262 -5.862469 3.080228 0
M  V30 29 H 4.223266 -4.912638 1.323228 0
M  V30 30 H 3.058145 -5.452928 0.069538 0
M  V30 31 H 1.369879 -3.802094 1.222914 0
M  V30 32 H 2.722406 -3.312636 2.244374 0
M  V30 33 H 2.572695 -1.659592 0.579922 0
M  V30 34 H 4.075678 -2.583506 0.431292 0
M  V30 35 H 3.306294 -3.946144 -1.340388 0
M  V30 36 H 3.261825 -2.187504 -1.768080 0
M  V30 37 H -0.337498 -0.142346 2.230569 0
M  V30 38 H -0.014057 1.773638 3.640419 0
M  V30 39 H -0.671414 4.167702 4.587697 0
M  V30 40 H 0.922364 3.326437 4.590302 0
M  V30 41 H 0.872874 5.102037 4.567946 0
M  V30 42 H 0.307063 4.235247 0.096679 0
M  V30 43 H -0.036399 2.192175 -1.325681 0
M  V30 44 H -2.189400 1.447389 -2.108812 0
M  V30 45 H -4.209796 2.787230 -1.977987 0
M  V30 46 H -6.027223 2.188108 -0.464635 0
M  V30 47 H -5.774271 0.137410 0.975440 0
M  V30 48 H -3.719876 -1.235958 0.850895 0
M  V30 END ATOM
M  V30 BEGIN BOND
M  V30 1 1 1 2
M  V30 2 1 2 3
M  V30 3 1 3 4
M  V30 4 1 4 5
M  V30 5 1 5 6
M  V30 6 2 6 7
M  V30 7 1 7 8
M  V30 8 2 8 9
M  V30 9 1 9 10
M  V30 10 2 10 11
M  V30 11 1 11 12
M  V30 12 2 12 13
M  V30 13 1 13 14
M  V30 14 1 14 15
M  V30 15 1 13 16
M  V30 16 2 16 17
M  V30 17 1 9 18
M  V30 18 1 18 19
M  V30 19 2 19 20
M  V30 20 1 20 21
M  V30 21 2 21 22
M  V30 22 1 22 23
M  V30 23 2 23 24
M  V30 24 1 18 25
M  V30 25 1 25 7
M  V30 26 1 17 10
M  V30 27 1 24 19
M  V30 28 1 1 26
M  V30 29 1 1 27
M  V30 30 1 1 28
M  V30 31 1 2 29
M  V30 32 1 2 30
M  V30 33 1 3 31
M  V30 34 1 3 32
M  V30 35 1 4 33
M  V30 36 1 4 34
M  V30 37 1 5 35
M  V30 38 1 5 36
M  V30 39 1 11 37
M  V30 40 1 12 38
M  V30 41 1 15 39
M  V30 42 1 15 40
M  V30 43 1 15 41
M  V30 44 1 16 42
M  V30 45 1 17 43
M  V30 46 1 20 44
M  V30 47 1 21 45
M  V30 48 1 22 46
M  V30 49 1 23 47
M  V30 50 1 24 48
M  V30 END BOND
M  V30 END CTAB
M  END
>  <Dataset>  (533) 
ChEMBL_Kinases

>  <Ligand_Instance>  (533) 
nan

>  <PDB_ID>  (533) 
nan

>  <Standardized_SMILES>  (533) 
CCCCC/N=c1\nc(-c2ccc(OC)cc2)n(-c2ccccc2)s1

>  <Name>  (533) 
nan

>  <Pocket>  (533) 
nan

>  <ATP_Site>  (533) 
nan

>  <Peripheral>  (533) 
nan

>  <Num_H_Atoms_ProtBoundConf>  (533) 
nan

>  <Num_Resolved_Atoms>  (533) 
nan

>  <Num_Not_Resolved_Atoms>  (533) 
nan

$$$$
CHEMBL2022421
     RDKit          3D

  0  0  0  0  0  0  0  0  0  0999 V3000
M  V30 BEGIN CTAB
M  V30 COUNTS 48 51 0 0 0
M  V30 BEGIN ATOM
M  V30 1 C -1.746671 -4.344355 3.440527 0
M  V30 2 C -0.678574 -4.547038 2.593008 0
M  V30 3 C -0.503175 -3.729058 1.521381 0
M  V30 4 C -1.366808 -2.682633 1.239945 0
M  V30 5 C -1.198648 -1.777993 0.080602 0
M  V30 6 N -0.078733 -1.058253 0.070252 0
M  V30 7 C 0.186804 -0.274306 -0.823655 0
M  V30 8 N 1.131312 0.530767 -1.120275 0
M  V30 9 C 2.255687 0.617048 -0.205732 0
M  V30 10 C 2.613588 2.078484 -0.173084 0
M  V30 11 N 3.726070 2.403101 0.688648 0
M  V30 12 C 3.887077 3.856086 0.560000 0
M  V30 13 C 5.163068 4.285938 1.295040 0
M  V30 14 O 5.280892 3.602953 2.504352 0
M  V30 15 C 4.003812 3.248883 2.917285 0
M  V30 16 C 3.485813 2.105020 2.064289 0
M  V30 17 S -1.255428 -0.410009 -1.960357 0
M  V30 18 N -2.084856 -1.636412 -0.944870 0
M  V30 19 C -3.287222 -2.357726 -1.008487 0
M  V30 20 C -4.548290 -1.822870 -0.773396 0
M  V30 21 C -5.656502 -2.632967 -0.865968 0
M  V30 22 C -5.531788 -3.973103 -1.190050 0
M  V30 23 C -4.292771 -4.527409 -1.427759 0
M  V30 24 C -3.161219 -3.712408 -1.336078 0
M  V30 25 C -2.450488 -2.446843 2.066811 0
M  V30 26 C -2.618255 -3.288235 3.156443 0
M  V30 27 H -1.878586 -4.995809 4.286172 0
M  V30 28 H 0.040276 -5.351308 2.754181 0
M  V30 29 H 0.313307 -3.830613 0.815072 0
M  V30 30 H 2.058471 0.185351 0.771566 0
M  V30 31 H 3.122956 0.080787 -0.669203 0
M  V30 32 H 2.853630 2.408773 -1.199726 0
M  V30 33 H 1.748399 2.677932 0.201424 0
M  V30 34 H 2.997747 4.399405 0.897060 0
M  V30 35 H 4.054227 4.145309 -0.498819 0
M  V30 36 H 5.164164 5.373349 1.381413 0
M  V30 37 H 5.999555 3.953446 0.653489 0
M  V30 38 H 3.333002 4.122342 2.890729 0
M  V30 39 H 4.071981 2.938056 3.993462 0
M  V30 40 H 2.379487 2.070363 2.264746 0
M  V30 41 H 3.980601 1.169456 2.395544 0
M  V30 42 H -4.584535 -0.771005 -0.524396 0
M  V30 43 H -6.602302 -2.140247 -0.668254 0
M  V30 44 H -6.494298 -4.507578 -1.230947 0
M  V30 45 H -4.256470 -5.578594 -1.676592 0
M  V30 46 H -2.201918 -4.174082 -1.527717 0
M  V30 47 H -3.181232 -1.673930 1.951935 0
M  V30 48 H -3.449131 -3.175280 3.864713 0
M  V30 END ATOM
M  V30 BEGIN BOND
M  V30 1 2 1 2
M  V30 2 1 2 3
M  V30 3 2 3 4
M  V30 4 1 4 5
M  V30 5 2 5 6
M  V30 6 1 6 7
M  V30 7 2 7 8
M  V30 8 1 8 9
M  V30 9 1 9 10
M  V30 10 1 10 11
M  V30 11 1 11 12
M  V30 12 1 12 13
M  V30 13 1 13 14
M  V30 14 1 14 15
M  V30 15 1 15 16
M  V30 16 1 7 17
M  V30 17 1 17 18
M  V30 18 1 18 19
M  V30 19 2 19 20
M  V30 20 1 20 21
M  V30 21 2 21 22
M  V30 22 1 22 23
M  V30 23 2 23 24
M  V30 24 1 4 25
M  V30 25 2 25 26
M  V30 26 1 26 1
M  V30 27 1 18 5
M  V30 28 1 24 19
M  V30 29 1 16 11
M  V30 30 1 1 27
M  V30 31 1 2 28
M  V30 32 1 3 29
M  V30 33 1 9 30
M  V30 34 1 9 31
M  V30 35 1 10 32
M  V30 36 1 10 33
M  V30 37 1 12 34
M  V30 38 1 12 35
M  V30 39 1 13 36
M  V30 40 1 13 37
M  V30 41 1 15 38
M  V30 42 1 15 39
M  V30 43 1 16 40
M  V30 44 1 16 41
M  V30 45 1 20 42
M  V30 46 1 21 43
M  V30 47 1 22 44
M  V30 48 1 23 45
M  V30 49 1 24 46
M  V30 50 1 25 47
M  V30 51 1 26 48
M  V30 END BOND
M  V30 END CTAB
M  END
>  <Dataset>  (534) 
ChEMBL_Kinases

>  <Ligand_Instance>  (534) 
nan

>  <PDB_ID>  (534) 
nan

>  <Standardized_SMILES>  (534) 
c1ccc(-c2n/c(=N\CCN3CCOCC3)sn2-c2ccccc2)cc1

>  <Name>  (534) 
nan

>  <Pocket>  (534) 
nan

>  <ATP_Site>  (534) 
nan

>  <Peripheral>  (534) 
nan

>  <Num_H_Atoms_ProtBoundConf>  (534) 
nan

>  <Num_Resolved_Atoms>  (534) 
nan

>  <Num_Not_Resolved_Atoms>  (534) 
nan

$$$$
CHEMBL2022422
     RDKit          3D

  0  0  0  0  0  0  0  0  0  0999 V3000
M  V30 BEGIN CTAB
M  V30 COUNTS 41 43 0 0 0
M  V30 BEGIN ATOM
M  V30 1 C 1.573550 -5.064801 4.035255 0
M  V30 2 C 2.785512 -4.884009 3.140540 0
M  V30 3 O 2.295277 -4.420571 1.884967 0
M  V30 4 C 3.156171 -4.150340 0.821932 0
M  V30 5 O 4.096231 -4.494175 1.587182 0
M  V30 6 C 2.578383 -3.668220 -0.464717 0
M  V30 7 N 1.117863 -3.549567 -0.401058 0
M  V30 8 C 0.577881 -2.377618 -0.253496 0
M  V30 9 N 1.001610 -1.224725 -0.141422 0
M  V30 10 C 0.150018 -0.212544 -0.000645 0
M  V30 11 C 0.799149 1.113833 0.122695 0
M  V30 12 C 0.288008 2.143859 -0.650321 0
M  V30 13 C 0.802178 3.434668 -0.630894 0
M  V30 14 C 1.877177 3.692414 0.205057 0
M  V30 15 C 2.387204 2.671790 0.974053 0
M  V30 16 C 1.870307 1.404200 0.944728 0
M  V30 17 N -1.179687 -0.405178 0.024236 0
M  V30 18 C -2.127220 0.621121 0.169893 0
M  V30 19 C -3.122896 0.705845 -0.791246 0
M  V30 20 C -4.083116 1.710193 -0.683664 0
M  V30 21 C -3.985469 2.574089 0.388545 0
M  V30 22 C -2.989168 2.465340 1.323409 0
M  V30 23 C -2.030248 1.485526 1.241956 0
M  V30 24 S -1.278847 -2.196003 -0.169211 0
M  V30 25 H 1.706186 -5.881844 4.774788 0
M  V30 26 H 1.313749 -4.111650 4.560900 0
M  V30 27 H 0.668025 -5.325094 3.461368 0
M  V30 28 H 3.296110 -5.861159 3.044127 0
M  V30 29 H 3.468165 -4.191387 3.633867 0
M  V30 30 H 3.062796 -2.699550 -0.689826 0
M  V30 31 H 2.819659 -4.414567 -1.249364 0
M  V30 32 H -0.558387 2.029142 -1.337255 0
M  V30 33 H 0.416837 4.233974 -1.221081 0
M  V30 34 H 2.326210 4.674107 0.269453 0
M  V30 35 H 3.221194 2.835163 1.634530 0
M  V30 36 H 2.252957 0.576151 1.541968 0
M  V30 37 H -3.148566 -0.008841 -1.619790 0
M  V30 38 H -4.831477 1.719819 -1.466668 0
M  V30 39 H -4.747518 3.325445 0.422677 0
M  V30 40 H -2.998751 3.190040 2.125809 0
M  V30 41 H -1.274221 1.439073 1.991807 0
M  V30 END ATOM
M  V30 BEGIN BOND
M  V30 1 1 1 2
M  V30 2 1 2 3
M  V30 3 1 3 4
M  V30 4 2 4 5
M  V30 5 1 4 6
M  V30 6 1 6 7
M  V30 7 2 7 8
M  V30 8 1 8 9
M  V30 9 2 9 10
M  V30 10 1 10 11
M  V30 11 2 11 12
M  V30 12 1 12 13
M  V30 13 2 13 14
M  V30 14 1 14 15
M  V30 15 2 15 16
M  V30 16 1 10 17
M  V30 17 1 17 18
M  V30 18 2 18 19
M  V30 19 1 19 20
M  V30 20 2 20 21
M  V30 21 1 21 22
M  V30 22 2 22 23
M  V30 23 1 17 24
M  V30 24 1 24 8
M  V30 25 1 16 11
M  V30 26 1 23 18
M  V30 27 1 1 25
M  V30 28 1 1 26
M  V30 29 1 1 27
M  V30 30 1 2 28
M  V30 31 1 2 29
M  V30 32 1 6 30
M  V30 33 1 6 31
M  V30 34 1 12 32
M  V30 35 1 13 33
M  V30 36 1 14 34
M  V30 37 1 15 35
M  V30 38 1 16 36
M  V30 39 1 19 37
M  V30 40 1 20 38
M  V30 41 1 21 39
M  V30 42 1 22 40
M  V30 43 1 23 41
M  V30 END BOND
M  V30 END CTAB
M  END
>  <Dataset>  (535) 
ChEMBL_Kinases

>  <Ligand_Instance>  (535) 
nan

>  <PDB_ID>  (535) 
nan

>  <Standardized_SMILES>  (535) 
CCOC(=O)C/N=c1\nc(-c2ccccc2)n(-c2ccccc2)s1

>  <Name>  (535) 
nan

>  <Pocket>  (535) 
nan

>  <ATP_Site>  (535) 
nan

>  <Peripheral>  (535) 
nan

>  <Num_H_Atoms_ProtBoundConf>  (535) 
nan

>  <Num_Resolved_Atoms>  (535) 
nan

>  <Num_Not_Resolved_Atoms>  (535) 
nan

$$$$
CHEMBL2022423
     RDKit          3D

  0  0  0  0  0  0  0  0  0  0999 V3000
M  V30 BEGIN CTAB
M  V30 COUNTS 44 47 0 0 0
M  V30 BEGIN ATOM
M  V30 1 C -1.051212 -5.565817 1.628724 0
M  V30 2 C -0.360098 -4.660398 2.421613 0
M  V30 3 C -0.674664 -3.323874 2.415950 0
M  V30 4 C -1.678894 -2.823245 1.632799 0
M  V30 5 C -2.062913 -1.399700 1.583620 0
M  V30 6 N -1.316167 -0.657512 0.553503 0
M  V30 7 S -2.077607 -0.592865 -1.144670 0
M  V30 8 C -0.590858 0.451817 -1.740829 0
M  V30 9 N -0.439337 0.914270 -2.990907 0
M  V30 10 C 0.741284 1.695059 -3.301298 0
M  V30 11 C 1.589981 1.874755 -2.097655 0
M  V30 12 C 1.353046 2.980139 -1.297964 0
M  V30 13 C 2.073986 3.265309 -0.145299 0
M  V30 14 C 3.084046 2.385503 0.212250 0
M  V30 15 N 3.313607 1.309923 -0.567071 0
M  V30 16 C 2.609224 1.048362 -1.676493 0
M  V30 17 N -0.005716 0.508323 -0.790600 0
M  V30 18 C -0.207477 0.030436 0.413252 0
M  V30 19 C 0.630745 0.163087 1.601696 0
M  V30 20 C 0.228770 1.117138 2.513585 0
M  V30 21 C 0.978216 1.298383 3.667393 0
M  V30 22 C 2.112138 0.520610 3.881307 0
M  V30 23 C 2.476561 -0.419574 2.945022 0
M  V30 24 C 1.752392 -0.616583 1.798270 0
M  V30 25 C -2.356276 -3.749740 0.847729 0
M  V30 26 C -2.072367 -5.092539 0.825106 0
M  V30 27 H -0.815794 -6.619132 1.622191 0
M  V30 28 H 0.431280 -5.064770 3.036773 0
M  V30 29 H -0.121369 -2.633680 3.043677 0
M  V30 30 H -1.943369 -0.881467 2.551864 0
M  V30 31 H -3.149838 -1.372478 1.366276 0
M  V30 32 H 1.290788 1.138107 -4.102469 0
M  V30 33 H 0.407360 2.687388 -3.668165 0
M  V30 34 H 0.576916 3.705430 -1.524302 0
M  V30 35 H 1.885242 4.123991 0.470235 0
M  V30 36 H 3.684198 2.567685 1.117540 0
M  V30 37 H 2.793982 0.174846 -2.311435 0
M  V30 38 H -0.653185 1.730785 2.359891 0
M  V30 39 H 0.675992 2.035101 4.381287 0
M  V30 40 H 2.662231 0.687015 4.776796 0
M  V30 41 H 3.362636 -1.031073 3.106761 0
M  V30 42 H 2.025765 -1.357679 1.043778 0
M  V30 43 H -3.161732 -3.431946 0.202580 0
M  V30 44 H -2.603630 -5.790210 0.215276 0
M  V30 END ATOM
M  V30 BEGIN BOND
M  V30 1 2 1 2
M  V30 2 1 2 3
M  V30 3 2 3 4
M  V30 4 1 4 5
M  V30 5 1 5 6
M  V30 6 1 6 7
M  V30 7 1 7 8
M  V30 8 2 8 9
M  V30 9 1 9 10
M  V30 10 1 10 11
M  V30 11 2 11 12
M  V30 12 1 12 13
M  V30 13 2 13 14
M  V30 14 1 14 15
M  V30 15 2 15 16
M  V30 16 1 8 17
M  V30 17 2 17 18
M  V30 18 1 18 19
M  V30 19 2 19 20
M  V30 20 1 20 21
M  V30 21 2 21 22
M  V30 22 1 22 23
M  V30 23 2 23 24
M  V30 24 1 4 25
M  V30 25 2 25 26
M  V30 26 1 26 1
M  V30 27 1 18 6
M  V30 28 1 24 19
M  V30 29 1 16 11
M  V30 30 1 1 27
M  V30 31 1 2 28
M  V30 32 1 3 29
M  V30 33 1 5 30
M  V30 34 1 5 31
M  V30 35 1 10 32
M  V30 36 1 10 33
M  V30 37 1 12 34
M  V30 38 1 13 35
M  V30 39 1 14 36
M  V30 40 1 16 37
M  V30 41 1 20 38
M  V30 42 1 21 39
M  V30 43 1 22 40
M  V30 44 1 23 41
M  V30 45 1 24 42
M  V30 46 1 25 43
M  V30 47 1 26 44
M  V30 END BOND
M  V30 END CTAB
M  END
>  <Dataset>  (536) 
ChEMBL_Kinases

>  <Ligand_Instance>  (536) 
nan

>  <PDB_ID>  (536) 
nan

>  <Standardized_SMILES>  (536) 
c1ccc(Cn2s/c(=N/Cc3cccnc3)nc2-c2ccccc2)cc1

>  <Name>  (536) 
nan

>  <Pocket>  (536) 
nan

>  <ATP_Site>  (536) 
nan

>  <Peripheral>  (536) 
nan

>  <Num_H_Atoms_ProtBoundConf>  (536) 
nan

>  <Num_Resolved_Atoms>  (536) 
nan

>  <Num_Not_Resolved_Atoms>  (536) 
nan

$$$$
CHEMBL2022709
     RDKit          3D

  0  0  0  0  0  0  0  0  0  0999 V3000
M  V30 BEGIN CTAB
M  V30 COUNTS 70 75 0 0 0
M  V30 BEGIN ATOM
M  V30 1 C -0.097731 -0.563226 5.337906 0
M  V30 2 C 0.639174 -1.286360 4.271907 0
M  V30 3 C 1.296118 -0.649980 3.242429 0
M  V30 4 N 1.977233 -1.242617 2.252358 0
M  V30 5 C 2.636594 -0.698947 1.224617 0
M  V30 6 C 2.878691 0.642024 0.775169 0
M  V30 7 C 3.630336 0.908494 -0.375627 0
M  V30 8 N 3.712356 2.241031 -0.584482 0
M  V30 9 N 3.055118 2.875728 0.366269 0
M  V30 10 C 2.914753 4.299575 0.482214 0
M  V30 11 C 1.689554 4.761070 -0.248593 0
M  V30 12 O 1.432709 3.572599 -0.579443 0
M  V30 13 N 1.198201 6.082568 -0.384303 0
M  V30 14 C 0.006609 6.003271 -1.167028 0
M  V30 15 C -0.097975 6.075960 -2.535766 0
M  V30 16 C -1.362356 5.970731 -3.045841 0
M  V30 17 N -2.447029 5.805744 -2.271530 0 CHG=1 VAL=4
M  V30 18 O -3.669529 5.712739 -2.916345 0 CHG=-1 VAL=1
M  V30 19 C -2.372566 5.730368 -0.915373 0
M  V30 20 C -1.104584 5.833550 -0.366329 0
M  V30 21 C 2.565157 1.916462 1.166792 0
M  V30 22 C 3.123890 -1.813481 0.558662 0
M  V30 23 N 2.732764 -2.929106 1.217355 0
M  V30 24 C 2.005145 -2.584741 2.293212 0
M  V30 25 C 1.375083 -3.301093 3.287355 0
M  V30 26 N 1.482949 -4.718849 3.212014 0
M  V30 27 C 0.456836 -5.497464 2.469900 0
M  V30 28 C -0.609102 -5.037028 1.830475 0
M  V30 29 C -1.379486 -5.972943 1.236887 0
M  V30 30 C -2.616108 -5.675846 0.467652 0
M  V30 31 N -2.421185 -5.455728 -0.919535 0
M  V30 32 C -3.674753 -5.187777 -1.548699 0
M  V30 33 C -4.137028 -3.782865 -1.342204 0
M  V30 34 C -3.091916 -2.860911 -1.970529 0
M  V30 35 C -1.789800 -3.099722 -1.247692 0
M  V30 36 C -0.695367 -2.298494 -1.920211 0
M  V30 37 C -1.373783 -4.546538 -1.262643 0
M  V30 38 N -1.041459 -7.355242 1.311408 0
M  V30 39 S 0.511997 -7.178638 2.331191 0
M  V30 40 N 0.691829 -2.651949 4.277115 0
M  V30 41 H -0.169691 -1.253008 6.208282 0
M  V30 42 H -1.120797 -0.320317 5.044615 0
M  V30 43 H 0.478760 0.329803 5.653827 0
M  V30 44 H 1.229926 0.412718 3.276446 0
M  V30 45 H 4.128184 0.268430 -1.086133 0
M  V30 46 H 2.897881 4.632300 1.540150 0
M  V30 47 H 3.810721 4.806211 0.020518 0
M  V30 48 H 1.798605 6.790414 0.103008 0
M  V30 49 H 0.830012 6.208525 -3.066354 0
M  V30 50 H -1.442941 6.029580 -4.141018 0
M  V30 51 H -3.313363 5.597264 -0.394098 0
M  V30 52 H -1.117765 5.765769 0.723731 0
M  V30 53 H 1.985605 2.156154 2.025608 0
M  V30 54 H 3.722258 -1.948224 -0.335830 0
M  V30 55 H 2.268736 -5.186105 3.671804 0
M  V30 56 H -0.822587 -3.983991 1.801928 0
M  V30 57 H -3.126229 -4.751761 0.875823 0
M  V30 58 H -3.380638 -6.466483 0.595764 0
M  V30 59 H -3.634471 -5.408087 -2.624167 0
M  V30 60 H -4.430882 -5.842377 -1.022301 0
M  V30 61 H -4.234385 -3.499900 -0.288644 0
M  V30 62 H -5.133894 -3.618433 -1.798372 0
M  V30 63 H -2.961863 -3.030092 -3.039486 0
M  V30 64 H -3.422275 -1.831173 -1.726061 0
M  V30 65 H -1.830585 -2.787660 -0.202590 0
M  V30 66 H -0.945040 -2.118345 -2.989256 0
M  V30 67 H -0.497370 -1.343176 -1.397305 0
M  V30 68 H 0.266686 -2.850946 -1.916617 0
M  V30 69 H -0.516155 -4.654660 -0.603039 0
M  V30 70 H -1.066015 -4.779123 -2.302442 0
M  V30 END ATOM
M  V30 BEGIN BOND
M  V30 1 1 1 2
M  V30 2 2 2 3
M  V30 3 1 3 4
M  V30 4 1 4 5
M  V30 5 1 5 6
M  V30 6 1 6 7
M  V30 7 2 7 8
M  V30 8 1 8 9
M  V30 9 1 9 10
M  V30 10 1 10 11
M  V30 11 2 11 12
M  V30 12 1 11 13
M  V30 13 1 13 14
M  V30 14 2 14 15
M  V30 15 1 15 16
M  V30 16 2 16 17
M  V30 17 1 17 18
M  V30 18 1 17 19
M  V30 19 2 19 20
M  V30 20 1 9 21
M  V30 21 2 5 22
M  V30 22 1 22 23
M  V30 23 2 23 24
M  V30 24 1 24 25
M  V30 25 1 25 26
M  V30 26 1 26 27
M  V30 27 2 27 28
M  V30 28 1 28 29
M  V30 29 1 29 30
M  V30 30 1 30 31
M  V30 31 1 31 32
M  V30 32 1 32 33
M  V30 33 1 33 34
M  V30 34 1 34 35
M  V30 35 1 35 36
M  V30 36 1 35 37
M  V30 37 2 29 38
M  V30 38 1 38 39
M  V30 39 2 25 40
M  V30 40 1 40 2
M  V30 41 1 24 4
M  V30 42 1 39 27
M  V30 43 2 21 6
M  V30 44 1 37 31
M  V30 45 1 20 14
M  V30 46 1 1 41
M  V30 47 1 1 42
M  V30 48 1 1 43
M  V30 49 1 3 44
M  V30 50 1 7 45
M  V30 51 1 10 46
M  V30 52 1 10 47
M  V30 53 1 13 48
M  V30 54 1 15 49
M  V30 55 1 16 50
M  V30 56 1 19 51
M  V30 57 1 20 52
M  V30 58 1 21 53
M  V30 59 1 22 54
M  V30 60 1 26 55
M  V30 61 1 28 56
M  V30 62 1 30 57
M  V30 63 1 30 58
M  V30 64 1 32 59
M  V30 65 1 32 60
M  V30 66 1 33 61
M  V30 67 1 33 62
M  V30 68 1 34 63
M  V30 69 1 34 64
M  V30 70 1 35 65
M  V30 71 1 36 66
M  V30 72 1 36 67
M  V30 73 1 36 68
M  V30 74 1 37 69
M  V30 75 1 37 70
M  V30 END BOND
M  V30 END CTAB
M  END
>  <Dataset>  (537) 
ChEMBL_Kinases

>  <Ligand_Instance>  (537) 
nan

>  <PDB_ID>  (537) 
nan

>  <Standardized_SMILES>  (537) 
Cc1cn2c(-c3cnn(CC(=O)Nc4cc[n+]([O-])cc4)c3)cnc2c(Nc2cc(CN3CCCC(C)C3)ns2)n1

>  <Name>  (537) 
nan

>  <Pocket>  (537) 
nan

>  <ATP_Site>  (537) 
nan

>  <Peripheral>  (537) 
nan

>  <Num_H_Atoms_ProtBoundConf>  (537) 
nan

>  <Num_Resolved_Atoms>  (537) 
nan

>  <Num_Not_Resolved_Atoms>  (537) 
nan

$$$$
CHEMBL2022711
     RDKit          3D

  0  0  0  0  0  0  0  0  0  0999 V3000
M  V30 BEGIN CTAB
M  V30 COUNTS 69 74 0 0 0
M  V30 BEGIN ATOM
M  V30 1 C 3.455758 -2.987236 4.533544 0
M  V30 2 C 2.136153 -3.057964 3.854378 0
M  V30 3 C 1.174327 -2.078708 3.884451 0
M  V30 4 N -0.016644 -2.134318 3.282161 0
M  V30 5 C -1.036498 -1.300573 3.214122 0
M  V30 6 C -1.252214 0.004926 3.770788 0
M  V30 7 C -0.564852 0.901867 4.545603 0
M  V30 8 N -1.278513 2.019367 4.779597 0
M  V30 9 N -2.463288 1.914672 4.175276 0
M  V30 10 C -3.627273 2.814308 4.068077 0
M  V30 11 C -3.406391 3.628467 2.814012 0
M  V30 12 O -2.341292 2.903494 2.812973 0
M  V30 13 N -3.763064 4.623331 1.835803 0
M  V30 14 C -2.628845 4.497168 0.986200 0
M  V30 15 C -1.492065 5.238412 1.189914 0
M  V30 16 C -0.475848 5.005440 0.300256 0
M  V30 17 N -0.599911 4.119543 -0.687337 0
M  V30 18 C -1.687737 3.390871 -0.907122 0
M  V30 19 C -2.750937 3.571834 -0.050240 0
M  V30 20 F -3.859810 2.819680 -0.287730 0
M  V30 21 C -2.446277 0.700701 3.567562 0
M  V30 22 C -1.939879 -2.017340 2.419126 0
M  V30 23 N -1.421567 -3.196907 2.072529 0
M  V30 24 C -0.200743 -3.284261 2.614266 0
M  V30 25 C 0.681807 -4.328759 2.512341 0
M  V30 26 N 0.454429 -5.515356 1.788430 0
M  V30 27 C 0.162255 -5.173646 0.472612 0
M  V30 28 C 0.968911 -4.803932 -0.686705 0
M  V30 29 C 0.248433 -4.567871 -1.804327 0
M  V30 30 C 0.933626 -4.172340 -3.066316 0
M  V30 31 N 0.964516 -2.743792 -3.142380 0
M  V30 32 C -0.359926 -2.240391 -3.180606 0
M  V30 33 C -0.429134 -1.011419 -4.057779 0
M  V30 34 C 0.707511 -0.092958 -3.578263 0
M  V30 35 C 1.960076 -0.739196 -4.135041 0
M  V30 36 C 3.210292 -0.146727 -3.551968 0
M  V30 37 C 1.899463 -2.229730 -4.085120 0
M  V30 38 N -1.190331 -4.681574 -1.816896 0
M  V30 39 S -1.511199 -5.172648 -0.053696 0
M  V30 40 N 1.865008 -4.193892 3.150675 0
M  V30 41 H 3.479450 -3.683335 5.397800 0
M  V30 42 H 3.658589 -1.989349 4.931777 0
M  V30 43 H 4.306683 -3.261378 3.860716 0
M  V30 44 H 1.443086 -1.209324 4.455408 0
M  V30 45 H 0.417938 0.743502 4.919234 0
M  V30 46 H -3.685125 3.433979 4.968949 0
M  V30 47 H -4.547680 2.209262 4.001422 0
M  V30 48 H -4.647772 4.858363 2.316920 0
M  V30 49 H -1.483540 5.941061 2.028474 0
M  V30 50 H 0.446339 5.584196 0.445737 0
M  V30 51 H -1.691338 2.681072 -1.752351 0
M  V30 52 H -3.312787 0.345803 2.984896 0
M  V30 53 H -2.943201 -1.692727 2.102689 0
M  V30 54 H 0.475509 -6.501943 2.091317 0
M  V30 55 H 2.005628 -4.759247 -0.541639 0
M  V30 56 H 0.324372 -4.551809 -3.910306 0
M  V30 57 H 1.965087 -4.613471 -3.098578 0
M  V30 58 H -1.121642 -2.998569 -3.474850 0
M  V30 59 H -0.610171 -1.912164 -2.132835 0
M  V30 60 H -0.208230 -1.270961 -5.109673 0
M  V30 61 H -1.402956 -0.492720 -4.008508 0
M  V30 62 H 0.575838 0.937656 -3.898898 0
M  V30 63 H 0.724036 -0.204756 -2.475099 0
M  V30 64 H 1.965926 -0.442243 -5.226179 0
M  V30 65 H 4.071516 -0.797355 -3.833323 0
M  V30 66 H 3.379741 0.845890 -4.036608 0
M  V30 67 H 3.191416 -0.052376 -2.449045 0
M  V30 68 H 1.831776 -2.681579 -5.091242 0
M  V30 69 H 2.922024 -2.553803 -3.715051 0
M  V30 END ATOM
M  V30 BEGIN BOND
M  V30 1 1 1 2
M  V30 2 2 2 3
M  V30 3 1 3 4
M  V30 4 1 4 5
M  V30 5 1 5 6
M  V30 6 1 6 7
M  V30 7 2 7 8
M  V30 8 1 8 9
M  V30 9 1 9 10
M  V30 10 1 10 11
M  V30 11 2 11 12
M  V30 12 1 11 13
M  V30 13 1 13 14
M  V30 14 2 14 15
M  V30 15 1 15 16
M  V30 16 2 16 17
M  V30 17 1 17 18
M  V30 18 2 18 19
M  V30 19 1 19 20
M  V30 20 1 9 21
M  V30 21 2 5 22
M  V30 22 1 22 23
M  V30 23 2 23 24
M  V30 24 1 24 25
M  V30 25 1 25 26
M  V30 26 1 26 27
M  V30 27 2 27 28
M  V30 28 1 28 29
M  V30 29 1 29 30
M  V30 30 1 30 31
M  V30 31 1 31 32
M  V30 32 1 32 33
M  V30 33 1 33 34
M  V30 34 1 34 35
M  V30 35 1 35 36
M  V30 36 1 35 37
M  V30 37 2 29 38
M  V30 38 1 38 39
M  V30 39 2 25 40
M  V30 40 1 40 2
M  V30 41 1 24 4
M  V30 42 1 39 27
M  V30 43 2 21 6
M  V30 44 1 37 31
M  V30 45 1 19 14
M  V30 46 1 1 41
M  V30 47 1 1 42
M  V30 48 1 1 43
M  V30 49 1 3 44
M  V30 50 1 7 45
M  V30 51 1 10 46
M  V30 52 1 10 47
M  V30 53 1 13 48
M  V30 54 1 15 49
M  V30 55 1 16 50
M  V30 56 1 18 51
M  V30 57 1 21 52
M  V30 58 1 22 53
M  V30 59 1 26 54
M  V30 60 1 28 55
M  V30 61 1 30 56
M  V30 62 1 30 57
M  V30 63 1 32 58
M  V30 64 1 32 59
M  V30 65 1 33 60
M  V30 66 1 33 61
M  V30 67 1 34 62
M  V30 68 1 34 63
M  V30 69 1 35 64
M  V30 70 1 36 65
M  V30 71 1 36 66
M  V30 72 1 36 67
M  V30 73 1 37 68
M  V30 74 1 37 69
M  V30 END BOND
M  V30 END CTAB
M  END
>  <Dataset>  (538) 
ChEMBL_Kinases

>  <Ligand_Instance>  (538) 
nan

>  <PDB_ID>  (538) 
nan

>  <Standardized_SMILES>  (538) 
Cc1cn2c(-c3cnn(CC(=O)Nc4ccncc4F)c3)cnc2c(Nc2cc(CN3CCCC(C)C3)ns2)n1

>  <Name>  (538) 
nan

>  <Pocket>  (538) 
nan

>  <ATP_Site>  (538) 
nan

>  <Peripheral>  (538) 
nan

>  <Num_H_Atoms_ProtBoundConf>  (538) 
nan

>  <Num_Resolved_Atoms>  (538) 
nan

>  <Num_Not_Resolved_Atoms>  (538) 
nan

$$$$
CHEMBL2022417
     RDKit          3D

  0  0  0  0  0  0  0  0  0  0999 V3000
M  V30 BEGIN CTAB
M  V30 COUNTS 46 48 0 0 0
M  V30 BEGIN ATOM
M  V30 1 C -1.166495 -4.957700 0.205488 0
M  V30 2 C -0.306983 -3.679552 0.307044 0
M  V30 3 C -0.251487 -3.131045 -1.074177 0
M  V30 4 C 0.491011 -1.910884 -1.341904 0
M  V30 5 C 0.169447 -0.597044 -0.801028 0
M  V30 6 C 0.113952 -0.370821 0.647742 0
M  V30 7 N 1.165724 -0.062927 1.366213 0
M  V30 8 C 1.236268 0.179533 2.506425 0
M  V30 9 N 2.181909 0.500961 3.372495 0
M  V30 10 C 3.547067 0.626001 2.953928 0
M  V30 11 C 3.839527 1.874683 2.207256 0
M  V30 12 C 4.243630 3.021042 2.885600 0
M  V30 13 C 4.539761 4.232799 2.284830 0
M  V30 14 C 4.415990 4.281598 0.895846 0
M  V30 15 N 4.028465 3.182233 0.245448 0
M  V30 16 C 3.743962 2.009190 0.848819 0
M  V30 17 S -0.566060 0.014848 3.061199 0
M  V30 18 N -1.061459 -0.403330 1.375180 0
M  V30 19 C -2.407688 -0.669775 1.018050 0
M  V30 20 C -2.962467 0.269150 0.139894 0
M  V30 21 C -4.281415 0.142809 -0.299455 0
M  V30 22 C -5.073774 -0.901611 0.113680 0
M  V30 23 C -4.522071 -1.832711 0.985379 0
M  V30 24 C -3.221032 -1.707763 1.418507 0
M  V30 25 H -2.007152 -4.713089 -0.494981 0
M  V30 26 H -1.644719 -5.071421 1.203950 0
M  V30 27 H -0.581166 -5.814313 -0.129176 0
M  V30 28 H 0.718040 -4.075334 0.544554 0
M  V30 29 H -0.690223 -3.009419 1.052726 0
M  V30 30 H 0.237879 -3.955465 -1.692665 0
M  V30 31 H -1.301451 -3.148443 -1.463021 0
M  V30 32 H 0.503088 -1.790696 -2.485069 0
M  V30 33 H 1.600264 -2.168799 -1.172220 0
M  V30 34 H -0.811429 -0.204369 -1.251277 0
M  V30 35 H 0.897756 0.131687 -1.304703 0
M  V30 36 H 3.870434 -0.243559 2.349548 0
M  V30 37 H 4.157048 0.671251 3.882121 0
M  V30 38 H 4.343695 2.994215 3.971289 0
M  V30 39 H 4.846613 5.075020 2.883377 0
M  V30 40 H 4.640086 5.219304 0.380029 0
M  V30 41 H 3.436200 1.159357 0.263617 0
M  V30 42 H -2.514178 1.160296 -0.299528 0
M  V30 43 H -4.786423 0.815097 -0.971482 0
M  V30 44 H -6.095552 -1.091254 -0.162574 0
M  V30 45 H -5.076365 -2.691627 1.364156 0
M  V30 46 H -2.749930 -2.404591 2.096773 0
M  V30 END ATOM
M  V30 BEGIN BOND
M  V30 1 1 1 2
M  V30 2 1 2 3
M  V30 3 1 3 4
M  V30 4 1 4 5
M  V30 5 1 5 6
M  V30 6 2 6 7
M  V30 7 1 7 8
M  V30 8 2 8 9
M  V30 9 1 9 10
M  V30 10 1 10 11
M  V30 11 2 11 12
M  V30 12 1 12 13
M  V30 13 2 13 14
M  V30 14 1 14 15
M  V30 15 2 15 16
M  V30 16 1 8 17
M  V30 17 1 17 18
M  V30 18 1 18 19
M  V30 19 2 19 20
M  V30 20 1 20 21
M  V30 21 2 21 22
M  V30 22 1 22 23
M  V30 23 2 23 24
M  V30 24 1 18 6
M  V30 25 1 24 19
M  V30 26 1 16 11
M  V30 27 1 1 25
M  V30 28 1 1 26
M  V30 29 1 1 27
M  V30 30 1 2 28
M  V30 31 1 2 29
M  V30 32 1 3 30
M  V30 33 1 3 31
M  V30 34 1 4 32
M  V30 35 1 4 33
M  V30 36 1 5 34
M  V30 37 1 5 35
M  V30 38 1 10 36
M  V30 39 1 10 37
M  V30 40 1 12 38
M  V30 41 1 13 39
M  V30 42 1 14 40
M  V30 43 1 16 41
M  V30 44 1 20 42
M  V30 45 1 21 43
M  V30 46 1 22 44
M  V30 47 1 23 45
M  V30 48 1 24 46
M  V30 END BOND
M  V30 END CTAB
M  END
>  <Dataset>  (539) 
ChEMBL_Kinases

>  <Ligand_Instance>  (539) 
nan

>  <PDB_ID>  (539) 
nan

>  <Standardized_SMILES>  (539) 
CCCCCc1n/c(=N\Cc2cccnc2)sn1-c1ccccc1

>  <Name>  (539) 
nan

>  <Pocket>  (539) 
nan

>  <ATP_Site>  (539) 
nan

>  <Peripheral>  (539) 
nan

>  <Num_H_Atoms_ProtBoundConf>  (539) 
nan

>  <Num_Resolved_Atoms>  (539) 
nan

>  <Num_Not_Resolved_Atoms>  (539) 
nan

$$$$
CHEMBL2024530
     RDKit          3D

  0  0  0  0  0  0  0  0  0  0999 V3000
M  V30 BEGIN CTAB
M  V30 COUNTS 43 46 0 0 0
M  V30 BEGIN ATOM
M  V30 1 C -0.560452 -4.298469 2.086848 0
M  V30 2 C -0.156380 -5.261144 1.003929 0
M  V30 3 C 1.132419 -4.895469 0.360720 0
M  V30 4 C 2.268565 -5.588146 0.694588 0
M  V30 5 C 3.474581 -5.248784 0.098992 0
M  V30 6 C 3.507478 -4.219702 -0.819015 0
M  V30 7 C 2.334270 -3.560539 -1.114180 0
M  V30 8 C 1.110629 -3.863832 -0.546117 0
M  V30 9 S -0.314604 -2.921008 -1.044581 0
M  V30 10 C -0.577372 -1.468551 -0.062442 0
M  V30 11 C 0.106073 -0.371793 -0.597700 0
M  V30 12 C 0.047703 0.891192 0.001720 0
M  V30 13 C -0.715370 1.032625 1.157013 0
M  V30 14 C -0.814124 2.251139 1.795845 0
M  V30 15 C -0.123827 3.431713 1.287328 0
M  V30 16 C -0.777401 4.257108 0.367225 0
M  V30 17 Cl -2.403402 3.912331 -0.194994 0
M  V30 18 C -0.162286 5.383090 -0.137302 0
M  V30 19 C 1.116956 5.730524 0.249740 0
M  V30 20 C 1.751810 4.902983 1.161888 0
M  V30 21 C 1.168337 3.774519 1.683966 0
M  V30 22 Cl 1.952839 2.712684 2.839666 0
M  V30 23 C -1.604971 2.287406 2.947400 0
M  V30 24 O -1.724782 3.394425 3.571127 0
M  V30 25 N -2.217644 1.161948 3.369176 0
M  V30 26 C -2.099067 -0.015325 2.718593 0
M  V30 27 N -1.337009 -0.062433 1.603925 0
M  V30 28 N -1.296970 -1.264588 1.055728 0
M  V30 29 H -0.542155 -4.765341 3.094101 0
M  V30 30 H -1.604847 -3.987711 1.917981 0
M  V30 31 H 0.164520 -3.437970 2.030622 0
M  V30 32 H -0.952865 -5.293123 0.238237 0
M  V30 33 H -0.114422 -6.292107 1.437887 0
M  V30 34 H 2.188367 -6.392948 1.425685 0
M  V30 35 H 4.343588 -5.841968 0.410257 0
M  V30 36 H 4.463634 -3.981639 -1.264132 0
M  V30 37 H 2.440678 -2.755186 -1.852266 0
M  V30 38 H 0.728621 -0.342984 -1.480796 0
M  V30 39 H 0.543167 1.766581 -0.354226 0
M  V30 40 H -0.601704 6.069338 -0.850111 0
M  V30 41 H 1.694963 6.591126 -0.081665 0
M  V30 42 H 2.763770 5.065730 1.549411 0
M  V30 43 H -2.626348 -0.865084 3.128719 0
M  V30 END ATOM
M  V30 BEGIN BOND
M  V30 1 1 1 2
M  V30 2 1 2 3
M  V30 3 2 3 4
M  V30 4 1 4 5
M  V30 5 2 5 6
M  V30 6 1 6 7
M  V30 7 2 7 8
M  V30 8 1 8 9
M  V30 9 1 9 10
M  V30 10 1 10 11
M  V30 11 2 11 12
M  V30 12 1 12 13
M  V30 13 2 13 14
M  V30 14 1 14 15
M  V30 15 2 15 16
M  V30 16 1 16 17
M  V30 17 1 16 18
M  V30 18 2 18 19
M  V30 19 1 19 20
M  V30 20 2 20 21
M  V30 21 1 21 22
M  V30 22 1 14 23
M  V30 23 2 23 24
M  V30 24 1 23 25
M  V30 25 2 25 26
M  V30 26 1 26 27
M  V30 27 1 27 28
M  V30 28 1 8 3
M  V30 29 2 28 10
M  V30 30 1 27 13
M  V30 31 1 21 15
M  V30 32 1 1 29
M  V30 33 1 1 30
M  V30 34 1 1 31
M  V30 35 1 2 32
M  V30 36 1 2 33
M  V30 37 1 4 34
M  V30 38 1 5 35
M  V30 39 1 6 36
M  V30 40 1 7 37
M  V30 41 1 11 38
M  V30 42 1 12 39
M  V30 43 1 18 40
M  V30 44 1 19 41
M  V30 45 1 20 42
M  V30 46 1 26 43
M  V30 END BOND
M  V30 END CTAB
M  END
>  <Dataset>  (540) 
ChEMBL_Kinases

>  <Ligand_Instance>  (540) 
nan

>  <PDB_ID>  (540) 
nan

>  <Standardized_SMILES>  (540) 
CCc1ccccc1Sc1ccc2c(-c3c(Cl)cccc3Cl)c(=O)ncn2n1

>  <Name>  (540) 
nan

>  <Pocket>  (540) 
nan

>  <ATP_Site>  (540) 
nan

>  <Peripheral>  (540) 
nan

>  <Num_H_Atoms_ProtBoundConf>  (540) 
nan

>  <Num_Resolved_Atoms>  (540) 
nan

>  <Num_Not_Resolved_Atoms>  (540) 
nan

$$$$
CHEMBL2024529
     RDKit          3D

  0  0  0  0  0  0  0  0  0  0999 V3000
M  V30 BEGIN CTAB
M  V30 COUNTS 37 40 0 0 0
M  V30 BEGIN ATOM
M  V30 1 O -0.772134 -4.687102 3.542469 0
M  V30 2 C -0.146726 -3.618977 3.497139 0
M  V30 3 N 0.661957 -3.084555 4.433060 0
M  V30 4 C 1.284388 -1.895965 4.240471 0
M  V30 5 N 1.135858 -1.168039 3.098268 0
M  V30 6 N 1.787460 -0.019993 3.009727 0
M  V30 7 C 1.688826 0.751778 1.912510 0
M  V30 8 S 2.546160 2.328606 1.718123 0
M  V30 9 C 2.084032 2.952918 0.091241 0
M  V30 10 C 2.926856 2.547102 -0.921239 0
M  V30 11 C 2.674333 2.965737 -2.230945 0
M  V30 12 C 1.570973 3.780662 -2.445871 0
M  V30 13 C 0.744865 4.169012 -1.402330 0
M  V30 14 C 0.985948 3.761398 -0.108811 0
M  V30 15 C 0.874532 0.287982 0.882774 0
M  V30 16 C 0.209577 -0.917303 1.012736 0
M  V30 17 C 0.336101 -1.687217 2.161699 0
M  V30 18 C -0.314359 -2.899774 2.328239 0
M  V30 19 C -1.144503 -3.291808 1.183575 0
M  V30 20 C -2.452449 -2.921572 1.114935 0
M  V30 21 F -2.983765 -2.176614 2.131152 0
M  V30 22 C -3.206825 -3.313517 0.012079 0
M  V30 23 C -2.601282 -4.064452 -0.973826 0
M  V30 24 C -1.266499 -4.435763 -0.892325 0
M  V30 25 C -0.506531 -4.048225 0.205866 0
M  V30 26 F 0.798046 -4.418363 0.272814 0
M  V30 27 H 1.906510 -1.576433 5.068084 0
M  V30 28 H 3.792914 1.912616 -0.780660 0
M  V30 29 H 3.271128 2.705615 -3.095732 0
M  V30 30 H 1.333060 4.132936 -3.450972 0
M  V30 31 H -0.130243 4.812255 -1.556006 0
M  V30 32 H 0.394636 4.016963 0.759832 0
M  V30 33 H 0.747809 0.846507 -0.018276 0
M  V30 34 H -0.423648 -1.271853 0.204787 0
M  V30 35 H -4.257786 -3.015644 -0.042396 0
M  V30 36 H -3.171785 -4.385612 -1.851332 0
M  V30 37 H -0.779785 -5.029731 -1.667889 0
M  V30 END ATOM
M  V30 BEGIN BOND
M  V30 1 2 1 2
M  V30 2 1 2 3
M  V30 3 2 3 4
M  V30 4 1 4 5
M  V30 5 1 5 6
M  V30 6 2 6 7
M  V30 7 1 7 8
M  V30 8 1 8 9
M  V30 9 2 9 10
M  V30 10 1 10 11
M  V30 11 2 11 12
M  V30 12 1 12 13
M  V30 13 2 13 14
M  V30 14 1 7 15
M  V30 15 2 15 16
M  V30 16 1 16 17
M  V30 17 2 17 18
M  V30 18 1 18 19
M  V30 19 2 19 20
M  V30 20 1 20 21
M  V30 21 1 20 22
M  V30 22 2 22 23
M  V30 23 1 23 24
M  V30 24 2 24 25
M  V30 25 1 25 26
M  V30 26 1 18 2
M  V30 27 1 25 19
M  V30 28 1 17 5
M  V30 29 1 14 9
M  V30 30 1 4 27
M  V30 31 1 10 28
M  V30 32 1 11 29
M  V30 33 1 12 30
M  V30 34 1 13 31
M  V30 35 1 14 32
M  V30 36 1 15 33
M  V30 37 1 16 34
M  V30 38 1 22 35
M  V30 39 1 23 36
M  V30 40 1 24 37
M  V30 END BOND
M  V30 END CTAB
M  END
>  <Dataset>  (541) 
ChEMBL_Kinases

>  <Ligand_Instance>  (541) 
nan

>  <PDB_ID>  (541) 
nan

>  <Standardized_SMILES>  (541) 
O=c1ncn2nc(Sc3ccccc3)ccc2c1-c1c(F)cccc1F

>  <Name>  (541) 
nan

>  <Pocket>  (541) 
nan

>  <ATP_Site>  (541) 
nan

>  <Peripheral>  (541) 
nan

>  <Num_H_Atoms_ProtBoundConf>  (541) 
nan

>  <Num_Resolved_Atoms>  (541) 
nan

>  <Num_Not_Resolved_Atoms>  (541) 
nan

$$$$
CHEMBL2024528
     RDKit          3D

  0  0  0  0  0  0  0  0  0  0999 V3000
M  V30 BEGIN CTAB
M  V30 COUNTS 40 43 0 0 0
M  V30 BEGIN ATOM
M  V30 1 O -0.872103 -2.716406 4.440513 0
M  V30 2 C -0.119067 -2.109888 3.651969 0
M  V30 3 N 0.998146 -1.587917 4.213030 0
M  V30 4 C 1.847000 -0.922331 3.407127 0
M  V30 5 N 1.602671 -0.775662 2.089844 0
M  V30 6 N 2.466017 -0.111592 1.332629 0
M  V30 7 C 2.238517 0.049011 -0.000370 0
M  V30 8 S 3.360875 0.935031 -1.088569 0
M  V30 9 C 2.936211 2.670106 -1.161394 0
M  V30 10 C 2.035775 3.118437 -2.128550 0
M  V30 11 C 1.669108 4.435084 -2.237100 0
M  V30 12 C 2.218072 5.356208 -1.346991 0
M  V30 13 C 3.111037 4.951400 -0.377862 0
M  V30 14 C 3.478793 3.606587 -0.275084 0
M  V30 15 C 1.111320 -0.467783 -0.611132 0
M  V30 16 C 0.218642 -1.159460 0.194728 0
M  V30 17 C 0.491319 -1.296675 1.539892 0
M  V30 18 C -0.431475 -1.993329 2.292501 0
M  V30 19 C -1.664938 -2.595777 1.799275 0
M  V30 20 C -2.764103 -1.759040 1.831537 0
M  V30 21 F -2.728037 -0.487210 2.275616 0
M  V30 22 C -3.968657 -2.264222 1.379683 0
M  V30 23 C -4.051824 -3.559267 0.916767 0
M  V30 24 C -2.905604 -4.321150 0.921046 0
M  V30 25 C -1.651814 -3.889110 1.359266 0
M  V30 26 C -0.456557 -4.750462 1.341935 0
M  V30 27 F 0.095429 -4.941653 2.593006 0
M  V30 28 F 0.478173 -4.335774 0.426775 0
M  V30 29 F -0.881645 -6.012054 0.935435 0
M  V30 30 H 2.757583 -0.480289 3.788144 0
M  V30 31 H 1.571187 2.458428 -2.851790 0
M  V30 32 H 0.975315 4.818978 -2.972630 0
M  V30 33 H 1.967310 6.400870 -1.384968 0
M  V30 34 H 3.571359 5.626264 0.343991 0
M  V30 35 H 4.177510 3.233679 0.469075 0
M  V30 36 H 0.869880 -0.379481 -1.650655 0
M  V30 37 H -0.683909 -1.588336 -0.225509 0
M  V30 38 H -4.876181 -1.676601 1.370954 0
M  V30 39 H -4.979156 -3.976254 0.559258 0
M  V30 40 H -3.008699 -5.350807 0.544436 0
M  V30 END ATOM
M  V30 BEGIN BOND
M  V30 1 2 1 2
M  V30 2 1 2 3
M  V30 3 2 3 4
M  V30 4 1 4 5
M  V30 5 1 5 6
M  V30 6 2 6 7
M  V30 7 1 7 8
M  V30 8 1 8 9
M  V30 9 2 9 10
M  V30 10 1 10 11
M  V30 11 2 11 12
M  V30 12 1 12 13
M  V30 13 2 13 14
M  V30 14 1 7 15
M  V30 15 2 15 16
M  V30 16 1 16 17
M  V30 17 2 17 18
M  V30 18 1 18 19
M  V30 19 2 19 20
M  V30 20 1 20 21
M  V30 21 1 20 22
M  V30 22 2 22 23
M  V30 23 1 23 24
M  V30 24 2 24 25
M  V30 25 1 25 26
M  V30 26 1 26 27
M  V30 27 1 26 28
M  V30 28 1 26 29
M  V30 29 1 18 2
M  V30 30 1 25 19
M  V30 31 1 17 5
M  V30 32 1 14 9
M  V30 33 1 4 30
M  V30 34 1 10 31
M  V30 35 1 11 32
M  V30 36 1 12 33
M  V30 37 1 13 34
M  V30 38 1 14 35
M  V30 39 1 15 36
M  V30 40 1 16 37
M  V30 41 1 22 38
M  V30 42 1 23 39
M  V30 43 1 24 40
M  V30 END BOND
M  V30 END CTAB
M  END
>  <Dataset>  (542) 
ChEMBL_Kinases

>  <Ligand_Instance>  (542) 
nan

>  <PDB_ID>  (542) 
nan

>  <Standardized_SMILES>  (542) 
O=c1ncn2nc(Sc3ccccc3)ccc2c1-c1c(F)cccc1C(F)(F)F

>  <Name>  (542) 
nan

>  <Pocket>  (542) 
nan

>  <ATP_Site>  (542) 
nan

>  <Peripheral>  (542) 
nan

>  <Num_H_Atoms_ProtBoundConf>  (542) 
nan

>  <Num_Resolved_Atoms>  (542) 
nan

>  <Num_Not_Resolved_Atoms>  (542) 
nan

$$$$
CHEMBL2024375
     RDKit          3D

  0  0  0  0  0  0  0  0  0  0999 V3000
M  V30 BEGIN CTAB
M  V30 COUNTS 44 47 0 0 0
M  V30 BEGIN ATOM
M  V30 1 F 5.019976 -1.668486 2.915491 0
M  V30 2 C 4.445869 -2.402866 1.907303 0
M  V30 3 F 4.200662 -3.674787 2.429242 0
M  V30 4 F 5.267306 -2.499258 0.797540 0
M  V30 5 C 3.127485 -1.834641 1.542830 0
M  V30 6 C 2.431742 -2.464091 0.534673 0
M  V30 7 C 1.189381 -1.991841 0.135716 0
M  V30 8 C 0.634106 -0.876532 0.751191 0
M  V30 9 C -0.681610 -0.336116 0.364023 0
M  V30 10 N -0.788195 0.882624 -0.128520 0
M  V30 11 C -1.765395 1.399091 -0.461260 0
M  V30 12 N -2.116253 2.563775 -0.965083 0
M  V30 13 C -1.147142 3.578142 -1.234266 0
M  V30 14 C 0.074567 3.532918 -0.435748 0
M  V30 15 C 1.150837 2.801292 -0.895759 0
M  V30 16 C 2.327963 2.726497 -0.178882 0
M  V30 17 C 2.335874 3.439062 1.025203 0
M  V30 18 N 1.275724 4.163797 1.485166 0
M  V30 19 C 0.131578 4.229185 0.776079 0
M  V30 20 S -3.102248 0.098098 -0.128492 0
M  V30 21 N -1.809544 -1.059537 0.497890 0
M  V30 22 C -1.914993 -2.384082 1.003743 0
M  V30 23 C -1.888726 -2.838814 2.310501 0
M  V30 24 C -2.008813 -4.173991 2.570172 0
M  V30 25 C -2.157737 -5.098782 1.557481 0
M  V30 26 C -2.187142 -4.675415 0.251109 0
M  V30 27 C -2.065194 -3.323502 -0.005385 0
M  V30 28 C 1.380139 -0.290916 1.753801 0
M  V30 29 C 2.611329 -0.714096 2.188520 0
M  V30 30 H 2.802666 -3.336740 0.011499 0
M  V30 31 H 0.647452 -2.484369 -0.651524 0
M  V30 32 H -1.591956 4.602833 -1.066620 0
M  V30 33 H -0.959518 3.570537 -2.346146 0
M  V30 34 H 1.121462 2.250783 -1.842670 0
M  V30 35 H 3.197426 2.186103 -0.465317 0
M  V30 36 H 3.262661 3.396478 1.617044 0
M  V30 37 H -0.743260 4.787568 1.088937 0
M  V30 38 H -1.767348 -2.023550 3.023444 0
M  V30 39 H -1.978620 -4.455757 3.632404 0
M  V30 40 H -2.241330 -6.118361 1.902944 0
M  V30 41 H -2.304426 -5.419931 -0.516802 0
M  V30 42 H -2.101008 -3.093791 -1.074435 0
M  V30 43 H 0.919921 0.590186 2.225922 0
M  V30 44 H 3.162219 -0.229534 2.974628 0
M  V30 END ATOM
M  V30 BEGIN BOND
M  V30 1 1 1 2
M  V30 2 1 2 3
M  V30 3 1 2 4
M  V30 4 1 2 5
M  V30 5 2 5 6
M  V30 6 1 6 7
M  V30 7 2 7 8
M  V30 8 1 8 9
M  V30 9 2 9 10
M  V30 10 1 10 11
M  V30 11 2 11 12
M  V30 12 1 12 13
M  V30 13 1 13 14
M  V30 14 2 14 15
M  V30 15 1 15 16
M  V30 16 2 16 17
M  V30 17 1 17 18
M  V30 18 2 18 19
M  V30 19 1 11 20
M  V30 20 1 20 21
M  V30 21 1 21 22
M  V30 22 2 22 23
M  V30 23 1 23 24
M  V30 24 2 24 25
M  V30 25 1 25 26
M  V30 26 2 26 27
M  V30 27 1 8 28
M  V30 28 2 28 29
M  V30 29 1 29 5
M  V30 30 1 21 9
M  V30 31 1 27 22
M  V30 32 1 19 14
M  V30 33 1 6 30
M  V30 34 1 7 31
M  V30 35 1 13 32
M  V30 36 1 13 33
M  V30 37 1 15 34
M  V30 38 1 16 35
M  V30 39 1 17 36
M  V30 40 1 19 37
M  V30 41 1 23 38
M  V30 42 1 24 39
M  V30 43 1 25 40
M  V30 44 1 26 41
M  V30 45 1 27 42
M  V30 46 1 28 43
M  V30 47 1 29 44
M  V30 END BOND
M  V30 END CTAB
M  END
>  <Dataset>  (543) 
ChEMBL_Kinases

>  <Ligand_Instance>  (543) 
nan

>  <PDB_ID>  (543) 
nan

>  <Standardized_SMILES>  (543) 
FC(F)(F)c1ccc(-c2n/c(=N\Cc3cccnc3)sn2-c2ccccc2)cc1

>  <Name>  (543) 
nan

>  <Pocket>  (543) 
nan

>  <ATP_Site>  (543) 
nan

>  <Peripheral>  (543) 
nan

>  <Num_H_Atoms_ProtBoundConf>  (543) 
nan

>  <Num_Resolved_Atoms>  (543) 
nan

>  <Num_Not_Resolved_Atoms>  (543) 
nan

$$$$
CHEMBL2024374
     RDKit          3D

  0  0  0  0  0  0  0  0  0  0999 V3000
M  V30 BEGIN CTAB
M  V30 COUNTS 43 46 0 0 0
M  V30 BEGIN ATOM
M  V30 1 C -1.628807 -5.901985 0.871067 0
M  V30 2 O -2.172307 -4.601487 0.949753 0
M  V30 3 C -1.373452 -3.473361 1.013054 0
M  V30 4 C 0.008419 -3.427785 1.010341 0
M  V30 5 C 0.644836 -2.218063 1.079082 0
M  V30 6 C -0.092245 -1.043634 1.151110 0
M  V30 7 C 0.774316 0.155627 1.218362 0
M  V30 8 N 0.786854 0.894870 0.116832 0
M  V30 9 C 1.486620 1.924919 0.077016 0
M  V30 10 N 1.726203 2.832508 -0.784013 0
M  V30 11 C 1.119943 2.797547 -2.058867 0
M  V30 12 C 0.637447 1.727021 -2.771760 0
M  V30 13 C 0.073050 1.899398 -4.017766 0
M  V30 14 C 0.004215 3.177767 -4.533449 0
M  V30 15 C 0.470675 4.293986 -3.867759 0
M  V30 16 C 1.036372 4.082732 -2.607753 0
M  V30 17 S 2.331209 2.027457 1.771060 0
M  V30 18 N 1.506194 0.481175 2.324853 0
M  V30 19 C 1.538913 -0.239480 3.497178 0
M  V30 20 C 0.541709 -0.092969 4.443300 0
M  V30 21 C 0.601004 -0.832842 5.616070 0
M  V30 22 C 1.656863 -1.712064 5.831451 0
M  V30 23 C 2.669066 -1.878011 4.900069 0
M  V30 24 C 2.591269 -1.130760 3.737017 0
M  V30 25 C -1.470534 -1.073148 1.154753 0
M  V30 26 C -2.104082 -2.296632 1.085190 0
M  V30 27 H -2.362125 -6.620562 0.446345 0
M  V30 28 H -1.360746 -6.256033 1.905978 0
M  V30 29 H -0.675852 -5.943868 0.291412 0
M  V30 30 H 0.481680 -4.399032 0.951305 0
M  V30 31 H 1.724972 -2.293629 1.070415 0
M  V30 32 H 0.749971 0.783640 -2.260406 0
M  V30 33 H -0.292885 1.020002 -4.538893 0
M  V30 34 H -0.445994 3.287977 -5.519472 0
M  V30 35 H 0.392022 5.272843 -4.317594 0
M  V30 36 H 1.381325 5.006783 -2.143983 0
M  V30 37 H -0.284472 0.592416 4.279117 0
M  V30 38 H -0.160577 -0.754825 6.395584 0
M  V30 39 H 1.693590 -2.285631 6.751642 0
M  V30 40 H 3.497611 -2.558008 5.052373 0
M  V30 41 H 3.391101 -1.268370 3.011932 0
M  V30 42 H -1.938930 -0.102154 1.213752 0
M  V30 43 H -3.179477 -2.233714 1.093091 0
M  V30 END ATOM
M  V30 BEGIN BOND
M  V30 1 1 1 2
M  V30 2 1 2 3
M  V30 3 2 3 4
M  V30 4 1 4 5
M  V30 5 2 5 6
M  V30 6 1 6 7
M  V30 7 2 7 8
M  V30 8 1 8 9
M  V30 9 2 9 10
M  V30 10 1 10 11
M  V30 11 2 11 12
M  V30 12 1 12 13
M  V30 13 2 13 14
M  V30 14 1 14 15
M  V30 15 2 15 16
M  V30 16 1 9 17
M  V30 17 1 17 18
M  V30 18 1 18 19
M  V30 19 2 19 20
M  V30 20 1 20 21
M  V30 21 2 21 22
M  V30 22 1 22 23
M  V30 23 2 23 24
M  V30 24 1 6 25
M  V30 25 2 25 26
M  V30 26 1 26 3
M  V30 27 1 18 7
M  V30 28 1 24 19
M  V30 29 1 16 11
M  V30 30 1 1 27
M  V30 31 1 1 28
M  V30 32 1 1 29
M  V30 33 1 4 30
M  V30 34 1 5 31
M  V30 35 1 12 32
M  V30 36 1 13 33
M  V30 37 1 14 34
M  V30 38 1 15 35
M  V30 39 1 16 36
M  V30 40 1 20 37
M  V30 41 1 21 38
M  V30 42 1 22 39
M  V30 43 1 23 40
M  V30 44 1 24 41
M  V30 45 1 25 42
M  V30 46 1 26 43
M  V30 END BOND
M  V30 END CTAB
M  END
>  <Dataset>  (544) 
ChEMBL_Kinases

>  <Ligand_Instance>  (544) 
nan

>  <PDB_ID>  (544) 
nan

>  <Standardized_SMILES>  (544) 
COc1ccc(-c2n/c(=N\c3ccccc3)sn2-c2ccccc2)cc1

>  <Name>  (544) 
nan

>  <Pocket>  (544) 
nan

>  <ATP_Site>  (544) 
nan

>  <Peripheral>  (544) 
nan

>  <Num_H_Atoms_ProtBoundConf>  (544) 
nan

>  <Num_Resolved_Atoms>  (544) 
nan

>  <Num_Not_Resolved_Atoms>  (544) 
nan

$$$$
CHEMBL2024372
     RDKit          3D

  0  0  0  0  0  0  0  0  0  0999 V3000
M  V30 BEGIN CTAB
M  V30 COUNTS 45 47 0 0 0
M  V30 BEGIN ATOM
M  V30 1 C 3.898765 -4.934882 1.733174 0
M  V30 2 C 2.914753 -3.784634 1.611096 0
M  V30 3 O 2.467487 -3.610192 0.289346 0
M  V30 4 C 3.249573 -3.330336 -0.804293 0
M  V30 5 O 4.498436 -3.207318 -0.665683 0
M  V30 6 C 2.626290 -3.171084 -2.157549 0
M  V30 7 N 1.186730 -3.349299 -2.102375 0
M  V30 8 C 0.509320 -2.429183 -1.487702 0
M  V30 9 N 0.627007 -1.461416 -0.933310 0
M  V30 10 C -0.262960 -0.670333 -0.370784 0
M  V30 11 C 0.113258 0.569042 0.314148 0
M  V30 12 C 0.252059 1.782720 -0.350239 0
M  V30 13 C 0.611010 2.875595 0.412152 0
M  V30 14 C 0.822973 2.771655 1.770736 0
M  V30 15 O 1.179973 3.932432 2.439253 0
M  V30 16 C 1.416547 3.917216 3.833583 0
M  V30 17 C 0.681785 1.553078 2.427223 0
M  V30 18 C 0.322088 0.448865 1.674374 0
M  V30 19 N -1.552639 -1.073069 -0.463916 0
M  V30 20 C -2.695580 -0.368001 0.076153 0
M  V30 21 C -3.121606 -0.631458 1.376028 0
M  V30 22 C -4.214241 0.068559 1.838432 0
M  V30 23 C -4.845039 0.986915 1.032006 0
M  V30 24 C -4.418511 1.237539 -0.242059 0
M  V30 25 C -3.325280 0.560983 -0.754406 0
M  V30 26 S -1.351824 -2.676370 -1.426251 0
M  V30 27 H 3.382578 -5.907736 1.620201 0
M  V30 28 H 4.739362 -4.798516 1.038508 0
M  V30 29 H 4.292893 -4.870418 2.779421 0
M  V30 30 H 3.355186 -2.863786 2.058457 0
M  V30 31 H 2.014838 -4.006303 2.223151 0
M  V30 32 H 3.094899 -3.858765 -2.898791 0
M  V30 33 H 2.808132 -2.115838 -2.477844 0
M  V30 34 H 0.069110 1.787189 -1.419744 0
M  V30 35 H 0.717556 3.817106 -0.109458 0
M  V30 36 H 2.325336 3.328367 4.064991 0
M  V30 37 H 0.514742 3.411743 4.276536 0
M  V30 38 H 1.439797 4.943145 4.253609 0
M  V30 39 H 0.867390 1.558843 3.499167 0
M  V30 40 H 0.224415 -0.476855 2.228251 0
M  V30 41 H -2.544032 -1.382396 1.926756 0
M  V30 42 H -4.535643 -0.146040 2.852152 0
M  V30 43 H -5.708890 1.541951 1.394361 0
M  V30 44 H -4.891083 1.956039 -0.910079 0
M  V30 45 H -2.928126 0.702241 -1.748635 0
M  V30 END ATOM
M  V30 BEGIN BOND
M  V30 1 1 1 2
M  V30 2 1 2 3
M  V30 3 1 3 4
M  V30 4 2 4 5
M  V30 5 1 4 6
M  V30 6 1 6 7
M  V30 7 2 7 8
M  V30 8 1 8 9
M  V30 9 2 9 10
M  V30 10 1 10 11
M  V30 11 2 11 12
M  V30 12 1 12 13
M  V30 13 2 13 14
M  V30 14 1 14 15
M  V30 15 1 15 16
M  V30 16 1 14 17
M  V30 17 2 17 18
M  V30 18 1 10 19
M  V30 19 1 19 20
M  V30 20 2 20 21
M  V30 21 1 21 22
M  V30 22 2 22 23
M  V30 23 1 23 24
M  V30 24 2 24 25
M  V30 25 1 19 26
M  V30 26 1 26 8
M  V30 27 1 18 11
M  V30 28 1 25 20
M  V30 29 1 1 27
M  V30 30 1 1 28
M  V30 31 1 1 29
M  V30 32 1 2 30
M  V30 33 1 2 31
M  V30 34 1 6 32
M  V30 35 1 6 33
M  V30 36 1 12 34
M  V30 37 1 13 35
M  V30 38 1 16 36
M  V30 39 1 16 37
M  V30 40 1 16 38
M  V30 41 1 17 39
M  V30 42 1 18 40
M  V30 43 1 21 41
M  V30 44 1 22 42
M  V30 45 1 23 43
M  V30 46 1 24 44
M  V30 47 1 25 45
M  V30 END BOND
M  V30 END CTAB
M  END
>  <Dataset>  (545) 
ChEMBL_Kinases

>  <Ligand_Instance>  (545) 
nan

>  <PDB_ID>  (545) 
nan

>  <Standardized_SMILES>  (545) 
CCOC(=O)C/N=c1\nc(-c2ccc(OC)cc2)n(-c2ccccc2)s1

>  <Name>  (545) 
nan

>  <Pocket>  (545) 
nan

>  <ATP_Site>  (545) 
nan

>  <Peripheral>  (545) 
nan

>  <Num_H_Atoms_ProtBoundConf>  (545) 
nan

>  <Num_Resolved_Atoms>  (545) 
nan

>  <Num_Not_Resolved_Atoms>  (545) 
nan

$$$$
CHEMBL2024371
     RDKit          3D

  0  0  0  0  0  0  0  0  0  0999 V3000
M  V30 BEGIN CTAB
M  V30 COUNTS 40 42 0 0 0
M  V30 BEGIN ATOM
M  V30 1 C 2.346657 -5.452154 1.867042 0
M  V30 2 O 2.134498 -4.296448 2.656630 0
M  V30 3 C 1.623414 -3.166528 2.032791 0
M  V30 4 C 1.291953 -3.041378 0.700325 0
M  V30 5 C 0.791059 -1.873995 0.180547 0
M  V30 6 C 0.603531 -0.776332 0.994695 0
M  V30 7 C 0.066870 0.512745 0.496380 0
M  V30 8 N 0.883362 1.151578 -0.334552 0
M  V30 9 C 0.530907 2.240712 -0.810051 0
M  V30 10 N 1.076627 3.099929 -1.629579 0
M  V30 11 C 2.392047 2.849433 -2.186131 0
M  V30 12 C 2.215779 2.403937 -3.640708 0
M  V30 13 O 3.441980 2.145134 -4.240270 0
M  V30 14 S -1.165655 2.556080 -0.087503 0
M  V30 15 N -1.129785 1.009111 0.838608 0
M  V30 16 C -2.034326 0.379176 1.711606 0
M  V30 17 C -2.766607 -0.768165 1.491053 0
M  V30 18 C -3.621241 -1.253977 2.474973 0
M  V30 19 C -3.751554 -0.598578 3.686283 0
M  V30 20 C -3.021975 0.558396 3.926194 0
M  V30 21 C -2.174335 1.031139 2.937095 0
M  V30 22 C 0.927778 -0.871622 2.339596 0
M  V30 23 C 1.434637 -2.056973 2.859360 0
M  V30 24 H 2.401216 -6.368186 2.495375 0
M  V30 25 H 1.416832 -5.587058 1.258101 0
M  V30 26 H 3.202839 -5.349228 1.189250 0
M  V30 27 H 1.449234 -3.917138 0.086039 0
M  V30 28 H 0.535955 -1.790560 -0.864611 0
M  V30 29 H 2.963928 2.071796 -1.663462 0
M  V30 30 H 2.898987 3.841534 -2.210736 0
M  V30 31 H 1.630063 1.466629 -3.675347 0
M  V30 32 H 1.703290 3.186362 -4.217890 0
M  V30 33 H 3.389170 2.327696 -5.225707 0
M  V30 34 H -2.609535 -1.223627 0.517686 0
M  V30 35 H -4.174101 -2.153800 2.259587 0
M  V30 36 H -4.416088 -0.974668 4.453778 0
M  V30 37 H -3.132934 1.061626 4.877817 0
M  V30 38 H -1.640941 1.937206 3.200081 0
M  V30 39 H 0.807885 -0.051043 3.041536 0
M  V30 40 H 1.682057 -2.107207 3.919946 0
M  V30 END ATOM
M  V30 BEGIN BOND
M  V30 1 1 1 2
M  V30 2 1 2 3
M  V30 3 2 3 4
M  V30 4 1 4 5
M  V30 5 2 5 6
M  V30 6 1 6 7
M  V30 7 2 7 8
M  V30 8 1 8 9
M  V30 9 2 9 10
M  V30 10 1 10 11
M  V30 11 1 11 12
M  V30 12 1 12 13
M  V30 13 1 9 14
M  V30 14 1 14 15
M  V30 15 1 15 16
M  V30 16 2 16 17
M  V30 17 1 17 18
M  V30 18 2 18 19
M  V30 19 1 19 20
M  V30 20 2 20 21
M  V30 21 1 6 22
M  V30 22 2 22 23
M  V30 23 1 23 3
M  V30 24 1 15 7
M  V30 25 1 21 16
M  V30 26 1 1 24
M  V30 27 1 1 25
M  V30 28 1 1 26
M  V30 29 1 4 27
M  V30 30 1 5 28
M  V30 31 1 11 29
M  V30 32 1 11 30
M  V30 33 1 12 31
M  V30 34 1 12 32
M  V30 35 1 13 33
M  V30 36 1 17 34
M  V30 37 1 18 35
M  V30 38 1 19 36
M  V30 39 1 20 37
M  V30 40 1 21 38
M  V30 41 1 22 39
M  V30 42 1 23 40
M  V30 END BOND
M  V30 END CTAB
M  END
>  <Dataset>  (546) 
ChEMBL_Kinases

>  <Ligand_Instance>  (546) 
nan

>  <PDB_ID>  (546) 
nan

>  <Standardized_SMILES>  (546) 
COc1ccc(-c2n/c(=N\CCO)sn2-c2ccccc2)cc1

>  <Name>  (546) 
nan

>  <Pocket>  (546) 
nan

>  <ATP_Site>  (546) 
nan

>  <Peripheral>  (546) 
nan

>  <Num_H_Atoms_ProtBoundConf>  (546) 
nan

>  <Num_Resolved_Atoms>  (546) 
nan

>  <Num_Not_Resolved_Atoms>  (546) 
nan

$$$$
CHEMBL2024370
     RDKit          3D

  0  0  0  0  0  0  0  0  0  0999 V3000
M  V30 BEGIN CTAB
M  V30 COUNTS 45 48 0 0 0
M  V30 BEGIN ATOM
M  V30 1 C -3.499339 -5.510103 1.196773 0
M  V30 2 O -2.647184 -5.072245 0.155272 0
M  V30 3 C -1.796209 -3.993714 0.369950 0
M  V30 4 C -1.005116 -3.641722 -0.703511 0
M  V30 5 C -0.125882 -2.574057 -0.573033 0
M  V30 6 C -0.054942 -1.883838 0.619423 0
M  V30 7 C 0.863808 -0.737570 0.815762 0
M  V30 8 N 0.686299 0.262986 -0.041122 0
M  V30 9 C 1.396025 1.259853 0.035898 0
M  V30 10 N 1.507388 2.386482 -0.602234 0
M  V30 11 C 0.608378 2.665641 -1.733144 0
M  V30 12 C 0.309111 4.135392 -1.615301 0
M  V30 13 C 1.151735 5.030503 -2.274364 0
M  V30 14 C 0.778346 6.355319 -2.094256 0
M  V30 15 C -0.304072 6.786643 -1.350455 0
M  V30 16 N -1.069439 5.858237 -0.744318 0
M  V30 17 C -0.775228 4.558891 -0.869623 0
M  V30 18 S 2.573026 0.939854 1.485979 0
M  V30 19 N 1.800250 -0.715883 1.784315 0
M  V30 20 C 2.043618 -1.715699 2.709828 0
M  V30 21 C 2.032420 -1.455213 4.067282 0
M  V30 22 C 2.271819 -2.433670 5.010203 0
M  V30 23 C 2.528880 -3.713290 4.528067 0
M  V30 24 C 2.542795 -3.983575 3.189861 0
M  V30 25 C 2.300984 -2.993334 2.250027 0
M  V30 26 C -0.842695 -2.225398 1.705854 0
M  V30 27 C -1.711221 -3.287011 1.563363 0
M  V30 28 H -3.839386 -6.556079 1.014717 0
M  V30 29 H -3.002482 -5.538809 2.185450 0
M  V30 30 H -4.363353 -4.831328 1.264611 0
M  V30 31 H -0.956403 -4.087099 -1.683451 0
M  V30 32 H 0.532369 -2.216771 -1.340238 0
M  V30 33 H 1.082277 2.425083 -2.704670 0
M  V30 34 H -0.343809 2.107668 -1.608136 0
M  V30 35 H 1.992375 4.731764 -2.854379 0
M  V30 36 H 1.406176 7.108852 -2.590944 0
M  V30 37 H -0.489240 7.866158 -1.288610 0
M  V30 38 H -1.426530 3.855571 -0.359466 0
M  V30 39 H 1.824408 -0.435195 4.356673 0
M  V30 40 H 2.240766 -2.128565 6.050949 0
M  V30 41 H 2.711154 -4.449900 5.300845 0
M  V30 42 H 2.746952 -4.994554 2.841633 0
M  V30 43 H 2.316787 -3.226488 1.212011 0
M  V30 44 H -0.812522 -1.698383 2.669781 0
M  V30 45 H -2.354262 -3.608409 2.366873 0
M  V30 END ATOM
M  V30 BEGIN BOND
M  V30 1 1 1 2
M  V30 2 1 2 3
M  V30 3 2 3 4
M  V30 4 1 4 5
M  V30 5 2 5 6
M  V30 6 1 6 7
M  V30 7 2 7 8
M  V30 8 1 8 9
M  V30 9 2 9 10
M  V30 10 1 10 11
M  V30 11 1 11 12
M  V30 12 2 12 13
M  V30 13 1 13 14
M  V30 14 2 14 15
M  V30 15 1 15 16
M  V30 16 2 16 17
M  V30 17 1 9 18
M  V30 18 1 18 19
M  V30 19 1 19 20
M  V30 20 2 20 21
M  V30 21 1 21 22
M  V30 22 2 22 23
M  V30 23 1 23 24
M  V30 24 2 24 25
M  V30 25 1 6 26
M  V30 26 2 26 27
M  V30 27 1 27 3
M  V30 28 1 19 7
M  V30 29 1 25 20
M  V30 30 1 17 12
M  V30 31 1 1 28
M  V30 32 1 1 29
M  V30 33 1 1 30
M  V30 34 1 4 31
M  V30 35 1 5 32
M  V30 36 1 11 33
M  V30 37 1 11 34
M  V30 38 1 13 35
M  V30 39 1 14 36
M  V30 40 1 15 37
M  V30 41 1 17 38
M  V30 42 1 21 39
M  V30 43 1 22 40
M  V30 44 1 23 41
M  V30 45 1 24 42
M  V30 46 1 25 43
M  V30 47 1 26 44
M  V30 48 1 27 45
M  V30 END BOND
M  V30 END CTAB
M  END
>  <Dataset>  (547) 
ChEMBL_Kinases

>  <Ligand_Instance>  (547) 
nan

>  <PDB_ID>  (547) 
nan

>  <Standardized_SMILES>  (547) 
COc1ccc(-c2n/c(=N\Cc3cccnc3)sn2-c2ccccc2)cc1

>  <Name>  (547) 
nan

>  <Pocket>  (547) 
nan

>  <ATP_Site>  (547) 
nan

>  <Peripheral>  (547) 
nan

>  <Num_H_Atoms_ProtBoundConf>  (547) 
nan

>  <Num_Resolved_Atoms>  (547) 
nan

>  <Num_Not_Resolved_Atoms>  (547) 
nan

$$$$
CHEMBL2024369
     RDKit          3D

  0  0  0  0  0  0  0  0  0  0999 V3000
M  V30 BEGIN CTAB
M  V30 COUNTS 40 42 0 0 0
M  V30 BEGIN ATOM
M  V30 1 C -0.076344 -5.147081 4.564986 0
M  V30 2 O 1.102054 -4.751879 3.891356 0
M  V30 3 C 1.176543 -3.496970 3.259272 0
M  V30 4 C 2.375220 -3.197592 2.623238 0
M  V30 5 C 2.468618 -1.963508 1.993368 0
M  V30 6 C 1.389932 -1.125538 2.034967 0
M  V30 7 N 1.371459 0.190501 1.411785 0
M  V30 8 S 2.245723 1.796344 1.838280 0
M  V30 9 C 1.418257 2.647737 0.355796 0
M  V30 10 N 1.658843 3.903949 0.102693 0
M  V30 11 C 1.012937 4.501540 -1.024027 0
M  V30 12 C -0.470807 4.327982 -1.083701 0
M  V30 13 O -0.894781 4.986797 -2.259146 0
M  V30 14 N 0.817610 1.796562 -0.051909 0
M  V30 15 C 0.688775 0.547948 0.345641 0
M  V30 16 C -0.185828 -0.402154 -0.379639 0
M  V30 17 C 0.517050 -1.316122 -1.141665 0
M  V30 18 C -0.197153 -2.261227 -1.869615 0
M  V30 19 C -1.574988 -2.297275 -1.841113 0
M  V30 20 C -2.244305 -1.374358 -1.073312 0
M  V30 21 C -1.564950 -0.411031 -0.329300 0
M  V30 22 C 0.194289 -1.395356 2.655586 0
M  V30 23 C 0.086407 -2.634923 3.294036 0
M  V30 24 H -0.251195 -4.589851 5.501320 0
M  V30 25 H 0.042834 -6.249086 4.756328 0
M  V30 26 H -0.932088 -4.996290 3.888848 0
M  V30 27 H 3.209267 -3.867674 2.601691 0
M  V30 28 H 3.371498 -1.626946 1.461056 0
M  V30 29 H 1.462909 4.213438 -1.996847 0
M  V30 30 H 1.194131 5.613250 -0.959693 0
M  V30 31 H -0.787947 3.278932 -1.229051 0
M  V30 32 H -0.961789 4.840591 -0.250314 0
M  V30 33 H -0.273410 4.756110 -3.011360 0
M  V30 34 H 1.592626 -1.387256 -1.243506 0
M  V30 35 H 0.230054 -3.039360 -2.511254 0
M  V30 36 H -2.171937 -3.016519 -2.392866 0
M  V30 37 H -3.325392 -1.369492 -1.024370 0
M  V30 38 H -2.027619 0.342541 0.294128 0
M  V30 39 H -0.661930 -0.760173 2.702965 0
M  V30 40 H -0.821094 -2.915007 3.801176 0
M  V30 END ATOM
M  V30 BEGIN BOND
M  V30 1 1 1 2
M  V30 2 1 2 3
M  V30 3 2 3 4
M  V30 4 1 4 5
M  V30 5 2 5 6
M  V30 6 1 6 7
M  V30 7 1 7 8
M  V30 8 1 8 9
M  V30 9 2 9 10
M  V30 10 1 10 11
M  V30 11 1 11 12
M  V30 12 1 12 13
M  V30 13 1 9 14
M  V30 14 2 14 15
M  V30 15 1 15 16
M  V30 16 2 16 17
M  V30 17 1 17 18
M  V30 18 2 18 19
M  V30 19 1 19 20
M  V30 20 2 20 21
M  V30 21 1 6 22
M  V30 22 2 22 23
M  V30 23 1 23 3
M  V30 24 1 15 7
M  V30 25 1 21 16
M  V30 26 1 1 24
M  V30 27 1 1 25
M  V30 28 1 1 26
M  V30 29 1 4 27
M  V30 30 1 5 28
M  V30 31 1 11 29
M  V30 32 1 11 30
M  V30 33 1 12 31
M  V30 34 1 12 32
M  V30 35 1 13 33
M  V30 36 1 17 34
M  V30 37 1 18 35
M  V30 38 1 19 36
M  V30 39 1 20 37
M  V30 40 1 21 38
M  V30 41 1 22 39
M  V30 42 1 23 40
M  V30 END BOND
M  V30 END CTAB
M  END
>  <Dataset>  (548) 
ChEMBL_Kinases

>  <Ligand_Instance>  (548) 
nan

>  <PDB_ID>  (548) 
nan

>  <Standardized_SMILES>  (548) 
COc1ccc(-n2s/c(=N/CCO)nc2-c2ccccc2)cc1

>  <Name>  (548) 
nan

>  <Pocket>  (548) 
nan

>  <ATP_Site>  (548) 
nan

>  <Peripheral>  (548) 
nan

>  <Num_H_Atoms_ProtBoundConf>  (548) 
nan

>  <Num_Resolved_Atoms>  (548) 
nan

>  <Num_Not_Resolved_Atoms>  (548) 
nan

$$$$
CHEMBL2024368
     RDKit          3D

  0  0  0  0  0  0  0  0  0  0999 V3000
M  V30 BEGIN CTAB
M  V30 COUNTS 43 45 0 0 0
M  V30 BEGIN ATOM
M  V30 1 C 2.807895 -2.945642 3.234374 0
M  V30 2 C 4.018750 -2.202123 2.729137 0
M  V30 3 O 3.938728 -2.020871 1.331594 0
M  V30 4 C 4.921859 -1.365592 0.600992 0
M  V30 5 O 5.612289 -1.158032 1.656979 0
M  V30 6 C 4.876244 -1.152994 -0.874423 0
M  V30 7 N 3.665071 -1.725583 -1.431837 0
M  V30 8 C 2.493088 -1.329876 -1.017239 0
M  V30 9 N 2.076095 -0.526797 -0.204507 0
M  V30 10 C 0.783375 -0.350633 -0.008675 0
M  V30 11 C 0.425640 0.661537 1.013185 0
M  V30 12 C 0.620859 0.392416 2.355502 0
M  V30 13 C 0.266889 1.378099 3.260248 0
M  V30 14 C -0.266325 2.605902 2.899119 0
M  V30 15 C -0.456797 2.861873 1.545165 0
M  V30 16 C -0.106270 1.884332 0.639518 0
M  V30 17 N -0.155209 -1.054234 -0.701686 0
M  V30 18 C -1.524321 -0.933185 -0.560103 0
M  V30 19 C -2.254975 -1.568265 0.441882 0
M  V30 20 C -3.624487 -1.359704 0.467692 0
M  V30 21 C -4.290499 -0.564807 -0.437957 0
M  V30 22 N -5.711001 -0.434849 -0.296826 0 CHG=1 VAL=4
M  V30 23 O -6.355626 0.273599 -1.092686 0
M  V30 24 O -6.427740 -1.065669 0.696414 0 CHG=-1 VAL=1
M  V30 25 C -3.556031 0.065210 -1.434077 0
M  V30 26 C -2.187807 -0.134855 -1.470853 0
M  V30 27 S 0.931466 -2.096966 -1.764918 0
M  V30 28 H 2.316859 -2.489115 4.090798 0
M  V30 29 H 2.038995 -3.113515 2.447143 0
M  V30 30 H 3.160862 -3.972410 3.538732 0
M  V30 31 H 4.968006 -2.726478 3.009038 0
M  V30 32 H 4.044266 -1.176100 3.183090 0
M  V30 33 H 5.707513 -1.730470 -1.292634 0
M  V30 34 H 5.008497 -0.086439 -1.144431 0
M  V30 35 H 1.034486 -0.551148 2.695170 0
M  V30 36 H 0.434709 1.130334 4.304050 0
M  V30 37 H -0.523284 3.332290 3.628633 0
M  V30 38 H -0.866103 3.803718 1.263675 0
M  V30 39 H -0.251918 2.075334 -0.427532 0
M  V30 40 H -1.736628 -2.196336 1.159189 0
M  V30 41 H -4.145238 -1.868947 1.256784 0
M  V30 42 H -4.094826 0.681985 -2.131932 0
M  V30 43 H -1.642393 0.375622 -2.266998 0
M  V30 END ATOM
M  V30 BEGIN BOND
M  V30 1 1 1 2
M  V30 2 1 2 3
M  V30 3 1 3 4
M  V30 4 2 4 5
M  V30 5 1 4 6
M  V30 6 1 6 7
M  V30 7 2 7 8
M  V30 8 1 8 9
M  V30 9 2 9 10
M  V30 10 1 10 11
M  V30 11 2 11 12
M  V30 12 1 12 13
M  V30 13 2 13 14
M  V30 14 1 14 15
M  V30 15 2 15 16
M  V30 16 1 10 17
M  V30 17 1 17 18
M  V30 18 2 18 19
M  V30 19 1 19 20
M  V30 20 2 20 21
M  V30 21 1 21 22
M  V30 22 2 22 23
M  V30 23 1 22 24
M  V30 24 1 21 25
M  V30 25 2 25 26
M  V30 26 1 17 27
M  V30 27 1 27 8
M  V30 28 1 16 11
M  V30 29 1 26 18
M  V30 30 1 1 28
M  V30 31 1 1 29
M  V30 32 1 1 30
M  V30 33 1 2 31
M  V30 34 1 2 32
M  V30 35 1 6 33
M  V30 36 1 6 34
M  V30 37 1 12 35
M  V30 38 1 13 36
M  V30 39 1 14 37
M  V30 40 1 15 38
M  V30 41 1 16 39
M  V30 42 1 19 40
M  V30 43 1 20 41
M  V30 44 1 25 42
M  V30 45 1 26 43
M  V30 END BOND
M  V30 END CTAB
M  END
>  <Dataset>  (549) 
ChEMBL_Kinases

>  <Ligand_Instance>  (549) 
nan

>  <PDB_ID>  (549) 
nan

>  <Standardized_SMILES>  (549) 
CCOC(=O)C/N=c1\nc(-c2ccccc2)n(-c2ccc([N+](=O)[O-])cc2)s1

>  <Name>  (549) 
nan

>  <Pocket>  (549) 
nan

>  <ATP_Site>  (549) 
nan

>  <Peripheral>  (549) 
nan

>  <Num_H_Atoms_ProtBoundConf>  (549) 
nan

>  <Num_Resolved_Atoms>  (549) 
nan

>  <Num_Not_Resolved_Atoms>  (549) 
nan

$$$$
CHEMBL2024367
     RDKit          3D

  0  0  0  0  0  0  0  0  0  0999 V3000
M  V30 BEGIN CTAB
M  V30 COUNTS 43 46 0 0 0
M  V30 BEGIN ATOM
M  V30 1 O 2.806764 -6.623785 4.251106 0
M  V30 2 N 2.630321 -5.448535 4.574951 0 CHG=1 VAL=4
M  V30 3 O 2.727899 -5.413092 5.941277 0 CHG=-1 VAL=1
M  V30 4 C 2.382537 -4.424040 3.618176 0
M  V30 5 C 2.193609 -3.126643 4.052561 0
M  V30 6 C 1.954311 -2.165895 3.063892 0
M  V30 7 C 1.893197 -2.413124 1.700815 0
M  V30 8 N 1.671856 -1.564185 0.696546 0
M  V30 9 S 2.772121 -0.860204 -0.631508 0
M  V30 10 C 1.402692 0.136057 -1.381997 0
M  V30 11 N 1.528924 0.906542 -2.419658 0
M  V30 12 C 0.373959 1.656650 -2.936915 0
M  V30 13 C 0.287591 2.985297 -2.273491 0
M  V30 14 C -0.427430 3.202883 -1.103147 0
M  V30 15 C -0.494355 4.445660 -0.503607 0
M  V30 16 C 0.177172 5.498246 -1.098922 0
M  V30 17 N 0.883439 5.320818 -2.239908 0
M  V30 18 C 0.934824 4.091988 -2.810321 0
M  V30 19 N 0.346402 -0.106915 -0.662648 0
M  V30 20 C 0.510546 -0.951935 0.358674 0
M  V30 21 C -0.739191 -1.172268 1.123610 0
M  V30 22 C -1.244428 -2.446276 1.322255 0
M  V30 23 C -2.402868 -2.695350 2.027142 0
M  V30 24 C -3.056877 -1.577471 2.542568 0
M  V30 25 C -2.612618 -0.275395 2.384872 0
M  V30 26 C -1.446220 -0.104882 1.667648 0
M  V30 27 C 2.099451 -3.760699 1.381749 0
M  V30 28 C 2.339872 -4.760884 2.296292 0
M  V30 29 H 2.220423 -2.823639 5.089244 0
M  V30 30 H 1.799135 -1.125114 3.364589 0
M  V30 31 H 0.630947 1.861959 -4.013680 0
M  V30 32 H -0.567171 1.086023 -2.857592 0
M  V30 33 H -0.950106 2.376179 -0.642762 0
M  V30 34 H -1.073342 4.544675 0.413148 0
M  V30 35 H 0.077350 6.449599 -0.566355 0
M  V30 36 H 1.509829 3.977904 -3.727065 0
M  V30 37 H -0.737911 -3.303842 0.923837 0
M  V30 38 H -2.806356 -3.683113 2.188549 0
M  V30 39 H -3.980372 -1.677905 3.113651 0
M  V30 40 H -3.151996 0.555736 2.801479 0
M  V30 41 H -1.057675 0.900213 1.517251 0
M  V30 42 H 2.077529 -4.094723 0.339691 0
M  V30 43 H 2.491184 -5.775893 2.002796 0
M  V30 END ATOM
M  V30 BEGIN BOND
M  V30 1 2 1 2
M  V30 2 1 2 3
M  V30 3 1 2 4
M  V30 4 2 4 5
M  V30 5 1 5 6
M  V30 6 2 6 7
M  V30 7 1 7 8
M  V30 8 1 8 9
M  V30 9 1 9 10
M  V30 10 2 10 11
M  V30 11 1 11 12
M  V30 12 1 12 13
M  V30 13 2 13 14
M  V30 14 1 14 15
M  V30 15 2 15 16
M  V30 16 1 16 17
M  V30 17 2 17 18
M  V30 18 1 10 19
M  V30 19 2 19 20
M  V30 20 1 20 21
M  V30 21 2 21 22
M  V30 22 1 22 23
M  V30 23 2 23 24
M  V30 24 1 24 25
M  V30 25 2 25 26
M  V30 26 1 7 27
M  V30 27 2 27 28
M  V30 28 1 28 4
M  V30 29 1 20 8
M  V30 30 1 26 21
M  V30 31 1 18 13
M  V30 32 1 5 29
M  V30 33 1 6 30
M  V30 34 1 12 31
M  V30 35 1 12 32
M  V30 36 1 14 33
M  V30 37 1 15 34
M  V30 38 1 16 35
M  V30 39 1 18 36
M  V30 40 1 22 37
M  V30 41 1 23 38
M  V30 42 1 24 39
M  V30 43 1 25 40
M  V30 44 1 26 41
M  V30 45 1 27 42
M  V30 46 1 28 43
M  V30 END BOND
M  V30 END CTAB
M  END
>  <Dataset>  (550) 
ChEMBL_Kinases

>  <Ligand_Instance>  (550) 
nan

>  <PDB_ID>  (550) 
nan

>  <Standardized_SMILES>  (550) 
O=[N+]([O-])c1ccc(-n2s/c(=N/Cc3cccnc3)nc2-c2ccccc2)cc1

>  <Name>  (550) 
nan

>  <Pocket>  (550) 
nan

>  <ATP_Site>  (550) 
nan

>  <Peripheral>  (550) 
nan

>  <Num_H_Atoms_ProtBoundConf>  (550) 
nan

>  <Num_Resolved_Atoms>  (550) 
nan

>  <Num_Not_Resolved_Atoms>  (550) 
nan

$$$$
CHEMBL2024366
     RDKit          3D

  0  0  0  0  0  0  0  0  0  0999 V3000
M  V30 BEGIN CTAB
M  V30 COUNTS 45 47 0 0 0
M  V30 BEGIN ATOM
M  V30 1 C 4.882647 -2.576451 -0.422720 0
M  V30 2 C 4.003701 -3.711244 -0.820572 0
M  V30 3 O 2.864673 -3.318363 -1.553803 0
M  V30 4 C 3.058434 -2.656249 -2.759059 0
M  V30 5 O 4.330953 -2.619273 -2.808111 0
M  V30 6 C 1.939325 -2.196690 -3.613648 0
M  V30 7 N 0.649767 -2.525646 -3.030524 0
M  V30 8 C 0.224043 -1.856041 -1.980877 0
M  V30 9 N 0.622919 -0.959488 -1.285866 0
M  V30 10 C -0.066125 -0.492358 -0.265498 0
M  V30 11 C 0.581582 0.614998 0.479130 0
M  V30 12 C 1.881080 0.586820 0.969259 0
M  V30 13 C 2.357882 1.675662 1.639536 0
M  V30 14 C 1.628727 2.818072 1.867200 0
M  V30 15 C 0.346689 2.846779 1.384074 0
M  V30 16 C -0.159784 1.755757 0.701341 0
M  V30 17 N -1.261691 -1.003169 0.049225 0
M  V30 18 C -2.066846 -0.539617 1.151029 0
M  V30 19 C -1.578002 -0.633126 2.436627 0
M  V30 20 C -2.322389 -0.199174 3.513027 0
M  V30 21 C -3.575005 0.337099 3.306015 0
M  V30 22 O -4.495210 0.832918 4.214501 0
M  V30 23 C -4.271277 0.866476 5.600725 0
M  V30 24 C -4.062952 0.429218 2.010278 0
M  V30 25 C -3.312057 -0.009506 0.914370 0
M  V30 26 S -1.448861 -2.249994 -1.187093 0
M  V30 27 H 5.189366 -2.732454 0.633678 0
M  V30 28 H 4.373544 -1.591273 -0.423968 0
M  V30 29 H 5.825728 -2.567600 -0.999433 0
M  V30 30 H 3.740896 -4.353020 0.046858 0
M  V30 31 H 4.580188 -4.375073 -1.498632 0
M  V30 32 H 2.011332 -1.110397 -3.843933 0
M  V30 33 H 1.975406 -2.754727 -4.571757 0
M  V30 34 H 2.447709 -0.322407 0.782720 0
M  V30 35 H 3.370475 1.662234 2.025329 0
M  V30 36 H 2.002634 3.683166 2.397867 0
M  V30 37 H -0.245523 3.743127 1.554954 0
M  V30 38 H -1.181767 1.882003 0.362312 0
M  V30 39 H -0.604701 -1.042291 2.675731 0
M  V30 40 H -2.046071 -0.221653 4.555834 0
M  V30 41 H -4.727027 -0.031730 6.084937 0
M  V30 42 H -3.203159 0.881018 5.822856 0
M  V30 43 H -4.751407 1.789261 6.014702 0
M  V30 44 H -5.029050 0.828525 1.702157 0
M  V30 45 H -3.651959 0.042876 -0.110634 0
M  V30 END ATOM
M  V30 BEGIN BOND
M  V30 1 1 1 2
M  V30 2 1 2 3
M  V30 3 1 3 4
M  V30 4 2 4 5
M  V30 5 1 4 6
M  V30 6 1 6 7
M  V30 7 2 7 8
M  V30 8 1 8 9
M  V30 9 2 9 10
M  V30 10 1 10 11
M  V30 11 2 11 12
M  V30 12 1 12 13
M  V30 13 2 13 14
M  V30 14 1 14 15
M  V30 15 2 15 16
M  V30 16 1 10 17
M  V30 17 1 17 18
M  V30 18 2 18 19
M  V30 19 1 19 20
M  V30 20 2 20 21
M  V30 21 1 21 22
M  V30 22 1 22 23
M  V30 23 1 21 24
M  V30 24 2 24 25
M  V30 25 1 17 26
M  V30 26 1 26 8
M  V30 27 1 16 11
M  V30 28 1 25 18
M  V30 29 1 1 27
M  V30 30 1 1 28
M  V30 31 1 1 29
M  V30 32 1 2 30
M  V30 33 1 2 31
M  V30 34 1 6 32
M  V30 35 1 6 33
M  V30 36 1 12 34
M  V30 37 1 13 35
M  V30 38 1 14 36
M  V30 39 1 15 37
M  V30 40 1 16 38
M  V30 41 1 19 39
M  V30 42 1 20 40
M  V30 43 1 23 41
M  V30 44 1 23 42
M  V30 45 1 23 43
M  V30 46 1 24 44
M  V30 47 1 25 45
M  V30 END BOND
M  V30 END CTAB
M  END
>  <Dataset>  (551) 
ChEMBL_Kinases

>  <Ligand_Instance>  (551) 
nan

>  <PDB_ID>  (551) 
nan

>  <Standardized_SMILES>  (551) 
CCOC(=O)C/N=c1\nc(-c2ccccc2)n(-c2ccc(OC)cc2)s1

>  <Name>  (551) 
nan

>  <Pocket>  (551) 
nan

>  <ATP_Site>  (551) 
nan

>  <Peripheral>  (551) 
nan

>  <Num_H_Atoms_ProtBoundConf>  (551) 
nan

>  <Num_Resolved_Atoms>  (551) 
nan

>  <Num_Not_Resolved_Atoms>  (551) 
nan

$$$$
CHEMBL2024365
     RDKit          3D

  0  0  0  0  0  0  0  0  0  0999 V3000
M  V30 BEGIN CTAB
M  V30 COUNTS 45 48 0 0 0
M  V30 BEGIN ATOM
M  V30 1 C -1.742103 -6.483532 2.418467 0
M  V30 2 O -1.028732 -6.222035 1.221751 0
M  V30 3 C -0.941041 -4.887788 0.824729 0
M  V30 4 C -0.229372 -4.711589 -0.352879 0
M  V30 5 C -0.067548 -3.426711 -0.859571 0
M  V30 6 C -0.627502 -2.357678 -0.164799 0
M  V30 7 N -0.448910 -1.102368 -0.692748 0
M  V30 8 S -0.838743 -0.375752 -2.347221 0
M  V30 9 C -0.159923 1.282334 -1.833203 0
M  V30 10 N -0.202829 2.237544 -2.723934 0
M  V30 11 C 0.315206 3.513712 -2.340432 0
M  V30 12 C 0.780270 3.539364 -0.932820 0
M  V30 13 C 2.080482 3.215313 -0.646953 0
M  V30 14 C 2.503082 3.243275 0.674914 0
M  V30 15 C 1.628253 3.588714 1.657295 0
M  V30 16 N 0.349459 3.906983 1.372030 0
M  V30 17 C -0.063464 3.882172 0.103595 0
M  V30 18 N 0.189005 1.124619 -0.751224 0
M  V30 19 C 0.098267 -0.026278 -0.067542 0
M  V30 20 C 0.589254 -0.089348 1.326345 0
M  V30 21 C 0.065263 0.651277 2.364503 0
M  V30 22 C 0.583214 0.532279 3.638164 0
M  V30 23 C 1.638713 -0.348396 3.839705 0
M  V30 24 C 2.180979 -1.102917 2.810102 0
M  V30 25 C 1.644460 -0.964348 1.548199 0
M  V30 26 C -1.336920 -2.525894 1.007658 0
M  V30 27 C -1.494612 -3.805598 1.506717 0
M  V30 28 H -1.797143 -7.551210 2.655999 0
M  V30 29 H -1.327494 -5.854181 3.228232 0
M  V30 30 H -2.782240 -6.106176 2.249475 0
M  V30 31 H 0.216931 -5.528034 -0.913476 0
M  V30 32 H 0.478227 -3.269475 -1.766917 0
M  V30 33 H -0.461517 4.294878 -2.490524 0
M  V30 34 H 1.149320 3.813643 -3.019943 0
M  V30 35 H 2.771088 2.939669 -1.449664 0
M  V30 36 H 3.532620 2.983594 0.872790 0
M  V30 37 H 1.928196 3.620741 2.707794 0
M  V30 38 H -1.069361 4.127559 -0.166563 0
M  V30 39 H -0.761728 1.320724 2.129438 0
M  V30 40 H 0.164397 1.118348 4.445851 0
M  V30 41 H 2.049430 -0.443414 4.847166 0
M  V30 42 H 3.006872 -1.774572 3.033242 0
M  V30 43 H 2.083477 -1.562329 0.762967 0
M  V30 44 H -1.782372 -1.716818 1.568295 0
M  V30 45 H -2.034078 -4.073304 2.425138 0
M  V30 END ATOM
M  V30 BEGIN BOND
M  V30 1 1 1 2
M  V30 2 1 2 3
M  V30 3 2 3 4
M  V30 4 1 4 5
M  V30 5 2 5 6
M  V30 6 1 6 7
M  V30 7 1 7 8
M  V30 8 1 8 9
M  V30 9 2 9 10
M  V30 10 1 10 11
M  V30 11 1 11 12
M  V30 12 2 12 13
M  V30 13 1 13 14
M  V30 14 2 14 15
M  V30 15 1 15 16
M  V30 16 2 16 17
M  V30 17 1 9 18
M  V30 18 2 18 19
M  V30 19 1 19 20
M  V30 20 2 20 21
M  V30 21 1 21 22
M  V30 22 2 22 23
M  V30 23 1 23 24
M  V30 24 2 24 25
M  V30 25 1 6 26
M  V30 26 2 26 27
M  V30 27 1 27 3
M  V30 28 1 19 7
M  V30 29 1 25 20
M  V30 30 1 17 12
M  V30 31 1 1 28
M  V30 32 1 1 29
M  V30 33 1 1 30
M  V30 34 1 4 31
M  V30 35 1 5 32
M  V30 36 1 11 33
M  V30 37 1 11 34
M  V30 38 1 13 35
M  V30 39 1 14 36
M  V30 40 1 15 37
M  V30 41 1 17 38
M  V30 42 1 21 39
M  V30 43 1 22 40
M  V30 44 1 23 41
M  V30 45 1 24 42
M  V30 46 1 25 43
M  V30 47 1 26 44
M  V30 48 1 27 45
M  V30 END BOND
M  V30 END CTAB
M  END
>  <Dataset>  (552) 
ChEMBL_Kinases

>  <Ligand_Instance>  (552) 
nan

>  <PDB_ID>  (552) 
nan

>  <Standardized_SMILES>  (552) 
COc1ccc(-n2s/c(=N/Cc3cccnc3)nc2-c2ccccc2)cc1

>  <Name>  (552) 
nan

>  <Pocket>  (552) 
nan

>  <ATP_Site>  (552) 
nan

>  <Peripheral>  (552) 
nan

>  <Num_H_Atoms_ProtBoundConf>  (552) 
nan

>  <Num_Resolved_Atoms>  (552) 
nan

>  <Num_Not_Resolved_Atoms>  (552) 
nan

$$$$
CHEMBL2024364
     RDKit          3D

  0  0  0  0  0  0  0  0  0  0999 V3000
M  V30 BEGIN CTAB
M  V30 COUNTS 45 48 0 0 0
M  V30 BEGIN ATOM
M  V30 1 C -0.211696 -4.705531 -0.445474 0
M  V30 2 C 0.417080 -4.531920 0.765104 0
M  V30 3 C 0.364085 -3.298390 1.363889 0
M  V30 4 C -0.293444 -2.207985 0.812126 0
M  V30 5 C -0.318219 -0.897149 1.504227 0
M  V30 6 N 0.103917 0.147914 0.812422 0
M  V30 7 C 0.127588 1.253021 1.270507 0
M  V30 8 N 0.480125 2.435642 0.839907 0
M  V30 9 C 0.983562 2.635643 -0.481895 0
M  V30 10 C 1.485272 1.411380 -1.173885 0
M  V30 11 C 2.154790 1.811485 -2.458588 0
M  V30 12 C 1.978520 3.274760 -2.802707 0
M  V30 13 C 2.477499 4.169033 -1.685657 0
M  V30 14 C 2.164560 3.604753 -0.328305 0
M  V30 15 S -0.532883 1.048363 3.032075 0
M  V30 16 N -0.747596 -0.736207 2.789024 0
M  V30 17 C -1.213701 -1.783249 3.603658 0
M  V30 18 C -2.366688 -2.489159 3.298830 0
M  V30 19 C -2.788108 -3.515791 4.133853 0
M  V30 20 C -2.035869 -3.803763 5.254431 0
M  V30 21 C -0.882096 -3.129754 5.599344 0
M  V30 22 C -0.503746 -2.118333 4.739193 0
M  V30 23 C -0.916467 -2.419468 -0.409530 0
M  V30 24 C -0.875935 -3.651346 -1.029452 0
M  V30 25 H -0.180830 -5.667969 -0.931212 0
M  V30 26 H 0.942443 -5.356739 1.232016 0
M  V30 27 H 0.868296 -3.193931 2.315110 0
M  V30 28 H 0.261822 3.120235 -1.167574 0
M  V30 29 H 2.219390 0.827578 -0.562445 0
M  V30 30 H 0.587550 0.776453 -1.431786 0
M  V30 31 H 1.735412 1.243579 -3.318279 0
M  V30 32 H 3.255023 1.635395 -2.467870 0
M  V30 33 H 2.616875 3.475100 -3.681306 0
M  V30 34 H 0.931558 3.541128 -3.065720 0
M  V30 35 H 1.937855 5.134206 -1.787573 0
M  V30 36 H 3.562051 4.373865 -1.768033 0
M  V30 37 H 2.978182 3.043056 0.138815 0
M  V30 38 H 1.769005 4.406952 0.358441 0
M  V30 39 H -2.936068 -2.228643 2.398269 0
M  V30 40 H -3.701058 -4.089603 3.910784 0
M  V30 41 H -2.360955 -4.604298 5.909138 0
M  V30 42 H -0.307959 -3.369915 6.479680 0
M  V30 43 H 0.416512 -1.579148 5.012327 0
M  V30 44 H -1.441486 -1.574186 -0.864328 0
M  V30 45 H -1.375332 -3.790069 -1.991407 0
M  V30 END ATOM
M  V30 BEGIN BOND
M  V30 1 2 1 2
M  V30 2 1 2 3
M  V30 3 2 3 4
M  V30 4 1 4 5
M  V30 5 2 5 6
M  V30 6 1 6 7
M  V30 7 2 7 8
M  V30 8 1 8 9
M  V30 9 1 9 10
M  V30 10 1 10 11
M  V30 11 1 11 12
M  V30 12 1 12 13
M  V30 13 1 13 14
M  V30 14 1 7 15
M  V30 15 1 15 16
M  V30 16 1 16 17
M  V30 17 2 17 18
M  V30 18 1 18 19
M  V30 19 2 19 20
M  V30 20 1 20 21
M  V30 21 2 21 22
M  V30 22 1 4 23
M  V30 23 2 23 24
M  V30 24 1 24 1
M  V30 25 1 16 5
M  V30 26 1 22 17
M  V30 27 1 14 9
M  V30 28 1 1 25
M  V30 29 1 2 26
M  V30 30 1 3 27
M  V30 31 1 9 28
M  V30 32 1 10 29
M  V30 33 1 10 30
M  V30 34 1 11 31
M  V30 35 1 11 32
M  V30 36 1 12 33
M  V30 37 1 12 34
M  V30 38 1 13 35
M  V30 39 1 13 36
M  V30 40 1 14 37
M  V30 41 1 14 38
M  V30 42 1 18 39
M  V30 43 1 19 40
M  V30 44 1 20 41
M  V30 45 1 21 42
M  V30 46 1 22 43
M  V30 47 1 23 44
M  V30 48 1 24 45
M  V30 END BOND
M  V30 END CTAB
M  END
>  <Dataset>  (553) 
ChEMBL_Kinases

>  <Ligand_Instance>  (553) 
nan

>  <PDB_ID>  (553) 
nan

>  <Standardized_SMILES>  (553) 
c1ccc(-c2n/c(=N\C3CCCCC3)sn2-c2ccccc2)cc1

>  <Name>  (553) 
nan

>  <Pocket>  (553) 
nan

>  <ATP_Site>  (553) 
nan

>  <Peripheral>  (553) 
nan

>  <Num_H_Atoms_ProtBoundConf>  (553) 
nan

>  <Num_Resolved_Atoms>  (553) 
nan

>  <Num_Not_Resolved_Atoms>  (553) 
nan

$$$$
CHEMBL2023295
     RDKit          3D

  0  0  0  0  0  0  0  0  0  0999 V3000
M  V30 BEGIN CTAB
M  V30 COUNTS 70 75 0 0 0
M  V30 BEGIN ATOM
M  V30 1 C 4.715860 -3.774305 4.376003 0
M  V30 2 C 3.737419 -3.448319 3.309087 0
M  V30 3 C 3.315694 -2.199618 2.914821 0
M  V30 4 N 2.429544 -1.982101 1.943720 0
M  V30 5 C 1.899939 -0.869985 1.418971 0
M  V30 6 C 2.115749 0.525046 1.729869 0
M  V30 7 C 2.863331 1.269275 2.602503 0
M  V30 8 N 2.670535 2.593549 2.441810 0
M  V30 9 N 1.792132 2.769878 1.461026 0
M  V30 10 C 1.300183 4.030448 0.950950 0
M  V30 11 C 0.090915 4.510583 1.661908 0
M  V30 12 O -0.509433 5.573470 1.320458 0
M  V30 13 N -0.360548 3.716261 2.750529 0
M  V30 14 C -1.525004 4.022371 3.564348 0
M  V30 15 C -2.807178 3.674697 2.885351 0
M  V30 16 C -3.275154 2.377027 3.121669 0
M  V30 17 C -4.436255 1.848497 2.595090 0
M  V30 18 C -5.183442 2.663329 1.777696 0
M  V30 19 F -6.340439 2.212767 1.219920 0
M  V30 20 C -4.750562 3.969447 1.515336 0
M  V30 21 C -3.583639 4.460868 2.061426 0
M  V30 22 C 1.462857 1.549553 1.039566 0
M  V30 23 C 1.059128 -1.355379 0.454139 0
M  V30 24 N 1.100086 -2.694577 0.421705 0
M  V30 25 C 1.965989 -3.100796 1.362646 0
M  V30 26 C 2.331470 -4.384417 1.691821 0
M  V30 27 N 1.796779 -5.528914 1.031375 0
M  V30 28 C 0.789049 -5.308245 0.022511 0
M  V30 29 C 0.789157 -4.962569 -1.331335 0
M  V30 30 C -0.449073 -4.885938 -1.876035 0
M  V30 31 C -0.659450 -4.529147 -3.303454 0
M  V30 32 N -0.787657 -3.092343 -3.469270 0
M  V30 33 C -1.906035 -2.642447 -2.676145 0
M  V30 34 C -1.987049 -1.149754 -2.783044 0
M  V30 35 C -1.986383 -0.586836 -4.149864 0
M  V30 36 C -1.396914 -1.436496 -5.209251 0
M  V30 37 C -1.118094 -2.841201 -4.855754 0
M  V30 38 N -1.621069 -5.140579 -1.110388 0
M  V30 39 S -0.811734 -5.515355 0.518311 0
M  V30 40 N 3.243818 -4.537842 2.696012 0
M  V30 41 H 5.638898 -4.252419 3.991081 0
M  V30 42 H 5.027852 -2.869772 4.905645 0
M  V30 43 H 4.193693 -4.458553 5.080402 0
M  V30 44 H 3.744367 -1.368936 3.439222 0
M  V30 45 H 3.529483 0.862642 3.334234 0
M  V30 46 H 1.036013 3.955841 -0.125082 0
M  V30 47 H 2.101998 4.780389 1.101260 0
M  V30 48 H 0.155535 2.831841 3.023872 0
M  V30 49 H -1.507914 3.516168 4.531642 0
M  V30 50 H -1.533502 5.131532 3.668105 0
M  V30 51 H -2.707758 1.696171 3.762684 0
M  V30 52 H -4.736768 0.828767 2.827195 0
M  V30 53 H -5.309178 4.638061 0.878821 0
M  V30 54 H -3.188387 5.453574 1.905394 0
M  V30 55 H 0.736456 1.431545 0.218644 0
M  V30 56 H 0.414761 -0.793067 -0.230156 0
M  V30 57 H 2.151275 -6.460431 1.302575 0
M  V30 58 H 1.725655 -4.791561 -1.817149 0
M  V30 59 H -1.509718 -5.098345 -3.728069 0
M  V30 60 H 0.222790 -4.883005 -3.919948 0
M  V30 61 H -1.639869 -2.862908 -1.616801 0
M  V30 62 H -2.847589 -3.175339 -2.868270 0
M  V30 63 H -2.914979 -0.859824 -2.207824 0
M  V30 64 H -1.158849 -0.729120 -2.155526 0
M  V30 65 H -3.036956 -0.244281 -4.389045 0
M  V30 66 H -1.428273 0.393458 -4.086562 0
M  V30 67 H -0.494204 -0.939805 -5.654761 0
M  V30 68 H -2.133911 -1.439911 -6.068216 0
M  V30 69 H -0.251835 -3.203835 -5.456676 0
M  V30 70 H -1.971839 -3.523104 -5.124221 0
M  V30 END ATOM
M  V30 BEGIN BOND
M  V30 1 1 1 2
M  V30 2 2 2 3
M  V30 3 1 3 4
M  V30 4 1 4 5
M  V30 5 1 5 6
M  V30 6 1 6 7
M  V30 7 2 7 8
M  V30 8 1 8 9
M  V30 9 1 9 10
M  V30 10 1 10 11
M  V30 11 2 11 12
M  V30 12 1 11 13
M  V30 13 1 13 14
M  V30 14 1 14 15
M  V30 15 2 15 16
M  V30 16 1 16 17
M  V30 17 2 17 18
M  V30 18 1 18 19
M  V30 19 1 18 20
M  V30 20 2 20 21
M  V30 21 1 9 22
M  V30 22 2 5 23
M  V30 23 1 23 24
M  V30 24 2 24 25
M  V30 25 1 25 26
M  V30 26 1 26 27
M  V30 27 1 27 28
M  V30 28 2 28 29
M  V30 29 1 29 30
M  V30 30 1 30 31
M  V30 31 1 31 32
M  V30 32 1 32 33
M  V30 33 1 33 34
M  V30 34 1 34 35
M  V30 35 1 35 36
M  V30 36 1 36 37
M  V30 37 2 30 38
M  V30 38 1 38 39
M  V30 39 2 26 40
M  V30 40 1 40 2
M  V30 41 1 25 4
M  V30 42 1 39 28
M  V30 43 2 22 6
M  V30 44 1 37 32
M  V30 45 1 21 15
M  V30 46 1 1 41
M  V30 47 1 1 42
M  V30 48 1 1 43
M  V30 49 1 3 44
M  V30 50 1 7 45
M  V30 51 1 10 46
M  V30 52 1 10 47
M  V30 53 1 13 48
M  V30 54 1 14 49
M  V30 55 1 14 50
M  V30 56 1 16 51
M  V30 57 1 17 52
M  V30 58 1 20 53
M  V30 59 1 21 54
M  V30 60 1 22 55
M  V30 61 1 23 56
M  V30 62 1 27 57
M  V30 63 1 29 58
M  V30 64 1 31 59
M  V30 65 1 31 60
M  V30 66 1 33 61
M  V30 67 1 33 62
M  V30 68 1 34 63
M  V30 69 1 34 64
M  V30 70 1 35 65
M  V30 71 1 35 66
M  V30 72 1 36 67
M  V30 73 1 36 68
M  V30 74 1 37 69
M  V30 75 1 37 70
M  V30 END BOND
M  V30 END CTAB
M  END
>  <Dataset>  (554) 
ChEMBL_Kinases

>  <Ligand_Instance>  (554) 
nan

>  <PDB_ID>  (554) 
nan

>  <Standardized_SMILES>  (554) 
Cc1cn2c(-c3cnn(CC(=O)NCc4ccc(F)cc4)c3)cnc2c(Nc2cc(CN3CCCCC3)ns2)n1

>  <Name>  (554) 
nan

>  <Pocket>  (554) 
nan

>  <ATP_Site>  (554) 
nan

>  <Peripheral>  (554) 
nan

>  <Num_H_Atoms_ProtBoundConf>  (554) 
nan

>  <Num_Resolved_Atoms>  (554) 
nan

>  <Num_Not_Resolved_Atoms>  (554) 
nan

$$$$
CHEMBL2023296
     RDKit          3D

  0  0  0  0  0  0  0  0  0  0999 V3000
M  V30 BEGIN CTAB
M  V30 COUNTS 70 75 0 0 0
M  V30 BEGIN ATOM
M  V30 1 C 5.299180 -2.601526 2.299234 0
M  V30 2 C 3.920016 -3.005980 1.928919 0
M  V30 3 C 3.323554 -2.635004 0.744982 0
M  V30 4 N 2.086737 -2.956196 0.337152 0
M  V30 5 C 1.423826 -2.648704 -0.784074 0
M  V30 6 C 1.757655 -1.885651 -1.945418 0
M  V30 7 C 2.815599 -1.173257 -2.413975 0
M  V30 8 N 2.598044 -0.633271 -3.611671 0
M  V30 9 N 1.362302 -0.968504 -4.000971 0
M  V30 10 C 0.788740 -0.557883 -5.247434 0
M  V30 11 C 0.061006 0.733695 -5.149534 0
M  V30 12 O -0.495047 1.223245 -6.174596 0
M  V30 13 N 0.033432 1.358064 -3.873413 0
M  V30 14 C -0.655154 2.620999 -3.685989 0
M  V30 15 C -2.098584 2.552866 -4.006664 0
M  V30 16 C -2.656750 3.064761 -5.166216 0
M  V30 17 C -4.009166 2.964951 -5.397254 0
M  V30 18 C -4.856615 2.362661 -4.503629 0
M  V30 19 C -4.315635 1.848034 -3.344096 0
M  V30 20 F -5.196352 1.265239 -2.496159 0
M  V30 21 C -2.942594 1.943471 -3.098317 0
M  V30 22 F -2.569480 1.399836 -1.936352 0
M  V30 23 C 0.863445 -1.714426 -3.007031 0
M  V30 24 C 0.200349 -3.292828 -0.576921 0
M  V30 25 N 0.217506 -3.917624 0.611480 0
M  V30 26 C 1.407157 -3.715671 1.207566 0
M  V30 27 C 1.910479 -4.139820 2.415197 0
M  V30 28 N 1.061883 -4.939264 3.234039 0
M  V30 29 C 0.251978 -4.179064 4.196706 0
M  V30 30 C 0.253381 -2.859493 4.361074 0
M  V30 31 C -0.603785 -2.419017 5.337050 0
M  V30 32 C -0.827835 -0.988173 5.757424 0
M  V30 33 N -1.843687 -0.333978 5.060943 0
M  V30 34 C -2.126147 1.013225 5.382871 0
M  V30 35 C -1.587447 1.885661 4.272217 0
M  V30 36 C -0.815313 1.129594 3.245397 0
M  V30 37 C -1.456515 -0.108980 2.725210 0
M  V30 38 C -2.247984 -0.809056 3.808779 0
M  V30 39 N -1.411710 -3.328835 6.090188 0
M  V30 40 S -0.834250 -4.901463 5.272432 0
M  V30 41 N 3.180746 -3.768574 2.756284 0
M  V30 42 H 5.931566 -3.469656 2.554155 0
M  V30 43 H 5.195809 -2.003313 3.245823 0
M  V30 44 H 5.741805 -2.002407 1.485201 0
M  V30 45 H 3.947696 -2.028328 0.116532 0
M  V30 46 H 3.745305 -1.037343 -1.901531 0
M  V30 47 H 0.047762 -1.318132 -5.607329 0
M  V30 48 H 1.537736 -0.453701 -6.058147 0
M  V30 49 H 0.518954 0.901667 -3.045581 0
M  V30 50 H -0.179360 3.441705 -4.276128 0
M  V30 51 H -0.586505 2.943980 -2.630469 0
M  V30 52 H -1.964201 3.532475 -5.849248 0
M  V30 53 H -4.402326 3.381516 -6.320307 0
M  V30 54 H -5.913463 2.299827 -4.713986 0
M  V30 55 H -0.156835 -2.097932 -3.127577 0
M  V30 56 H -0.689129 -3.340873 -1.216032 0
M  V30 57 H 0.995831 -5.972052 3.182496 0
M  V30 58 H 0.838024 -2.135649 3.822758 0
M  V30 59 H 0.142035 -0.453006 5.524943 0
M  V30 60 H -0.925622 -0.891504 6.852360 0
M  V30 61 H -1.740036 1.299782 6.379830 0
M  V30 62 H -3.225897 1.149726 5.404469 0
M  V30 63 H -2.368852 2.511975 3.819729 0
M  V30 64 H -0.850274 2.589370 4.760099 0
M  V30 65 H -0.700837 1.829098 2.365187 0
M  V30 66 H 0.238318 0.968268 3.596905 0
M  V30 67 H -2.046648 0.045710 1.800865 0
M  V30 68 H -0.641699 -0.821646 2.418902 0
M  V30 69 H -2.160606 -1.907658 3.768263 0
M  V30 70 H -3.313745 -0.480278 3.640894 0
M  V30 END ATOM
M  V30 BEGIN BOND
M  V30 1 1 1 2
M  V30 2 2 2 3
M  V30 3 1 3 4
M  V30 4 1 4 5
M  V30 5 1 5 6
M  V30 6 1 6 7
M  V30 7 2 7 8
M  V30 8 1 8 9
M  V30 9 1 9 10
M  V30 10 1 10 11
M  V30 11 2 11 12
M  V30 12 1 11 13
M  V30 13 1 13 14
M  V30 14 1 14 15
M  V30 15 2 15 16
M  V30 16 1 16 17
M  V30 17 2 17 18
M  V30 18 1 18 19
M  V30 19 1 19 20
M  V30 20 2 19 21
M  V30 21 1 21 22
M  V30 22 1 9 23
M  V30 23 2 5 24
M  V30 24 1 24 25
M  V30 25 2 25 26
M  V30 26 1 26 27
M  V30 27 1 27 28
M  V30 28 1 28 29
M  V30 29 2 29 30
M  V30 30 1 30 31
M  V30 31 1 31 32
M  V30 32 1 32 33
M  V30 33 1 33 34
M  V30 34 1 34 35
M  V30 35 1 35 36
M  V30 36 1 36 37
M  V30 37 1 37 38
M  V30 38 2 31 39
M  V30 39 1 39 40
M  V30 40 2 27 41
M  V30 41 1 41 2
M  V30 42 1 26 4
M  V30 43 1 40 29
M  V30 44 2 23 6
M  V30 45 1 38 33
M  V30 46 1 21 15
M  V30 47 1 1 42
M  V30 48 1 1 43
M  V30 49 1 1 44
M  V30 50 1 3 45
M  V30 51 1 7 46
M  V30 52 1 10 47
M  V30 53 1 10 48
M  V30 54 1 13 49
M  V30 55 1 14 50
M  V30 56 1 14 51
M  V30 57 1 16 52
M  V30 58 1 17 53
M  V30 59 1 18 54
M  V30 60 1 23 55
M  V30 61 1 24 56
M  V30 62 1 28 57
M  V30 63 1 30 58
M  V30 64 1 32 59
M  V30 65 1 32 60
M  V30 66 1 34 61
M  V30 67 1 34 62
M  V30 68 1 35 63
M  V30 69 1 35 64
M  V30 70 1 36 65
M  V30 71 1 36 66
M  V30 72 1 37 67
M  V30 73 1 37 68
M  V30 74 1 38 69
M  V30 75 1 38 70
M  V30 END BOND
M  V30 END CTAB
M  END
>  <Dataset>  (555) 
ChEMBL_Kinases

>  <Ligand_Instance>  (555) 
nan

>  <PDB_ID>  (555) 
nan

>  <Standardized_SMILES>  (555) 
Cc1cn2c(-c3cnn(CC(=O)NCc4cccc(F)c4F)c3)cnc2c(Nc2cc(CN3CCCCC3)ns2)n1

>  <Name>  (555) 
nan

>  <Pocket>  (555) 
nan

>  <ATP_Site>  (555) 
nan

>  <Peripheral>  (555) 
nan

>  <Num_H_Atoms_ProtBoundConf>  (555) 
nan

>  <Num_Resolved_Atoms>  (555) 
nan

>  <Num_Not_Resolved_Atoms>  (555) 
nan

$$$$
CHEMBL2023297
     RDKit          3D

  0  0  0  0  0  0  0  0  0  0999 V3000
M  V30 BEGIN CTAB
M  V30 COUNTS 70 75 0 0 0
M  V30 BEGIN ATOM
M  V30 1 C 4.294540 -0.243360 0.880729 0
M  V30 2 C 3.352495 -1.410693 0.890131 0
M  V30 3 C 2.584561 -1.737924 -0.206799 0
M  V30 4 N 1.724328 -2.765887 -0.268558 0
M  V30 5 C 0.943021 -3.145769 -1.284379 0
M  V30 6 C 0.698983 -2.673131 -2.618524 0
M  V30 7 C -0.222633 -3.292888 -3.470324 0
M  V30 8 N -0.265501 -2.662351 -4.661317 0
M  V30 9 N 0.581520 -1.648889 -4.654127 0
M  V30 10 C 0.857977 -0.698021 -5.717864 0
M  V30 11 C 0.019347 0.499171 -5.675998 0
M  V30 12 O 0.560684 1.440531 -5.003913 0
M  V30 13 N -1.251198 0.710559 -6.266225 0
M  V30 14 C -2.034069 1.926494 -6.187086 0
M  V30 15 C -2.682224 2.075519 -4.867933 0
M  V30 16 C -3.934206 1.494260 -4.779722 0
M  V30 17 C -4.693935 1.533005 -3.626121 0
M  V30 18 F -5.911576 0.998959 -3.451945 0
M  V30 19 C -4.199142 2.177914 -2.494569 0
M  V30 20 C -2.937077 2.758939 -2.596848 0
M  V30 21 F -2.403955 3.405786 -1.512313 0
M  V30 22 C -2.198761 2.710122 -3.749374 0
M  V30 23 C 1.144050 -1.670084 -3.436814 0
M  V30 24 C 0.282742 -4.253779 -0.757551 0
M  V30 25 N 0.712679 -4.449214 0.513231 0
M  V30 26 C 1.623769 -3.511230 0.826885 0
M  V30 27 C 2.351445 -3.259460 1.969415 0
M  V30 28 N 2.241917 -4.067374 3.131889 0
M  V30 29 C 1.108587 -3.683426 3.999367 0
M  V30 30 C 0.191604 -2.674745 3.736877 0
M  V30 31 C -0.750474 -2.520840 4.683926 0
M  V30 32 C -1.899521 -1.569441 4.766307 0
M  V30 33 N -1.547635 -0.367509 5.400575 0
M  V30 34 C -1.060203 -0.369980 6.712562 0
M  V30 35 C -0.184032 0.798323 7.073671 0
M  V30 36 C 0.678572 1.309327 5.973708 0
M  V30 37 C 0.196285 1.035783 4.588014 0
M  V30 38 C -1.299304 0.790333 4.644749 0
M  V30 39 N -0.729614 -3.430751 5.914031 0
M  V30 40 S 0.659055 -4.407192 5.551610 0
M  V30 41 N 3.213067 -2.197718 1.975324 0
M  V30 42 H 3.854616 0.502308 1.591418 0
M  V30 43 H 4.258316 0.217769 -0.122879 0
M  V30 44 H 5.298657 -0.487137 1.229481 0
M  V30 45 H 2.716574 -1.100624 -1.042738 0
M  V30 46 H -0.873777 -4.146749 -3.345127 0
M  V30 47 H 1.929002 -0.463166 -5.793751 0
M  V30 48 H 0.609398 -1.224602 -6.681629 0
M  V30 49 H -1.601108 -0.134176 -6.796477 0
M  V30 50 H -2.774737 1.935376 -7.003287 0
M  V30 51 H -1.380398 2.829449 -6.357700 0
M  V30 52 H -4.427448 0.967967 -5.581260 0
M  V30 53 H -4.684471 2.280384 -1.536583 0
M  V30 54 H -1.234093 3.150239 -3.846253 0
M  V30 55 H 1.883646 -0.947491 -3.149041 0
M  V30 56 H -0.456012 -4.938379 -1.145918 0
M  V30 57 H 2.797377 -4.873723 3.497860 0
M  V30 58 H 0.143634 -2.019333 2.891834 0
M  V30 59 H -2.827680 -2.042727 5.153332 0
M  V30 60 H -2.162128 -1.334329 3.688981 0
M  V30 61 H -1.949977 -0.322183 7.409142 0
M  V30 62 H -0.566077 -1.338965 7.021162 0
M  V30 63 H 0.516041 0.434352 7.883128 0
M  V30 64 H -0.775621 1.590989 7.576362 0
M  V30 65 H 0.683883 2.434815 6.077373 0
M  V30 66 H 1.755372 1.016461 6.094068 0
M  V30 67 H 0.424004 1.847250 3.863981 0
M  V30 68 H 0.747907 0.123488 4.236538 0
M  V30 69 H -1.737579 0.788775 3.624570 0
M  V30 70 H -1.701716 1.666269 5.237224 0
M  V30 END ATOM
M  V30 BEGIN BOND
M  V30 1 1 1 2
M  V30 2 2 2 3
M  V30 3 1 3 4
M  V30 4 1 4 5
M  V30 5 1 5 6
M  V30 6 1 6 7
M  V30 7 2 7 8
M  V30 8 1 8 9
M  V30 9 1 9 10
M  V30 10 1 10 11
M  V30 11 2 11 12
M  V30 12 1 11 13
M  V30 13 1 13 14
M  V30 14 1 14 15
M  V30 15 2 15 16
M  V30 16 1 16 17
M  V30 17 1 17 18
M  V30 18 2 17 19
M  V30 19 1 19 20
M  V30 20 1 20 21
M  V30 21 2 20 22
M  V30 22 1 9 23
M  V30 23 2 5 24
M  V30 24 1 24 25
M  V30 25 2 25 26
M  V30 26 1 26 27
M  V30 27 1 27 28
M  V30 28 1 28 29
M  V30 29 2 29 30
M  V30 30 1 30 31
M  V30 31 1 31 32
M  V30 32 1 32 33
M  V30 33 1 33 34
M  V30 34 1 34 35
M  V30 35 1 35 36
M  V30 36 1 36 37
M  V30 37 1 37 38
M  V30 38 2 31 39
M  V30 39 1 39 40
M  V30 40 2 27 41
M  V30 41 1 41 2
M  V30 42 1 26 4
M  V30 43 1 40 29
M  V30 44 2 23 6
M  V30 45 1 38 33
M  V30 46 1 22 15
M  V30 47 1 1 42
M  V30 48 1 1 43
M  V30 49 1 1 44
M  V30 50 1 3 45
M  V30 51 1 7 46
M  V30 52 1 10 47
M  V30 53 1 10 48
M  V30 54 1 13 49
M  V30 55 1 14 50
M  V30 56 1 14 51
M  V30 57 1 16 52
M  V30 58 1 19 53
M  V30 59 1 22 54
M  V30 60 1 23 55
M  V30 61 1 24 56
M  V30 62 1 28 57
M  V30 63 1 30 58
M  V30 64 1 32 59
M  V30 65 1 32 60
M  V30 66 1 34 61
M  V30 67 1 34 62
M  V30 68 1 35 63
M  V30 69 1 35 64
M  V30 70 1 36 65
M  V30 71 1 36 66
M  V30 72 1 37 67
M  V30 73 1 37 68
M  V30 74 1 38 69
M  V30 75 1 38 70
M  V30 END BOND
M  V30 END CTAB
M  END
>  <Dataset>  (556) 
ChEMBL_Kinases

>  <Ligand_Instance>  (556) 
nan

>  <PDB_ID>  (556) 
nan

>  <Standardized_SMILES>  (556) 
Cc1cn2c(-c3cnn(CC(=O)NCc4cc(F)cc(F)c4)c3)cnc2c(Nc2cc(CN3CCCCC3)ns2)n1

>  <Name>  (556) 
nan

>  <Pocket>  (556) 
nan

>  <ATP_Site>  (556) 
nan

>  <Peripheral>  (556) 
nan

>  <Num_H_Atoms_ProtBoundConf>  (556) 
nan

>  <Num_Resolved_Atoms>  (556) 
nan

>  <Num_Not_Resolved_Atoms>  (556) 
nan

$$$$
CHEMBL2023301
     RDKit          3D

  0  0  0  0  0  0  0  0  0  0999 V3000
M  V30 BEGIN CTAB
M  V30 COUNTS 77 82 0 0 0
M  V30 BEGIN ATOM
M  V30 1 C 6.853958 -4.921864 2.526483 0
M  V30 2 O 7.219366 -3.816513 1.730428 0
M  V30 3 C 7.645232 -3.955717 0.414799 0
M  V30 4 C 7.749249 -5.180678 -0.241385 0
M  V30 5 C 8.185155 -5.169576 -1.546033 0
M  V30 6 C 8.502579 -3.994091 -2.164882 0
M  V30 7 C 8.414135 -2.764125 -1.551243 0
M  V30 8 C 8.795085 -1.566918 -2.314047 0
M  V30 9 N 7.704852 -0.975119 -3.058265 0
M  V30 10 C 6.633834 -0.179566 -2.564232 0
M  V30 11 O 6.620696 0.039777 -1.309327 0
M  V30 12 C 5.581538 0.371593 -3.462328 0
M  V30 13 N 4.643587 1.119578 -2.657541 0
M  V30 14 C 3.518235 0.706846 -2.063691 0
M  V30 15 C 2.844421 1.662757 -1.357485 0
M  V30 16 C 1.630221 1.754781 -0.580021 0
M  V30 17 C 1.207354 2.932686 0.052167 0
M  V30 18 N 0.046310 2.704724 0.685086 0
M  V30 19 C -0.306971 1.427190 0.492160 0
M  V30 20 C -1.402278 0.722778 0.926277 0
M  V30 21 N -2.408312 1.305821 1.733468 0
M  V30 22 C -3.535428 0.546242 2.102867 0
M  V30 23 C -4.618250 0.917714 2.917191 0
M  V30 24 C -5.546558 -0.051283 3.065064 0
M  V30 25 C -6.789618 0.035965 3.857201 0
M  V30 26 N -7.933130 0.508733 3.151435 0
M  V30 27 C -7.902529 1.827261 2.649194 0
M  V30 28 C -8.705665 1.987057 1.365364 0
M  V30 29 C -8.122294 1.040087 0.340848 0
M  V30 30 C -8.309769 -0.363012 0.858469 0
M  V30 31 C -9.565793 -0.913754 0.169627 0
M  V30 32 C -8.569407 -0.464578 2.321336 0
M  V30 33 N -5.419464 -1.321480 2.445275 0
M  V30 34 S -3.796532 -1.126958 1.546189 0
M  V30 35 N -1.498503 -0.571935 0.563795 0
M  V30 36 C -0.550359 -1.182481 -0.208372 0
M  V30 37 C -0.752872 -2.593425 -0.549443 0
M  V30 38 C 0.497061 -0.384363 -0.582119 0
M  V30 39 N 0.666160 0.896011 -0.268330 0
M  V30 40 C 3.692160 2.763498 -1.574199 0
M  V30 41 N 4.732531 2.400007 -2.341169 0
M  V30 42 C 7.971952 -2.756543 -0.226423 0
M  V30 43 H 6.993138 -4.604175 3.580256 0
M  V30 44 H 5.826523 -5.258018 2.391274 0
M  V30 45 H 7.516085 -5.802920 2.301633 0
M  V30 46 H 7.490274 -6.080597 0.288546 0
M  V30 47 H 8.252435 -6.149535 -2.023394 0
M  V30 48 H 8.836933 -4.108082 -3.196365 0
M  V30 49 H 9.578600 -1.866356 -3.057416 0
M  V30 50 H 9.230303 -0.834565 -1.590597 0
M  V30 51 H 7.648812 -1.119411 -4.101946 0
M  V30 52 H 6.005113 1.042457 -4.238171 0
M  V30 53 H 5.034040 -0.470175 -3.925944 0
M  V30 54 H 3.193793 -0.312175 -2.154936 0
M  V30 55 H 1.641807 3.917668 0.100757 0
M  V30 56 H -2.370459 2.284805 2.082966 0
M  V30 57 H -4.709457 1.877517 3.386111 0
M  V30 58 H -6.649729 0.762996 4.718738 0
M  V30 59 H -7.063282 -0.907680 4.366925 0
M  V30 60 H -8.460822 2.473288 3.390850 0
M  V30 61 H -6.904887 2.298606 2.547121 0
M  V30 62 H -8.669588 3.027360 1.045916 0
M  V30 63 H -9.729959 1.661447 1.589537 0
M  V30 64 H -8.673595 1.201087 -0.605241 0
M  V30 65 H -7.056643 1.302972 0.127145 0
M  V30 66 H -7.455091 -1.002154 0.550148 0
M  V30 67 H -9.874116 -1.877439 0.614523 0
M  V30 68 H -9.453293 -0.980278 -0.918121 0
M  V30 69 H -10.397812 -0.187653 0.395206 0
M  V30 70 H -8.168393 -1.465114 2.653886 0
M  V30 71 H -9.647471 -0.478699 2.572859 0
M  V30 72 H -0.333180 -2.775674 -1.574483 0
M  V30 73 H -1.855068 -2.787331 -0.599794 0
M  V30 74 H -0.267447 -3.220668 0.225649 0
M  V30 75 H 1.233518 -0.875047 -1.188465 0
M  V30 76 H 3.606175 3.783856 -1.221812 0
M  V30 77 H 7.892543 -1.800429 0.278128 0
M  V30 END ATOM
M  V30 BEGIN BOND
M  V30 1 1 1 2
M  V30 2 1 2 3
M  V30 3 2 3 4
M  V30 4 1 4 5
M  V30 5 2 5 6
M  V30 6 1 6 7
M  V30 7 1 7 8
M  V30 8 1 8 9
M  V30 9 1 9 10
M  V30 10 2 10 11
M  V30 11 1 10 12
M  V30 12 1 12 13
M  V30 13 1 13 14
M  V30 14 2 14 15
M  V30 15 1 15 16
M  V30 16 2 16 17
M  V30 17 1 17 18
M  V30 18 2 18 19
M  V30 19 1 19 20
M  V30 20 1 20 21
M  V30 21 1 21 22
M  V30 22 2 22 23
M  V30 23 1 23 24
M  V30 24 1 24 25
M  V30 25 1 25 26
M  V30 26 1 26 27
M  V30 27 1 27 28
M  V30 28 1 28 29
M  V30 29 1 29 30
M  V30 30 1 30 31
M  V30 31 1 30 32
M  V30 32 2 24 33
M  V30 33 1 33 34
M  V30 34 2 20 35
M  V30 35 1 35 36
M  V30 36 1 36 37
M  V30 37 2 36 38
M  V30 38 1 38 39
M  V30 39 1 15 40
M  V30 40 2 40 41
M  V30 41 2 7 42
M  V30 42 1 42 3
M  V30 43 1 41 13
M  V30 44 1 39 16
M  V30 45 1 39 19
M  V30 46 1 34 22
M  V30 47 1 32 26
M  V30 48 1 1 43
M  V30 49 1 1 44
M  V30 50 1 1 45
M  V30 51 1 4 46
M  V30 52 1 5 47
M  V30 53 1 6 48
M  V30 54 1 8 49
M  V30 55 1 8 50
M  V30 56 1 9 51
M  V30 57 1 12 52
M  V30 58 1 12 53
M  V30 59 1 14 54
M  V30 60 1 17 55
M  V30 61 1 21 56
M  V30 62 1 23 57
M  V30 63 1 25 58
M  V30 64 1 25 59
M  V30 65 1 27 60
M  V30 66 1 27 61
M  V30 67 1 28 62
M  V30 68 1 28 63
M  V30 69 1 29 64
M  V30 70 1 29 65
M  V30 71 1 30 66
M  V30 72 1 31 67
M  V30 73 1 31 68
M  V30 74 1 31 69
M  V30 75 1 32 70
M  V30 76 1 32 71
M  V30 77 1 37 72
M  V30 78 1 37 73
M  V30 79 1 37 74
M  V30 80 1 38 75
M  V30 81 1 40 76
M  V30 82 1 42 77
M  V30 END BOND
M  V30 END CTAB
M  END
>  <Dataset>  (557) 
ChEMBL_Kinases

>  <Ligand_Instance>  (557) 
nan

>  <PDB_ID>  (557) 
nan

>  <Standardized_SMILES>  (557) 
COc1cccc(CNC(=O)Cn2cc(-c3cnc4c(Nc5cc(CN6CCCC(C)C6)ns5)nc(C)cn34)cn2)c1

>  <Name>  (557) 
nan

>  <Pocket>  (557) 
nan

>  <ATP_Site>  (557) 
nan

>  <Peripheral>  (557) 
nan

>  <Num_H_Atoms_ProtBoundConf>  (557) 
nan

>  <Num_Resolved_Atoms>  (557) 
nan

>  <Num_Not_Resolved_Atoms>  (557) 
nan

$$$$
CHEMBL2023701
     RDKit          3D

  0  0  0  0  0  0  0  0  0  0999 V3000
M  V30 BEGIN CTAB
M  V30 COUNTS 28 29 0 0 0
M  V30 BEGIN ATOM
M  V30 1 C -2.592588 -4.145639 3.483863 0
M  V30 2 O -1.192886 -3.892126 3.296341 0
M  V30 3 C -0.728536 -2.855008 2.495248 0
M  V30 4 C -1.550586 -1.976346 1.808701 0
M  V30 5 C -0.966062 -0.966366 1.029420 0
M  V30 6 C 0.409552 -0.859114 0.955150 0
M  V30 7 C 0.933525 0.221169 0.120914 0
M  V30 8 C 2.271422 0.491723 -0.080234 0
M  V30 9 C 2.705995 1.524215 -0.878026 0
M  V30 10 N 4.105916 1.745851 -1.040896 0
M  V30 11 N 1.801073 2.321173 -1.501830 0
M  V30 12 C 0.477458 2.054478 -1.303579 0
M  V30 13 N -0.508491 2.876070 -1.947001 0
M  V30 14 N 0.057258 1.025674 -0.508557 0
M  V30 15 C 1.227724 -1.734840 1.639396 0
M  V30 16 C 0.647224 -2.738876 2.414091 0
M  V30 17 H -2.713786 -5.128463 3.940149 0
M  V30 18 H -3.154851 -4.093799 2.529944 0
M  V30 19 H -2.950218 -3.308676 4.123623 0
M  V30 20 H -2.619181 -2.097443 1.895691 0
M  V30 21 H -1.656394 -0.303535 0.511057 0
M  V30 22 H 2.985222 -0.126800 0.403968 0
M  V30 23 H 4.647220 0.933670 -1.425528 0
M  V30 24 H 4.762936 2.555346 -0.864611 0
M  V30 25 H -0.809958 3.869318 -1.754843 0
M  V30 26 H -1.015185 2.400857 -2.748003 0
M  V30 27 H 2.302903 -1.644285 1.576145 0
M  V30 28 H 1.328898 -3.401212 2.932017 0
M  V30 END ATOM
M  V30 BEGIN BOND
M  V30 1 1 1 2
M  V30 2 1 2 3
M  V30 3 2 3 4
M  V30 4 1 4 5
M  V30 5 2 5 6
M  V30 6 1 6 7
M  V30 7 2 7 8
M  V30 8 1 8 9
M  V30 9 1 9 10
M  V30 10 2 9 11
M  V30 11 1 11 12
M  V30 12 1 12 13
M  V30 13 2 12 14
M  V30 14 1 6 15
M  V30 15 2 15 16
M  V30 16 1 16 3
M  V30 17 1 14 7
M  V30 18 1 1 17
M  V30 19 1 1 18
M  V30 20 1 1 19
M  V30 21 1 4 20
M  V30 22 1 5 21
M  V30 23 1 8 22
M  V30 24 1 10 23
M  V30 25 1 10 24
M  V30 26 1 13 25
M  V30 27 1 13 26
M  V30 28 1 15 27
M  V30 29 1 16 28
M  V30 END BOND
M  V30 END CTAB
M  END
>  <Dataset>  (558) 
ChEMBL_Kinases

>  <Ligand_Instance>  (558) 
nan

>  <PDB_ID>  (558) 
nan

>  <Standardized_SMILES>  (558) 
COc1ccc(-c2cc(N)nc(N)n2)cc1

>  <Name>  (558) 
nan

>  <Pocket>  (558) 
nan

>  <ATP_Site>  (558) 
nan

>  <Peripheral>  (558) 
nan

>  <Num_H_Atoms_ProtBoundConf>  (558) 
nan

>  <Num_Resolved_Atoms>  (558) 
nan

>  <Num_Not_Resolved_Atoms>  (558) 
nan

$$$$
CHEMBL2023838
     RDKit          3D

  0  0  0  0  0  0  0  0  0  0999 V3000
M  V30 BEGIN CTAB
M  V30 COUNTS 222 223 0 0 0
M  V30 BEGIN ATOM
M  V30 1 N 8.472094 1.622139 0.869077 0
M  V30 2 C 8.984445 1.121323 -0.224027 0
M  V30 3 N 9.771292 -0.085556 -0.135032 0
M  V30 4 N 8.737803 1.791099 -1.459481 0
M  V30 5 C 7.452586 2.477188 -1.537913 0
M  V30 6 C 7.279829 3.128139 -2.905621 0
M  V30 7 C 7.368093 2.095652 -3.978066 0
M  V30 8 C 6.371063 1.006965 -3.944311 0 CFG=1
M  V30 9 N 5.013100 1.381255 -4.080231 0
M  V30 10 C 3.824966 1.137529 -3.338188 0
M  V30 11 O 4.048367 0.442237 -2.304223 0
M  V30 12 C 2.621281 1.747613 -3.956928 0 CFG=1
M  V30 13 C 2.534047 1.105738 -5.330835 0
M  V30 14 C 1.439322 1.576854 -6.213727 0
M  V30 15 C 1.542985 3.039829 -6.564204 0
M  V30 16 N 0.465487 3.368716 -7.469733 0
M  V30 17 C -0.924969 3.458605 -7.211932 0
M  V30 18 N -1.141576 4.166928 -6.148654 0
M  V30 19 N -1.859949 2.807585 -8.098173 0
M  V30 20 N 1.436119 1.452263 -3.180377 0
M  V30 21 C 0.210883 2.082350 -2.920620 0
M  V30 22 O -0.016876 3.168739 -3.433824 0
M  V30 23 C -0.737970 1.384198 -2.051050 0 CFG=1
M  V30 24 C -1.559071 0.436257 -3.052207 0
M  V30 25 C -2.254439 1.294156 -4.074662 0
M  V30 26 C -2.997211 0.398446 -5.040340 0
M  V30 27 N -3.985530 -0.440942 -4.439519 0
M  V30 28 C -5.203250 -0.025753 -3.851573 0
M  V30 29 N -5.634918 1.148391 -4.142288 0
M  V30 30 N -5.899789 -0.918017 -2.972404 0
M  V30 31 N -0.162708 0.474746 -1.091232 0
M  V30 32 C -0.251426 -0.823277 -0.563160 0
M  V30 33 O -1.149185 -1.505073 -1.151274 0
M  V30 34 C 0.682538 -1.225167 0.575199 0 CFG=1
M  V30 35 C 1.821815 -1.909170 -0.084983 0
M  V30 36 C 1.456354 -3.131243 -0.881590 0
M  V30 37 C 2.721917 -3.703796 -1.532138 0
M  V30 38 N 3.670515 -4.064206 -0.499560 0
M  V30 39 C 4.889484 -4.610750 -1.010946 0
M  V30 40 N 4.952069 -5.211683 -2.169624 0
M  V30 41 N 6.092958 -4.499496 -0.228282 0
M  V30 42 N 1.115763 -0.002325 1.253863 0
M  V30 43 C 0.493190 0.474167 2.478710 0
M  V30 44 O -0.435363 -0.284915 2.855017 0
M  V30 45 C 1.080160 1.714694 2.977651 0 CFG=1
M  V30 46 C 1.320078 1.690123 4.451284 0
M  V30 47 C 0.111541 1.495037 5.305121 0
M  V30 48 C 0.552684 1.564182 6.749864 0
M  V30 49 N 1.517811 0.556112 7.096793 0
M  V30 50 C 1.156914 -0.811996 7.160674 0
M  V30 51 N 0.032335 -1.249784 6.771942 0
M  V30 52 N 2.110550 -1.720296 7.693657 0
M  V30 53 N 2.324644 2.054829 2.299160 0
M  V30 54 C 2.968597 3.035762 1.425558 0
M  V30 55 O 1.792253 3.589823 1.498542 0
M  V30 56 C 4.398566 2.687292 1.121250 0 CFG=1
M  V30 57 C 5.275899 3.847264 1.125480 0
M  V30 58 C 5.224566 4.965560 0.203687 0
M  V30 59 C 4.032047 5.816265 0.002331 0
M  V30 60 N 2.887857 5.210865 -0.615185 0
M  V30 61 C 1.775122 6.141022 -0.676023 0
M  V30 62 N 1.913290 7.418520 -0.531964 0
M  V30 63 N 0.426066 5.719091 -0.897552 0
M  V30 64 N 4.834573 1.603401 1.988860 0
M  V30 65 C 4.998879 0.170448 2.082157 0
M  V30 66 O 4.609714 -0.323689 0.997874 0
M  V30 67 C 5.539914 -0.176339 3.380852 0
M  V30 68 C 5.269160 -1.596684 3.754052 0
M  V30 69 C 3.776610 -1.879902 3.824198 0
M  V30 70 C 3.573518 -3.273539 4.350541 0
M  V30 71 C 2.109494 -3.621088 4.469901 0
M  V30 72 N 1.392398 -3.710481 3.246038 0
M  V30 73 C 0.031348 -3.919157 3.588215 0
M  V30 74 O -0.551674 -3.996648 4.727587 0
M  V30 75 C -1.393250 -4.145151 3.166137 0 CFG=1
M  V30 76 C -1.642369 -5.626566 2.976201 0
M  V30 77 C -0.823786 -6.283424 1.930927 0
M  V30 78 C -1.110883 -5.718046 0.542007 0
M  V30 79 C -0.282486 -6.381481 -0.503899 0
M  V30 80 N -0.521596 -5.880147 -1.843291 0
M  V30 81 N -2.280657 -3.740344 4.267406 0
M  V30 82 C -3.083800 -2.594512 3.929941 0
M  V30 83 O -2.996397 -2.049879 2.815483 0
M  V30 84 C -4.045456 -2.013431 4.885593 0
M  V30 85 N -4.732403 -0.879712 4.384703 0
M  V30 86 C -3.934128 0.299023 4.223592 0
M  V30 87 C -4.725874 1.425788 3.689304 0
M  V30 88 O -5.787556 0.810989 3.614277 0
M  V30 89 N -4.450445 2.745851 3.357547 0
M  V30 90 C -5.102247 3.865936 2.840999 0
M  V30 91 C -5.570055 3.816385 1.437353 0
M  V30 92 N -6.483139 2.757801 1.170972 0
M  V30 93 S -6.992724 2.819938 -0.526407 0
M  V30 94 O -6.205655 3.917949 -1.199701 0
M  V30 95 O -6.684155 1.502179 -1.116544 0
M  V30 96 C -8.684680 3.226825 -0.502364 0
M  V30 97 C -9.411186 3.445613 0.662671 0
M  V30 98 C -10.746658 3.767068 0.742001 0
M  V30 99 C -11.438145 3.884879 -0.460832 0
M  V30 100 C -10.757680 3.677065 -1.639113 0
M  V30 101 C -11.494390 3.803267 -2.824067 0
M  V30 102 N -10.839183 3.599326 -3.981837 0
M  V30 103 C -9.530628 3.284890 -4.037944 0
M  V30 104 C -8.767739 3.150927 -2.891058 0
M  V30 105 C -9.417073 3.355981 -1.681415 0
M  V30 106 C 6.696330 0.072140 -5.086784 0
M  V30 107 N 5.761087 -0.321345 -6.090473 0
M  V30 108 O 7.787456 -0.494413 -5.344924 0
M  V30 109 H 8.623688 1.163836 1.796563 0
M  V30 110 H 10.796199 -0.289168 -0.198525 0
M  V30 111 H 9.350899 -1.048001 0.029178 0
M  V30 112 H 9.515571 1.712344 -2.171163 0
M  V30 113 H 6.590973 1.859466 -1.333806 0
M  V30 114 H 7.542857 3.318313 -0.816128 0
M  V30 115 H 6.310411 3.652255 -2.884340 0
M  V30 116 H 8.083642 3.858547 -3.029866 0
M  V30 117 H 8.385469 1.617766 -3.871461 0
M  V30 118 H 7.432213 2.608276 -4.965410 0
M  V30 119 H 6.538669 0.374400 -3.032382 0
M  V30 120 H 5.096527 1.966601 -4.962121 0
M  V30 121 H 2.714576 2.803316 -4.119998 0
M  V30 122 H 3.486373 1.324406 -5.843491 0
M  V30 123 H 2.523546 -0.019271 -5.257533 0
M  V30 124 H 0.424486 1.354421 -5.834773 0
M  V30 125 H 1.487896 1.039882 -7.196007 0
M  V30 126 H 1.470479 3.694501 -5.668315 0
M  V30 127 H 2.508247 3.193519 -7.055650 0
M  V30 128 H 0.753796 3.566125 -8.489616 0
M  V30 129 H -2.108490 4.316701 -5.841202 0
M  V30 130 H -2.151310 1.790684 -8.189095 0
M  V30 131 H -2.385419 3.383951 -8.814638 0
M  V30 132 H 1.577518 0.502354 -2.710153 0
M  V30 133 H -1.568418 1.926680 -1.625738 0
M  V30 134 H -0.821131 -0.189379 -3.553998 0
M  V30 135 H -2.343845 -0.065865 -2.473466 0
M  V30 136 H -1.549942 1.890117 -4.656779 0
M  V30 137 H -3.047150 1.927180 -3.595439 0
M  V30 138 H -2.288827 -0.241513 -5.622625 0
M  V30 139 H -3.494339 1.044666 -5.821475 0
M  V30 140 H -3.818626 -1.491285 -4.415484 0
M  V30 141 H -5.104772 1.746668 -4.777027 0
M  V30 142 H -5.816655 -0.962426 -1.933160 0
M  V30 143 H -6.090215 -1.252439 -2.019616 0
M  V30 144 H 0.598770 1.091994 -0.670186 0
M  V30 145 H 0.162908 -1.842222 1.285379 0
M  V30 146 H 2.637883 -2.201883 0.602874 0
M  V30 147 H 2.327111 -1.221667 -0.823436 0
M  V30 148 H 1.153367 -3.915504 -0.154526 0
M  V30 149 H 0.712741 -2.875749 -1.631717 0
M  V30 150 H 2.434993 -4.640656 -2.038899 0
M  V30 151 H 3.139835 -3.017709 -2.299105 0
M  V30 152 H 3.612596 -3.991858 0.532808 0
M  V30 153 H 5.856162 -5.599600 -2.511501 0
M  V30 154 H 6.799473 -4.802300 0.492356 0
M  V30 155 H 6.863724 -3.819870 -0.164262 0
M  V30 156 H 1.906935 0.486669 0.778634 0
M  V30 157 H 0.370751 2.583498 2.800484 0
M  V30 158 H 2.035649 0.858484 4.746525 0
M  V30 159 H 1.863292 2.610507 4.807295 0
M  V30 160 H -0.305482 0.471727 5.148619 0
M  V30 161 H -0.673348 2.256496 5.138159 0
M  V30 162 H 1.066625 2.561858 6.842820 0
M  V30 163 H -0.324746 1.521690 7.434397 0
M  V30 164 H 2.525647 0.823392 7.311778 0
M  V30 165 H -0.213152 -2.275742 6.829975 0
M  V30 166 H 2.858151 -2.334137 8.066989 0
M  V30 167 H 1.945342 -2.669664 8.102347 0
M  V30 168 H 2.855688 1.166630 2.663538 0
M  V30 169 H 4.321093 2.270268 0.057668 0
M  V30 170 H 6.349221 3.434362 1.198066 0
M  V30 171 H 5.235864 4.353317 2.190439 0
M  V30 172 H 5.566482 4.614501 -0.835364 0
M  V30 173 H 6.053376 5.710817 0.521999 0
M  V30 174 H 4.297892 6.690314 -0.676562 0
M  V30 175 H 3.735325 6.360457 0.952042 0
M  V30 176 H 2.586949 4.313773 -1.051988 0
M  V30 177 H 1.144867 8.101966 -0.570364 0
M  V30 178 H -0.444067 5.236875 -0.536203 0
M  V30 179 H -0.111202 5.881650 -1.785275 0
M  V30 180 H 5.085384 2.215220 2.829179 0
M  V30 181 H 5.151976 0.443694 4.221136 0
M  V30 182 H 6.642307 0.053281 3.366226 0
M  V30 183 H 5.763825 -1.767857 4.742054 0
M  V30 184 H 5.725316 -2.330832 3.064039 0
M  V30 185 H 3.387536 -1.725427 2.814203 0
M  V30 186 H 3.349974 -1.165119 4.568742 0
M  V30 187 H 4.119675 -4.043252 3.779174 0
M  V30 188 H 3.980609 -3.293836 5.390366 0
M  V30 189 H 2.090820 -4.633664 4.964223 0
M  V30 190 H 1.637911 -2.904631 5.205546 0
M  V30 191 H 1.253562 -3.718260 2.217625 0
M  V30 192 H -1.627034 -3.621110 2.263638 0
M  V30 193 H -1.543852 -6.169825 3.962430 0
M  V30 194 H -2.714536 -5.760994 2.705432 0
M  V30 195 H -1.038496 -7.360443 1.913113 0
M  V30 196 H 0.271250 -6.099270 2.081691 0
M  V30 197 H -2.208333 -5.834043 0.304121 0
M  V30 198 H -0.938229 -4.640181 0.542780 0
M  V30 199 H 0.788837 -6.275354 -0.264103 0
M  V30 200 H -0.553782 -7.480975 -0.534141 0
M  V30 201 H 0.293674 -6.122087 -2.454906 0
M  V30 202 H -0.718022 -4.857904 -1.857467 0
M  V30 203 H -2.386794 -4.163644 5.205115 0
M  V30 204 H -4.827132 -2.813767 5.058204 0
M  V30 205 H -3.597647 -1.860992 5.893480 0
M  V30 206 H -5.223216 -1.087846 3.493814 0
M  V30 207 H -3.513097 0.659700 5.197688 0
M  V30 208 H -3.137361 0.099738 3.487974 0
M  V30 209 H -3.409572 2.813369 3.610729 0
M  V30 210 H -4.416300 4.750582 3.021451 0
M  V30 211 H -6.027899 4.039845 3.491578 0
M  V30 212 H -5.948561 4.805652 1.070562 0
M  V30 213 H -4.675581 3.614802 0.757496 0
M  V30 214 H -6.050268 1.810331 1.323174 0
M  V30 215 H -8.833143 3.346412 1.573081 0
M  V30 216 H -11.169507 3.907397 1.720412 0
M  V30 217 H -12.486879 4.138445 -0.408922 0
M  V30 218 H -12.558896 4.056704 -2.801837 0
M  V30 219 H -9.090681 3.139773 -5.030366 0
M  V30 220 H -7.733593 2.898460 -2.925803 0
M  V30 221 H 5.863895 -0.189920 -7.140605 0
M  V30 222 H 4.929399 -0.700980 -6.590451 0
M  V30 END ATOM
M  V30 BEGIN BOND
M  V30 1 2 1 2 CFG=2
M  V30 2 1 2 3
M  V30 3 1 2 4
M  V30 4 1 4 5
M  V30 5 1 5 6
M  V30 6 1 6 7
M  V30 7 1 7 8
M  V30 8 1 8 9
M  V30 9 1 9 10
M  V30 10 2 10 11
M  V30 11 1 10 12
M  V30 12 1 12 13
M  V30 13 1 13 14
M  V30 14 1 14 15
M  V30 15 1 15 16
M  V30 16 1 16 17
M  V30 17 2 17 18 CFG=2
M  V30 18 1 17 19
M  V30 19 1 12 20
M  V30 20 1 20 21
M  V30 21 2 21 22
M  V30 22 1 21 23
M  V30 23 1 23 24
M  V30 24 1 24 25
M  V30 25 1 25 26
M  V30 26 1 26 27
M  V30 27 1 27 28
M  V30 28 2 28 29 CFG=2
M  V30 29 1 28 30
M  V30 30 1 23 31
M  V30 31 1 31 32
M  V30 32 2 32 33
M  V30 33 1 32 34
M  V30 34 1 34 35
M  V30 35 1 35 36
M  V30 36 1 36 37
M  V30 37 1 37 38
M  V30 38 1 38 39
M  V30 39 2 39 40 CFG=2
M  V30 40 1 39 41
M  V30 41 1 34 42
M  V30 42 1 42 43
M  V30 43 2 43 44
M  V30 44 1 43 45
M  V30 45 1 45 46
M  V30 46 1 46 47
M  V30 47 1 47 48
M  V30 48 1 48 49
M  V30 49 1 49 50
M  V30 50 2 50 51 CFG=2
M  V30 51 1 50 52
M  V30 52 1 45 53
M  V30 53 1 53 54
M  V30 54 2 54 55
M  V30 55 1 54 56
M  V30 56 1 56 57
M  V30 57 1 57 58
M  V30 58 1 58 59
M  V30 59 1 59 60
M  V30 60 1 60 61
M  V30 61 2 61 62 CFG=2
M  V30 62 1 61 63
M  V30 63 1 56 64
M  V30 64 1 64 65
M  V30 65 2 65 66
M  V30 66 1 65 67
M  V30 67 1 67 68
M  V30 68 1 68 69
M  V30 69 1 69 70
M  V30 70 1 70 71
M  V30 71 1 71 72
M  V30 72 1 72 73
M  V30 73 2 73 74
M  V30 74 1 73 75
M  V30 75 1 75 76
M  V30 76 1 76 77
M  V30 77 1 77 78
M  V30 78 1 78 79
M  V30 79 1 79 80
M  V30 80 1 75 81
M  V30 81 1 81 82
M  V30 82 2 82 83
M  V30 83 1 82 84
M  V30 84 1 84 85
M  V30 85 1 85 86
M  V30 86 1 86 87
M  V30 87 2 87 88
M  V30 88 1 87 89
M  V30 89 1 89 90
M  V30 90 1 90 91
M  V30 91 1 91 92
M  V30 92 1 92 93
M  V30 93 2 93 94
M  V30 94 2 93 95
M  V30 95 1 93 96
M  V30 96 2 96 97
M  V30 97 1 97 98
M  V30 98 2 98 99
M  V30 99 1 99 100
M  V30 100 2 100 101
M  V30 101 1 101 102
M  V30 102 2 102 103
M  V30 103 1 103 104
M  V30 104 2 104 105
M  V30 105 1 8 106
M  V30 106 1 106 107
M  V30 107 2 106 108
M  V30 108 1 105 96
M  V30 109 1 105 100
M  V30 110 1 1 109
M  V30 111 1 3 110
M  V30 112 1 3 111
M  V30 113 1 4 112
M  V30 114 1 5 113
M  V30 115 1 5 114
M  V30 116 1 6 115
M  V30 117 1 6 116
M  V30 118 1 7 117
M  V30 119 1 7 118
M  V30 120 1 8 119 CFG=1
M  V30 121 1 9 120
M  V30 122 1 12 121 CFG=3
M  V30 123 1 13 122
M  V30 124 1 13 123
M  V30 125 1 14 124
M  V30 126 1 14 125
M  V30 127 1 15 126
M  V30 128 1 15 127
M  V30 129 1 16 128
M  V30 130 1 18 129
M  V30 131 1 19 130
M  V30 132 1 19 131
M  V30 133 1 20 132
M  V30 134 1 23 133 CFG=1
M  V30 135 1 24 134
M  V30 136 1 24 135
M  V30 137 1 25 136
M  V30 138 1 25 137
M  V30 139 1 26 138
M  V30 140 1 26 139
M  V30 141 1 27 140
M  V30 142 1 29 141
M  V30 143 1 30 142
M  V30 144 1 30 143
M  V30 145 1 31 144
M  V30 146 1 34 145 CFG=1
M  V30 147 1 35 146
M  V30 148 1 35 147
M  V30 149 1 36 148
M  V30 150 1 36 149
M  V30 151 1 37 150
M  V30 152 1 37 151
M  V30 153 1 38 152
M  V30 154 1 40 153
M  V30 155 1 41 154
M  V30 156 1 41 155
M  V30 157 1 42 156
M  V30 158 1 45 157 CFG=1
M  V30 159 1 46 158
M  V30 160 1 46 159
M  V30 161 1 47 160
M  V30 162 1 47 161
M  V30 163 1 48 162
M  V30 164 1 48 163
M  V30 165 1 49 164
M  V30 166 1 51 165
M  V30 167 1 52 166
M  V30 168 1 52 167
M  V30 169 1 53 168
M  V30 170 1 56 169 CFG=3
M  V30 171 1 57 170
M  V30 172 1 57 171
M  V30 173 1 58 172
M  V30 174 1 58 173
M  V30 175 1 59 174
M  V30 176 1 59 175
M  V30 177 1 60 176
M  V30 178 1 62 177
M  V30 179 1 63 178
M  V30 180 1 63 179
M  V30 181 1 64 180
M  V30 182 1 67 181
M  V30 183 1 67 182
M  V30 184 1 68 183
M  V30 185 1 68 184
M  V30 186 1 69 185
M  V30 187 1 69 186
M  V30 188 1 70 187
M  V30 189 1 70 188
M  V30 190 1 71 189
M  V30 191 1 71 190
M  V30 192 1 72 191
M  V30 193 1 75 192 CFG=3
M  V30 194 1 76 193
M  V30 195 1 76 194
M  V30 196 1 77 195
M  V30 197 1 77 196
M  V30 198 1 78 197
M  V30 199 1 78 198
M  V30 200 1 79 199
M  V30 201 1 79 200
M  V30 202 1 80 201
M  V30 203 1 80 202
M  V30 204 1 81 203
M  V30 205 1 84 204
M  V30 206 1 84 205
M  V30 207 1 85 206
M  V30 208 1 86 207
M  V30 209 1 86 208
M  V30 210 1 89 209
M  V30 211 1 90 210
M  V30 212 1 90 211
M  V30 213 1 91 212
M  V30 214 1 91 213
M  V30 215 1 92 214
M  V30 216 1 97 215
M  V30 217 1 98 216
M  V30 218 1 99 217
M  V30 219 1 101 218
M  V30 220 1 103 219
M  V30 221 1 104 220
M  V30 222 1 107 221
M  V30 223 1 107 222
M  V30 END BOND
M  V30 END CTAB
M  END
>  <Dataset>  (559) 
ChEMBL_Kinases

>  <Ligand_Instance>  (559) 
nan

>  <PDB_ID>  (559) 
nan

>  <Standardized_SMILES>  (559) 
N=C(N)NCCC[C@@H](NC(=O)[C@@H](CCCNC(=N)N)NC(=O)[C@@H](CCCNC(=N)N)NC(=O)[C@@H](CCCNC(=N)N)NC(=O)[C@@H](CCCNC(=N)N)NC(=O)[C@@H](CCCNC(=N)N)NC(=O)CCCCCNC(=O)[C@@H](CCCCN)NC(=O)CNCC(=O)NCCNS(=O)(=O)c1cccc2cnccc12)C(N)=O

>  <Name>  (559) 
nan

>  <Pocket>  (559) 
nan

>  <ATP_Site>  (559) 
nan

>  <Peripheral>  (559) 
nan

>  <Num_H_Atoms_ProtBoundConf>  (559) 
nan

>  <Num_Resolved_Atoms>  (559) 
nan

>  <Num_Not_Resolved_Atoms>  (559) 
nan

$$$$
CHEMBL2023839
     RDKit          3D

  0  0  0  0  0  0  0  0  0  0999 V3000
M  V30 BEGIN CTAB
M  V30 COUNTS 232 233 0 0 0
M  V30 BEGIN ATOM
M  V30 1 N 1.698838 -0.294685 1.573364 0
M  V30 2 C 2.956946 -0.223503 1.363796 0
M  V30 3 N 3.461475 0.931770 2.067441 0
M  V30 4 N 3.723408 -1.107581 0.565952 0
M  V30 5 C 3.164710 -2.251671 -0.026688 0
M  V30 6 C 2.758857 -3.419839 0.773751 0
M  V30 7 C 3.881361 -4.072768 1.498249 0
M  V30 8 C 4.520609 -3.192456 2.505527 0 CFG=1
M  V30 9 N 3.571488 -2.759061 3.512613 0
M  V30 10 C 3.638225 -1.632817 4.373232 0
M  V30 11 O 4.744301 -1.051750 4.068999 0
M  V30 12 C 2.540882 -1.356057 5.376620 0 CFG=1
M  V30 13 C 2.114315 0.037337 5.450533 0
M  V30 14 C 3.186945 0.986733 5.861079 0
M  V30 15 C 3.746131 0.872989 7.226544 0
M  V30 16 N 4.412902 -0.323910 7.616836 0
M  V30 17 C 5.669290 -0.785314 7.120231 0
M  V30 18 N 6.484402 0.181247 6.760277 0
M  V30 19 N 5.951990 -2.175429 7.048188 0
M  V30 20 N 1.472455 -2.294830 5.065063 0
M  V30 21 C 1.219951 -3.637550 5.414042 0
M  V30 22 O 2.089754 -4.182711 6.120589 0
M  V30 23 C 0.082508 -4.497463 5.079600 0 CFG=1
M  V30 24 C -0.221251 -5.230259 6.388999 0
M  V30 25 C -1.323887 -6.192409 6.402983 0
M  V30 26 C -1.291936 -7.309600 5.431218 0
M  V30 27 N -0.224468 -8.227132 5.465432 0
M  V30 28 C 0.008047 -9.155689 6.486549 0
M  V30 29 N -0.938329 -9.265087 7.368916 0
M  V30 30 N 1.223271 -9.883677 6.498477 0
M  V30 31 N -0.967202 -3.895016 4.404583 0
M  V30 32 C -2.225299 -3.645616 3.883696 0
M  V30 33 O -2.916858 -4.647493 4.315283 0
M  V30 34 C -3.146917 -2.827335 3.104126 0 CFG=1
M  V30 35 C -3.785686 -1.882127 4.199671 0
M  V30 36 C -2.653089 -1.114014 4.793766 0
M  V30 37 C -3.073078 -0.137346 5.850718 0
M  V30 38 N -3.719153 -0.695888 6.996978 0
M  V30 39 C -2.948299 -1.494875 7.882520 0
M  V30 40 N -1.899261 -2.152839 7.552047 0
M  V30 41 N -3.387342 -1.542830 9.253151 0
M  V30 42 N -2.541438 -1.862496 2.187596 0
M  V30 43 C -3.086090 -1.943063 0.898324 0
M  V30 44 O -4.003242 -2.833089 0.714078 0
M  V30 45 C -2.875707 -1.235506 -0.394690 0 CFG=1
M  V30 46 C -1.452217 -0.837071 -0.475785 0
M  V30 47 C -0.926307 -0.104796 -1.639041 0
M  V30 48 C -1.645834 1.187595 -1.920620 0
M  V30 49 N -3.036649 1.051882 -2.266976 0
M  V30 50 C -3.549144 2.389839 -2.460140 0
M  V30 51 N -3.151289 3.610541 -2.260082 0
M  V30 52 N -4.799779 2.827461 -2.979587 0
M  V30 53 N -3.495553 -1.929970 -1.447782 0
M  V30 54 C -3.712132 -2.343017 -2.780956 0
M  V30 55 O -2.832811 -1.783213 -3.464112 0
M  V30 56 C -4.834016 -3.294828 -3.157357 0 CFG=1
M  V30 57 C -6.115053 -2.558791 -3.305197 0
M  V30 58 C -6.613034 -1.793598 -2.132791 0
M  V30 59 C -7.908784 -1.096881 -2.626007 0
M  V30 60 N -7.459748 -0.217613 -3.720861 0
M  V30 61 C -8.311265 0.576831 -4.560022 0
M  V30 62 N -9.571086 0.217573 -4.560717 0
M  V30 63 N -7.777258 1.662203 -5.312206 0
M  V30 64 N -4.481516 -3.710766 -4.525669 0
M  V30 65 C -3.413390 -4.636285 -4.773796 0
M  V30 66 O -2.738090 -5.076215 -3.820488 0
M  V30 67 C -3.226053 -4.979071 -6.198407 0
M  V30 68 C -1.910655 -5.505693 -6.601266 0
M  V30 69 C -0.750515 -4.502760 -6.481047 0
M  V30 70 C -1.040889 -3.309322 -7.330140 0
M  V30 71 C 0.008031 -2.263263 -7.472033 0
M  V30 72 N 0.427592 -1.659989 -6.267645 0
M  V30 73 C 1.407129 -0.669676 -6.674703 0
M  V30 74 O 1.829065 -0.366089 -7.854062 0
M  V30 75 C 2.428733 0.434083 -6.513926 0 CFG=1
M  V30 76 C 3.469204 0.010940 -5.573126 0
M  V30 77 C 4.272788 -1.212732 -5.935255 0
M  V30 78 C 5.316496 -1.503710 -4.833367 0
M  V30 79 C 4.633191 -1.753491 -3.507830 0
M  V30 80 N 3.777650 -2.887991 -3.683901 0
M  V30 81 N 2.823140 0.879024 -7.827435 0
M  V30 82 C 2.697575 2.216593 -8.229727 0
M  V30 83 O 2.240175 2.967471 -7.321942 0
M  V30 84 C 2.838013 3.258142 -9.265968 0
M  V30 85 C 2.638414 4.620452 -8.651904 0
M  V30 86 N 1.433868 4.791255 -7.933545 0
M  V30 87 C 0.041936 4.739472 -7.972354 0
M  V30 88 O -0.277094 4.418414 -9.180354 0
M  V30 89 C -1.063093 4.941468 -7.045442 0
M  V30 90 N -0.742713 5.286136 -5.686060 0
M  V30 91 C -0.095463 4.261792 -4.945551 0
M  V30 92 C -0.039023 4.677489 -3.487264 0
M  V30 93 O -0.527289 5.697068 -2.966752 0
M  V30 94 N 0.654322 3.788805 -2.629374 0
M  V30 95 C 0.860621 3.868728 -1.212648 0
M  V30 96 C 1.499557 5.140067 -0.725584 0
M  V30 97 N 1.692697 5.107634 0.705516 0
M  V30 98 S 2.386424 6.572868 1.228507 0
M  V30 99 O 3.648248 6.787487 0.443584 0
M  V30 100 O 2.717733 6.565440 2.693197 0
M  V30 101 C 1.296262 7.927243 0.856923 0
M  V30 102 C 1.652256 8.903386 -0.056970 0
M  V30 103 C 0.748055 9.883050 -0.335849 0
M  V30 104 C -0.514316 9.987908 0.225213 0
M  V30 105 C -0.862925 9.010972 1.136798 0
M  V30 106 C -2.118152 9.053533 1.741486 0
M  V30 107 N -2.485331 8.119315 2.633958 0
M  V30 108 C -1.652526 7.132344 2.958454 0
M  V30 109 C -0.398666 7.092589 2.351464 0
M  V30 110 C 0.041785 8.016056 1.427293 0
M  V30 111 C 5.541161 -4.099978 3.256146 0
M  V30 112 N 6.562883 -4.668926 2.439738 0
M  V30 113 O 6.054288 -4.685557 4.238577 0
M  V30 114 H 1.142683 -1.055610 1.152975 0
M  V30 115 H 3.988920 1.413061 2.818829 0
M  V30 116 H 3.145468 1.847157 1.609448 0
M  V30 117 H 4.710912 -0.771718 0.499008 0
M  V30 118 H 3.899805 -2.575934 -0.843173 0
M  V30 119 H 2.226229 -1.951171 -0.625496 0
M  V30 120 H 1.994547 -3.171226 1.572742 0
M  V30 121 H 2.278030 -4.204417 0.097795 0
M  V30 122 H 4.688468 -4.339889 0.759569 0
M  V30 123 H 3.554003 -5.035051 1.984768 0
M  V30 124 H 5.161857 -2.414391 2.138844 0
M  V30 125 H 2.736107 -3.415040 3.570326 0
M  V30 126 H 3.036234 -1.672385 6.335064 0
M  V30 127 H 1.309204 0.112315 6.257320 0
M  V30 128 H 1.559048 0.404612 4.539564 0
M  V30 129 H 4.080046 0.934723 5.154154 0
M  V30 130 H 2.832028 2.054699 5.669241 0
M  V30 131 H 4.535934 1.696080 7.320505 0
M  V30 132 H 2.993182 1.120109 8.022084 0
M  V30 133 H 3.974318 -0.959865 8.355746 0
M  V30 134 H 7.420239 -0.146260 6.391223 0
M  V30 135 H 6.293178 -2.572366 6.155888 0
M  V30 136 H 5.784977 -2.710095 7.953468 0
M  V30 137 H 0.797247 -1.795189 4.452281 0
M  V30 138 H 0.390875 -5.391129 4.441768 0
M  V30 139 H -0.324137 -4.546956 7.255162 0
M  V30 140 H 0.734553 -5.766861 6.600345 0
M  V30 141 H -2.342087 -5.800727 6.503630 0
M  V30 142 H -1.215447 -6.714332 7.449240 0
M  V30 143 H -2.240516 -7.890824 5.578151 0
M  V30 144 H -1.428250 -6.879851 4.394889 0
M  V30 145 H 0.464146 -8.193165 4.650573 0
M  V30 146 H -0.750604 -9.963466 8.126360 0
M  V30 147 H 1.345506 -10.653386 5.779295 0
M  V30 148 H 2.182764 -10.195424 6.784400 0
M  V30 149 H -0.529751 -3.027636 3.923618 0
M  V30 150 H -3.982935 -3.379661 2.696267 0
M  V30 151 H -4.226077 -2.533423 4.974936 0
M  V30 152 H -4.527513 -1.238753 3.741162 0
M  V30 153 H -2.199626 -0.482094 3.976719 0
M  V30 154 H -1.901823 -1.774544 5.260647 0
M  V30 155 H -2.114924 0.405550 6.137683 0
M  V30 156 H -3.707699 0.624503 5.354510 0
M  V30 157 H -4.726571 -0.493081 7.144537 0
M  V30 158 H -1.398466 -2.712499 8.270893 0
M  V30 159 H -2.742903 -1.767763 10.044354 0
M  V30 160 H -3.720186 -1.571972 10.225811 0
M  V30 161 H -1.856910 -1.108288 2.072558 0
M  V30 162 H -3.412271 -0.229667 -0.321234 0
M  V30 163 H -0.762934 -1.694557 -0.173003 0
M  V30 164 H -1.286237 -0.132145 0.406153 0
M  V30 165 H 0.136251 0.247683 -1.277198 0
M  V30 166 H -0.754565 -0.632847 -2.571856 0
M  V30 167 H -1.505701 1.860842 -1.050949 0
M  V30 168 H -1.077382 1.641777 -2.790115 0
M  V30 169 H -3.903332 0.526416 -2.465190 0
M  V30 170 H -2.229206 3.758022 -1.859827 0
M  V30 171 H -5.369706 3.099961 -3.798845 0
M  V30 172 H -5.650152 2.991922 -2.363227 0
M  V30 173 H -4.319267 -2.448039 -0.975845 0
M  V30 174 H -4.852213 -4.104245 -2.454854 0
M  V30 175 H -6.185687 -1.984591 -4.251432 0
M  V30 176 H -6.904134 -3.373908 -3.464279 0
M  V30 177 H -5.962626 -0.932531 -1.821343 0
M  V30 178 H -6.945550 -2.432576 -1.307038 0
M  V30 179 H -8.637677 -1.806744 -2.994658 0
M  V30 180 H -8.321266 -0.433671 -1.843022 0
M  V30 181 H -6.441349 -0.083600 -3.971733 0
M  V30 182 H -10.158827 0.829523 -5.192342 0
M  V30 183 H -7.845728 2.672819 -5.473495 0
M  V30 184 H -7.027785 1.704146 -6.043149 0
M  V30 185 H -5.021027 -3.321293 -5.361930 0
M  V30 186 H -3.984036 -5.775281 -6.470688 0
M  V30 187 H -3.496875 -4.123397 -6.868004 0
M  V30 188 H -1.647316 -6.365584 -5.942730 0
M  V30 189 H -1.898898 -5.864900 -7.644042 0
M  V30 190 H -0.530108 -4.270244 -5.434144 0
M  V30 191 H 0.114041 -5.033941 -6.919040 0
M  V30 192 H -1.431096 -3.653912 -8.313279 0
M  V30 193 H -1.959811 -2.818880 -6.856053 0
M  V30 194 H 0.865020 -2.728598 -8.037459 0
M  V30 195 H -0.416296 -1.481691 -8.167642 0
M  V30 196 H 0.565774 -1.382922 -5.252646 0
M  V30 197 H 1.881987 1.283337 -6.051883 0
M  V30 198 H 4.133201 0.832523 -5.193256 0
M  V30 199 H 2.931085 -0.289824 -4.619234 0
M  V30 200 H 3.681888 -2.123372 -5.998955 0
M  V30 201 H 4.857665 -1.113121 -6.853512 0
M  V30 202 H 5.860247 -2.429973 -5.079037 0
M  V30 203 H 6.021620 -0.660011 -4.820233 0
M  V30 204 H 4.145894 -0.868616 -3.087846 0
M  V30 205 H 5.450456 -2.026928 -2.791889 0
M  V30 206 H 2.776675 -2.711925 -3.572118 0
M  V30 207 H 4.109969 -3.708219 -3.157392 0
M  V30 208 H 3.250789 0.486820 -8.734853 0
M  V30 209 H 2.158740 3.076264 -10.122798 0
M  V30 210 H 3.856993 3.145238 -9.687554 0
M  V30 211 H 3.544089 4.966574 -8.126601 0
M  V30 212 H 2.594624 5.319545 -9.551253 0
M  V30 213 H 1.674720 5.140028 -6.947198 0
M  V30 214 H -1.637987 3.981939 -6.975499 0
M  V30 215 H -1.822456 5.668348 -7.436711 0
M  V30 216 H -1.604951 5.582385 -5.198986 0
M  V30 217 H -0.693913 3.296495 -4.964355 0
M  V30 218 H 0.914990 3.976122 -5.189725 0
M  V30 219 H 1.093497 2.919079 -3.065054 0
M  V30 220 H -0.147268 3.800181 -0.707368 0
M  V30 221 H 1.468644 3.040547 -0.825511 0
M  V30 222 H 0.818206 6.012633 -0.919289 0
M  V30 223 H 2.421502 5.355053 -1.256554 0
M  V30 224 H 0.986272 4.671470 1.254008 0
M  V30 225 H 2.638043 8.803518 -0.477612 0
M  V30 226 H 1.038972 10.641418 -1.050395 0
M  V30 227 H -1.203846 10.782080 -0.014667 0
M  V30 228 H -2.817415 9.860013 1.479987 0
M  V30 229 H -1.988923 6.396298 3.681734 0
M  V30 230 H 0.239906 6.303294 2.651561 0
M  V30 231 H 7.333755 -4.333490 1.843526 0
M  V30 232 H 7.212236 -3.982470 1.957384 0
M  V30 END ATOM
M  V30 BEGIN BOND
M  V30 1 2 1 2 CFG=2
M  V30 2 1 2 3
M  V30 3 1 2 4
M  V30 4 1 4 5
M  V30 5 1 5 6
M  V30 6 1 6 7
M  V30 7 1 7 8
M  V30 8 1 8 9
M  V30 9 1 9 10
M  V30 10 2 10 11
M  V30 11 1 10 12
M  V30 12 1 12 13
M  V30 13 1 13 14
M  V30 14 1 14 15
M  V30 15 1 15 16
M  V30 16 1 16 17
M  V30 17 2 17 18 CFG=2
M  V30 18 1 17 19
M  V30 19 1 12 20
M  V30 20 1 20 21
M  V30 21 2 21 22
M  V30 22 1 21 23
M  V30 23 1 23 24
M  V30 24 1 24 25
M  V30 25 1 25 26
M  V30 26 1 26 27
M  V30 27 1 27 28
M  V30 28 2 28 29 CFG=2
M  V30 29 1 28 30
M  V30 30 1 23 31
M  V30 31 1 31 32
M  V30 32 2 32 33
M  V30 33 1 32 34
M  V30 34 1 34 35
M  V30 35 1 35 36
M  V30 36 1 36 37
M  V30 37 1 37 38
M  V30 38 1 38 39
M  V30 39 2 39 40 CFG=2
M  V30 40 1 39 41
M  V30 41 1 34 42
M  V30 42 1 42 43
M  V30 43 2 43 44
M  V30 44 1 43 45
M  V30 45 1 45 46
M  V30 46 1 46 47
M  V30 47 1 47 48
M  V30 48 1 48 49
M  V30 49 1 49 50
M  V30 50 2 50 51 CFG=2
M  V30 51 1 50 52
M  V30 52 1 45 53
M  V30 53 1 53 54
M  V30 54 2 54 55
M  V30 55 1 54 56
M  V30 56 1 56 57
M  V30 57 1 57 58
M  V30 58 1 58 59
M  V30 59 1 59 60
M  V30 60 1 60 61
M  V30 61 2 61 62 CFG=2
M  V30 62 1 61 63
M  V30 63 1 56 64
M  V30 64 1 64 65
M  V30 65 2 65 66
M  V30 66 1 65 67
M  V30 67 1 67 68
M  V30 68 1 68 69
M  V30 69 1 69 70
M  V30 70 1 70 71
M  V30 71 1 71 72
M  V30 72 1 72 73
M  V30 73 2 73 74
M  V30 74 1 73 75
M  V30 75 1 75 76
M  V30 76 1 76 77
M  V30 77 1 77 78
M  V30 78 1 78 79
M  V30 79 1 79 80
M  V30 80 1 75 81
M  V30 81 1 81 82
M  V30 82 2 82 83
M  V30 83 1 82 84
M  V30 84 1 84 85
M  V30 85 1 85 86
M  V30 86 1 86 87
M  V30 87 2 87 88
M  V30 88 1 87 89
M  V30 89 1 89 90
M  V30 90 1 90 91
M  V30 91 1 91 92
M  V30 92 2 92 93
M  V30 93 1 92 94
M  V30 94 1 94 95
M  V30 95 1 95 96
M  V30 96 1 96 97
M  V30 97 1 97 98
M  V30 98 2 98 99
M  V30 99 2 98 100
M  V30 100 1 98 101
M  V30 101 2 101 102
M  V30 102 1 102 103
M  V30 103 2 103 104
M  V30 104 1 104 105
M  V30 105 2 105 106
M  V30 106 1 106 107
M  V30 107 2 107 108
M  V30 108 1 108 109
M  V30 109 2 109 110
M  V30 110 1 8 111
M  V30 111 1 111 112
M  V30 112 2 111 113
M  V30 113 1 110 101
M  V30 114 1 110 105
M  V30 115 1 1 114
M  V30 116 1 3 115
M  V30 117 1 3 116
M  V30 118 1 4 117
M  V30 119 1 5 118
M  V30 120 1 5 119
M  V30 121 1 6 120
M  V30 122 1 6 121
M  V30 123 1 7 122
M  V30 124 1 7 123
M  V30 125 1 8 124 CFG=3
M  V30 126 1 9 125
M  V30 127 1 12 126 CFG=1
M  V30 128 1 13 127
M  V30 129 1 13 128
M  V30 130 1 14 129
M  V30 131 1 14 130
M  V30 132 1 15 131
M  V30 133 1 15 132
M  V30 134 1 16 133
M  V30 135 1 18 134
M  V30 136 1 19 135
M  V30 137 1 19 136
M  V30 138 1 20 137
M  V30 139 1 23 138 CFG=3
M  V30 140 1 24 139
M  V30 141 1 24 140
M  V30 142 1 25 141
M  V30 143 1 25 142
M  V30 144 1 26 143
M  V30 145 1 26 144
M  V30 146 1 27 145
M  V30 147 1 29 146
M  V30 148 1 30 147
M  V30 149 1 30 148
M  V30 150 1 31 149
M  V30 151 1 34 150 CFG=3
M  V30 152 1 35 151
M  V30 153 1 35 152
M  V30 154 1 36 153
M  V30 155 1 36 154
M  V30 156 1 37 155
M  V30 157 1 37 156
M  V30 158 1 38 157
M  V30 159 1 40 158
M  V30 160 1 41 159
M  V30 161 1 41 160
M  V30 162 1 42 161
M  V30 163 1 45 162 CFG=1
M  V30 164 1 46 163
M  V30 165 1 46 164
M  V30 166 1 47 165
M  V30 167 1 47 166
M  V30 168 1 48 167
M  V30 169 1 48 168
M  V30 170 1 49 169
M  V30 171 1 51 170
M  V30 172 1 52 171
M  V30 173 1 52 172
M  V30 174 1 53 173
M  V30 175 1 56 174 CFG=1
M  V30 176 1 57 175
M  V30 177 1 57 176
M  V30 178 1 58 177
M  V30 179 1 58 178
M  V30 180 1 59 179
M  V30 181 1 59 180
M  V30 182 1 60 181
M  V30 183 1 62 182
M  V30 184 1 63 183
M  V30 185 1 63 184
M  V30 186 1 64 185
M  V30 187 1 67 186
M  V30 188 1 67 187
M  V30 189 1 68 188
M  V30 190 1 68 189
M  V30 191 1 69 190
M  V30 192 1 69 191
M  V30 193 1 70 192
M  V30 194 1 70 193
M  V30 195 1 71 194
M  V30 196 1 71 195
M  V30 197 1 72 196
M  V30 198 1 75 197 CFG=1
M  V30 199 1 76 198
M  V30 200 1 76 199
M  V30 201 1 77 200
M  V30 202 1 77 201
M  V30 203 1 78 202
M  V30 204 1 78 203
M  V30 205 1 79 204
M  V30 206 1 79 205
M  V30 207 1 80 206
M  V30 208 1 80 207
M  V30 209 1 81 208
M  V30 210 1 84 209
M  V30 211 1 84 210
M  V30 212 1 85 211
M  V30 213 1 85 212
M  V30 214 1 86 213
M  V30 215 1 89 214
M  V30 216 1 89 215
M  V30 217 1 90 216
M  V30 218 1 91 217
M  V30 219 1 91 218
M  V30 220 1 94 219
M  V30 221 1 95 220
M  V30 222 1 95 221
M  V30 223 1 96 222
M  V30 224 1 96 223
M  V30 225 1 97 224
M  V30 226 1 102 225
M  V30 227 1 103 226
M  V30 228 1 104 227
M  V30 229 1 106 228
M  V30 230 1 108 229
M  V30 231 1 109 230
M  V30 232 1 112 231
M  V30 233 1 112 232
M  V30 END BOND
M  V30 END CTAB
M  END
>  <Dataset>  (560) 
ChEMBL_Kinases

>  <Ligand_Instance>  (560) 
nan

>  <PDB_ID>  (560) 
nan

>  <Standardized_SMILES>  (560) 
N=C(N)NCCC[C@@H](NC(=O)[C@@H](CCCNC(=N)N)NC(=O)[C@@H](CCCNC(=N)N)NC(=O)[C@@H](CCCNC(=N)N)NC(=O)[C@@H](CCCNC(=N)N)NC(=O)[C@@H](CCCNC(=N)N)NC(=O)CCCCCNC(=O)[C@@H](CCCCN)NC(=O)CCNC(=O)CNCC(=O)NCCNS(=O)(=O)c1cccc2cnccc12)C(N)=O

>  <Name>  (560) 
nan

>  <Pocket>  (560) 
nan

>  <ATP_Site>  (560) 
nan

>  <Peripheral>  (560) 
nan

>  <Num_H_Atoms_ProtBoundConf>  (560) 
nan

>  <Num_Resolved_Atoms>  (560) 
nan

>  <Num_Not_Resolved_Atoms>  (560) 
nan

$$$$
CHEMBL2023840
     RDKit          3D

  0  0  0  0  0  0  0  0  0  0999 V3000
M  V30 BEGIN CTAB
M  V30 COUNTS 182 183 0 0 0
M  V30 BEGIN ATOM
M  V30 1 N 7.690763 -3.755163 -0.128859 0
M  V30 2 C 7.437823 -3.426764 1.109120 0
M  V30 3 N 8.483807 -2.447865 1.208137 0
M  V30 4 N 6.429506 -3.921991 2.018471 0
M  V30 5 C 6.013840 -5.199895 1.528073 0
M  V30 6 C 4.976223 -5.879616 2.363016 0
M  V30 7 C 5.399503 -6.187850 3.739913 0
M  V30 8 C 5.741772 -5.073182 4.661331 0 CFG=1
M  V30 9 N 4.634841 -4.156542 4.887050 0
M  V30 10 C 4.350122 -2.773911 4.966420 0
M  V30 11 O 5.283320 -1.970966 4.803926 0
M  V30 12 C 2.934576 -2.407366 5.238886 0 CFG=1
M  V30 13 C 2.467293 -2.979897 6.538128 0
M  V30 14 C 1.044714 -2.599124 6.809036 0
M  V30 15 C 0.113448 -3.114490 5.714725 0
M  V30 16 N 0.184290 -4.564574 5.638042 0
M  V30 17 C -0.346181 -5.304679 6.732856 0
M  V30 18 N -1.267194 -4.745478 7.411971 0
M  V30 19 N 0.147969 -6.612368 7.030232 0
M  V30 20 N 2.798155 -0.979315 5.250930 0
M  V30 21 C 2.124609 -0.312732 4.210274 0
M  V30 22 O 1.546821 -0.691494 3.142405 0
M  V30 23 C 1.800229 1.117464 3.917282 0 CFG=1
M  V30 24 C 3.011217 2.012421 4.119606 0
M  V30 25 C 2.656727 3.435847 3.835538 0
M  V30 26 C 3.788747 4.406371 3.926534 0
M  V30 27 N 4.388740 4.386071 5.231465 0
M  V30 28 C 5.170385 3.327316 5.765855 0
M  V30 29 N 5.934426 2.738669 4.872422 0
M  V30 30 N 5.179796 2.896483 7.118178 0
M  V30 31 N 1.224963 1.274642 2.625678 0
M  V30 32 C 0.051820 1.326413 1.883775 0
M  V30 33 O -0.979980 1.157321 2.603081 0
M  V30 34 C -0.181826 1.550233 0.456001 0 CFG=1
M  V30 35 C 0.353314 0.517032 -0.440995 0
M  V30 36 C 1.801670 0.250286 -0.435732 0
M  V30 37 C 2.210622 -0.787484 -1.488088 0
M  V30 38 N 1.584242 -2.058350 -1.303464 0
M  V30 39 C 1.858966 -2.927396 -0.188867 0
M  V30 40 N 2.602768 -2.521478 0.760868 0
M  V30 41 N 1.356305 -4.252271 -0.042444 0
M  V30 42 N -1.629695 1.744836 0.205733 0
M  V30 43 C -2.400368 2.895963 0.592117 0
M  V30 44 O -1.602296 3.627339 1.218443 0
M  V30 45 C -3.796714 2.919983 0.192254 0 CFG=1
M  V30 46 C -4.286917 4.319370 -0.205045 0
M  V30 47 C -4.155440 5.241641 0.981415 0
M  V30 48 C -4.614928 6.651373 0.686136 0
M  V30 49 N -3.832301 7.252007 -0.366348 0
M  V30 50 C -2.462770 7.577687 -0.131619 0
M  V30 51 N -1.991217 7.372735 1.054750 0
M  V30 52 N -1.630229 8.117201 -1.140512 0
M  V30 53 N -4.146422 1.964550 -0.840441 0
M  V30 54 C -5.416527 1.415603 -1.040803 0
M  V30 55 O -6.351585 1.781812 -0.244744 0
M  V30 56 C -5.684428 0.454693 -2.137143 0 CFG=1
M  V30 57 C -6.377382 1.329245 -3.204430 0
M  V30 58 C -6.755309 0.606780 -4.444536 0
M  V30 59 C -7.418216 1.659722 -5.355065 0
M  V30 60 N -7.773037 0.995674 -6.585951 0
M  V30 61 C -6.697506 0.580845 -7.456479 0
M  V30 62 N -5.460416 0.868766 -7.269955 0
M  V30 63 N -7.053544 -0.189121 -8.598494 0
M  V30 64 N -4.525836 -0.147909 -2.697655 0
M  V30 65 C -4.536622 -1.452671 -3.226760 0
M  V30 66 O -5.793558 -1.770622 -3.026254 0
M  V30 67 C -4.130478 -2.689495 -3.838426 0
M  V30 68 N -2.842028 -2.982579 -4.283261 0
M  V30 69 C -2.191721 -2.372073 -5.336844 0
M  V30 70 C -1.575627 -1.050936 -5.070800 0
M  V30 71 O -1.248344 -0.057717 -4.376262 0
M  V30 72 N -0.989323 -0.589628 -6.328098 0
M  V30 73 C -0.224816 0.522487 -6.845892 0
M  V30 74 C -0.806404 1.880660 -6.613932 0
M  V30 75 N 0.069450 2.815655 -7.338983 0
M  V30 76 S -0.505390 4.390478 -7.084956 0
M  V30 77 O 0.144039 5.412494 -7.966498 0
M  V30 78 O -1.978720 4.396212 -7.455175 0
M  V30 79 C -0.420698 4.829823 -5.382624 0
M  V30 80 C -1.456704 5.005787 -4.491849 0
M  V30 81 C -1.191462 5.296913 -3.173150 0
M  V30 82 C 0.075066 5.422697 -2.692784 0
M  V30 83 C 1.127599 5.257003 -3.544676 0
M  V30 84 C 2.407529 5.413047 -2.995587 0
M  V30 85 N 3.446487 5.272537 -3.816294 0
M  V30 86 C 3.252297 4.992406 -5.110894 0
M  V30 87 C 2.000567 4.840105 -5.640051 0
M  V30 88 C 0.874312 4.967467 -4.862287 0
M  V30 89 C 5.943869 -5.760659 6.019130 0
M  V30 90 N 6.988225 -6.750460 6.146552 0
M  V30 91 O 5.214820 -5.467305 6.997176 0
M  V30 92 H 8.469370 -3.267101 -0.587189 0
M  V30 93 H 8.478282 -1.482285 0.805261 0
M  V30 94 H 9.345789 -2.712189 1.736947 0
M  V30 95 H 6.439989 -3.105645 2.653605 0
M  V30 96 H 6.883384 -5.896201 1.380273 0
M  V30 97 H 5.635046 -5.030274 0.480075 0
M  V30 98 H 3.988609 -5.349910 2.314159 0
M  V30 99 H 4.748981 -6.861178 1.835430 0
M  V30 100 H 6.332044 -6.829727 3.678098 0
M  V30 101 H 4.682615 -6.849959 4.287658 0
M  V30 102 H 6.663899 -4.532752 4.442882 0
M  V30 103 H 3.821965 -4.825896 5.037589 0
M  V30 104 H 2.344158 -2.821260 4.406969 0
M  V30 105 H 3.079870 -2.566241 7.372055 0
M  V30 106 H 2.534614 -4.089530 6.546212 0
M  V30 107 H 0.770361 -3.055792 7.783290 0
M  V30 108 H 0.861069 -1.531003 6.907964 0
M  V30 109 H 0.328794 -2.636830 4.743490 0
M  V30 110 H -0.939732 -2.878845 5.967723 0
M  V30 111 H 0.598084 -5.107725 4.835476 0
M  V30 112 H -1.682081 -5.253079 8.217978 0
M  V30 113 H -0.253552 -7.519562 6.735257 0
M  V30 114 H -0.359186 -7.431401 6.665932 0
M  V30 115 H 3.117404 -0.250465 5.923769 0
M  V30 116 H 1.006702 1.395130 4.676857 0
M  V30 117 H 3.808669 1.586267 3.508569 0
M  V30 118 H 3.299694 1.884896 5.207290 0
M  V30 119 H 2.226265 3.478117 2.801775 0
M  V30 120 H 1.848521 3.693789 4.591492 0
M  V30 121 H 4.586419 4.189189 3.179689 0
M  V30 122 H 3.392174 5.450145 3.721443 0
M  V30 123 H 4.262222 5.214989 5.888793 0
M  V30 124 H 6.563379 1.949127 5.098100 0
M  V30 125 H 4.675067 2.088729 7.568683 0
M  V30 126 H 5.839704 3.663553 7.421589 0
M  V30 127 H 2.065244 1.438590 1.991352 0
M  V30 128 H 0.258332 2.575095 0.224267 0
M  V30 129 H 0.048891 0.682622 -1.518529 0
M  V30 130 H -0.239654 -0.435420 -0.198421 0
M  V30 131 H 2.045808 -0.228814 0.563746 0
M  V30 132 H 2.410930 1.157636 -0.497357 0
M  V30 133 H 1.934425 -0.351332 -2.472499 0
M  V30 134 H 3.323638 -0.815151 -1.473168 0
M  V30 135 H 0.875092 -2.468950 -1.948482 0
M  V30 136 H 2.870563 -3.058907 1.612004 0
M  V30 137 H 1.445853 -5.197043 -0.482726 0
M  V30 138 H 0.658270 -4.641976 0.663656 0
M  V30 139 H -2.066983 0.912830 -0.298847 0
M  V30 140 H -4.453680 2.689858 1.080044 0
M  V30 141 H -3.746982 4.741590 -1.051353 0
M  V30 142 H -5.378964 4.206866 -0.391226 0
M  V30 143 H -3.122688 5.335034 1.366634 0
M  V30 144 H -4.774806 4.886771 1.842377 0
M  V30 145 H -4.494938 7.279776 1.599584 0
M  V30 146 H -5.694341 6.689871 0.435001 0
M  V30 147 H -4.155011 7.491554 -1.345750 0
M  V30 148 H -1.013061 7.567863 1.353627 0
M  V30 149 H -0.789343 8.712544 -1.017509 0
M  V30 150 H -0.795618 8.710677 -0.946701 0
M  V30 151 H -3.432189 1.631689 -1.524856 0
M  V30 152 H -6.438340 -0.253964 -1.834024 0
M  V30 153 H -7.285578 1.818671 -2.799961 0
M  V30 154 H -5.692745 2.159700 -3.474356 0
M  V30 155 H -5.899950 0.213436 -5.023528 0
M  V30 156 H -7.569348 -0.141750 -4.280888 0
M  V30 157 H -8.279099 2.104144 -4.837944 0
M  V30 158 H -6.607840 2.420116 -5.538271 0
M  V30 159 H -8.771791 0.810893 -6.861383 0
M  V30 160 H -4.726667 0.549369 -7.922663 0
M  V30 161 H -7.405013 -0.685192 -9.439917 0
M  V30 162 H -6.425558 -0.953023 -8.889833 0
M  V30 163 H -3.491061 0.035276 -2.891230 0
M  V30 164 H -4.418316 -3.596608 -3.168206 0
M  V30 165 H -4.806579 -2.917892 -4.765804 0
M  V30 166 H -2.317704 -3.724691 -3.757748 0
M  V30 167 H -1.320033 -3.043972 -5.643035 0
M  V30 168 H -2.801568 -2.335447 -6.287818 0
M  V30 169 H -1.115655 -1.216660 -7.206431 0
M  V30 170 H 0.088966 0.364071 -7.889343 0
M  V30 171 H 0.786985 0.548940 -6.298823 0
M  V30 172 H -1.854877 2.012608 -6.821874 0
M  V30 173 H -0.616416 2.115470 -5.531464 0
M  V30 174 H 1.041935 2.608976 -7.235401 0
M  V30 175 H -2.443824 4.886802 -4.939655 0
M  V30 176 H -2.027437 5.428555 -2.516450 0
M  V30 177 H 0.198299 5.651773 -1.630567 0
M  V30 178 H 2.554210 5.633573 -1.959385 0
M  V30 179 H 4.172189 4.902690 -5.692034 0
M  V30 180 H 1.964723 4.634935 -6.677376 0
M  V30 181 H 6.796226 -7.672667 5.717944 0
M  V30 182 H 7.924094 -6.950148 6.513561 0
M  V30 END ATOM
M  V30 BEGIN BOND
M  V30 1 2 1 2 CFG=2
M  V30 2 1 2 3
M  V30 3 1 2 4
M  V30 4 1 4 5
M  V30 5 1 5 6
M  V30 6 1 6 7
M  V30 7 1 7 8
M  V30 8 1 8 9
M  V30 9 1 9 10
M  V30 10 2 10 11
M  V30 11 1 10 12
M  V30 12 1 12 13
M  V30 13 1 13 14
M  V30 14 1 14 15
M  V30 15 1 15 16
M  V30 16 1 16 17
M  V30 17 2 17 18 CFG=2
M  V30 18 1 17 19
M  V30 19 1 12 20
M  V30 20 1 20 21
M  V30 21 2 21 22
M  V30 22 1 21 23
M  V30 23 1 23 24
M  V30 24 1 24 25
M  V30 25 1 25 26
M  V30 26 1 26 27
M  V30 27 1 27 28
M  V30 28 2 28 29 CFG=2
M  V30 29 1 28 30
M  V30 30 1 23 31
M  V30 31 1 31 32
M  V30 32 2 32 33
M  V30 33 1 32 34
M  V30 34 1 34 35
M  V30 35 1 35 36
M  V30 36 1 36 37
M  V30 37 1 37 38
M  V30 38 1 38 39
M  V30 39 2 39 40 CFG=2
M  V30 40 1 39 41
M  V30 41 1 34 42
M  V30 42 1 42 43
M  V30 43 2 43 44
M  V30 44 1 43 45
M  V30 45 1 45 46
M  V30 46 1 46 47
M  V30 47 1 47 48
M  V30 48 1 48 49
M  V30 49 1 49 50
M  V30 50 2 50 51 CFG=2
M  V30 51 1 50 52
M  V30 52 1 45 53
M  V30 53 1 53 54
M  V30 54 2 54 55
M  V30 55 1 54 56
M  V30 56 1 56 57
M  V30 57 1 57 58
M  V30 58 1 58 59
M  V30 59 1 59 60
M  V30 60 1 60 61
M  V30 61 2 61 62 CFG=2
M  V30 62 1 61 63
M  V30 63 1 56 64
M  V30 64 1 64 65
M  V30 65 2 65 66
M  V30 66 1 65 67
M  V30 67 1 67 68
M  V30 68 1 68 69
M  V30 69 1 69 70
M  V30 70 2 70 71
M  V30 71 1 70 72
M  V30 72 1 72 73
M  V30 73 1 73 74
M  V30 74 1 74 75
M  V30 75 1 75 76
M  V30 76 2 76 77
M  V30 77 2 76 78
M  V30 78 1 76 79
M  V30 79 2 79 80
M  V30 80 1 80 81
M  V30 81 2 81 82
M  V30 82 1 82 83
M  V30 83 2 83 84
M  V30 84 1 84 85
M  V30 85 2 85 86
M  V30 86 1 86 87
M  V30 87 2 87 88
M  V30 88 1 8 89
M  V30 89 1 89 90
M  V30 90 2 89 91
M  V30 91 1 88 79
M  V30 92 1 88 83
M  V30 93 1 1 92
M  V30 94 1 3 93
M  V30 95 1 3 94
M  V30 96 1 4 95
M  V30 97 1 5 96
M  V30 98 1 5 97
M  V30 99 1 6 98
M  V30 100 1 6 99
M  V30 101 1 7 100
M  V30 102 1 7 101
M  V30 103 1 8 102 CFG=3
M  V30 104 1 9 103
M  V30 105 1 12 104 CFG=3
M  V30 106 1 13 105
M  V30 107 1 13 106
M  V30 108 1 14 107
M  V30 109 1 14 108
M  V30 110 1 15 109
M  V30 111 1 15 110
M  V30 112 1 16 111
M  V30 113 1 18 112
M  V30 114 1 19 113
M  V30 115 1 19 114
M  V30 116 1 20 115
M  V30 117 1 23 116 CFG=1
M  V30 118 1 24 117
M  V30 119 1 24 118
M  V30 120 1 25 119
M  V30 121 1 25 120
M  V30 122 1 26 121
M  V30 123 1 26 122
M  V30 124 1 27 123
M  V30 125 1 29 124
M  V30 126 1 30 125
M  V30 127 1 30 126
M  V30 128 1 31 127
M  V30 129 1 34 128 CFG=3
M  V30 130 1 35 129
M  V30 131 1 35 130
M  V30 132 1 36 131
M  V30 133 1 36 132
M  V30 134 1 37 133
M  V30 135 1 37 134
M  V30 136 1 38 135
M  V30 137 1 40 136
M  V30 138 1 41 137
M  V30 139 1 41 138
M  V30 140 1 42 139
M  V30 141 1 45 140 CFG=1
M  V30 142 1 46 141
M  V30 143 1 46 142
M  V30 144 1 47 143
M  V30 145 1 47 144
M  V30 146 1 48 145
M  V30 147 1 48 146
M  V30 148 1 49 147
M  V30 149 1 51 148
M  V30 150 1 52 149
M  V30 151 1 52 150
M  V30 152 1 53 151
M  V30 153 1 56 152 CFG=1
M  V30 154 1 57 153
M  V30 155 1 57 154
M  V30 156 1 58 155
M  V30 157 1 58 156
M  V30 158 1 59 157
M  V30 159 1 59 158
M  V30 160 1 60 159
M  V30 161 1 62 160
M  V30 162 1 63 161
M  V30 163 1 63 162
M  V30 164 1 64 163
M  V30 165 1 67 164
M  V30 166 1 67 165
M  V30 167 1 68 166
M  V30 168 1 69 167
M  V30 169 1 69 168
M  V30 170 1 72 169
M  V30 171 1 73 170
M  V30 172 1 73 171
M  V30 173 1 74 172
M  V30 174 1 74 173
M  V30 175 1 75 174
M  V30 176 1 80 175
M  V30 177 1 81 176
M  V30 178 1 82 177
M  V30 179 1 84 178
M  V30 180 1 86 179
M  V30 181 1 87 180
M  V30 182 1 90 181
M  V30 183 1 90 182
M  V30 END BOND
M  V30 END CTAB
M  END
>  <Dataset>  (561) 
ChEMBL_Kinases

>  <Ligand_Instance>  (561) 
nan

>  <PDB_ID>  (561) 
nan

>  <Standardized_SMILES>  (561) 
N=C(N)NCCC[C@@H](NC(=O)[C@@H](CCCNC(=N)N)NC(=O)[C@@H](CCCNC(=N)N)NC(=O)[C@@H](CCCNC(=N)N)NC(=O)[C@@H](CCCNC(=N)N)NC(=O)[C@@H](CCCNC(=N)N)NC(=O)CNCC(=O)NCCNS(=O)(=O)c1cccc2cnccc12)C(N)=O

>  <Name>  (561) 
nan

>  <Pocket>  (561) 
nan

>  <ATP_Site>  (561) 
nan

>  <Peripheral>  (561) 
nan

>  <Num_H_Atoms_ProtBoundConf>  (561) 
nan

>  <Num_Resolved_Atoms>  (561) 
nan

>  <Num_Not_Resolved_Atoms>  (561) 
nan

$$$$
CHEMBL2024363
     RDKit          3D

  0  0  0  0  0  0  0  0  0  0999 V3000
M  V30 BEGIN CTAB
M  V30 COUNTS 44 46 0 0 0
M  V30 BEGIN ATOM
M  V30 1 C 0.134875 -5.998100 0.536978 0
M  V30 2 C 1.065558 -5.036099 1.207388 0
M  V30 3 C 1.278444 -3.801659 0.362007 0
M  V30 4 C 1.878431 -4.159480 -0.992265 0
M  V30 5 C 2.065486 -2.864262 -1.791438 0
M  V30 6 N 0.779476 -2.219340 -1.970160 0
M  V30 7 C 0.444564 -1.185427 -1.244785 0
M  V30 8 N 0.981124 -0.546887 -0.361163 0
M  V30 9 C 0.391272 0.481638 0.210059 0
M  V30 10 C 1.129997 1.183390 1.268474 0
M  V30 11 C 1.616294 0.520081 2.375148 0
M  V30 12 C 2.316850 1.112653 3.405441 0
M  V30 13 C 2.545078 2.479457 3.313499 0
M  V30 14 C 2.079192 3.203473 2.221018 0
M  V30 15 C 1.385161 2.541747 1.227523 0
M  V30 16 N -0.843044 0.858689 -0.177102 0
M  V30 17 C -1.591814 1.925146 0.334821 0
M  V30 18 C -2.183848 1.880284 1.595000 0
M  V30 19 C -2.921924 2.932994 2.098160 0
M  V30 20 C -3.094284 4.087589 1.340312 0
M  V30 21 C -2.511045 4.147761 0.083459 0
M  V30 22 C -1.772236 3.092479 -0.418729 0
M  V30 23 S -1.223147 -0.383464 -1.507124 0
M  V30 24 H 0.727104 -6.845886 0.097320 0
M  V30 25 H -0.690336 -6.350619 1.184465 0
M  V30 26 H -0.347908 -5.486782 -0.323721 0
M  V30 27 H 2.040317 -5.519826 1.415777 0
M  V30 28 H 0.633068 -4.667872 2.170772 0
M  V30 29 H 2.031054 -3.187421 0.916616 0
M  V30 30 H 0.311854 -3.313400 0.229627 0
M  V30 31 H 1.196772 -4.859744 -1.505439 0
M  V30 32 H 2.844420 -4.675551 -0.861579 0
M  V30 33 H 2.753324 -2.254197 -1.176417 0
M  V30 34 H 2.560442 -3.094832 -2.749906 0
M  V30 35 H 1.425871 -0.563513 2.431174 0
M  V30 36 H 2.650783 0.486763 4.227454 0
M  V30 37 H 3.093314 2.952110 4.116512 0
M  V30 38 H 2.267425 4.265814 2.168837 0
M  V30 39 H 1.030932 3.123638 0.385435 0
M  V30 40 H -2.071892 0.992474 2.220043 0
M  V30 41 H -3.381947 2.898972 3.076540 0
M  V30 42 H -3.664554 4.938024 1.693385 0
M  V30 43 H -2.621010 5.040509 -0.550415 0
M  V30 44 H -1.341609 3.197855 -1.405415 0
M  V30 END ATOM
M  V30 BEGIN BOND
M  V30 1 1 1 2
M  V30 2 1 2 3
M  V30 3 1 3 4
M  V30 4 1 4 5
M  V30 5 1 5 6
M  V30 6 2 6 7
M  V30 7 1 7 8
M  V30 8 2 8 9
M  V30 9 1 9 10
M  V30 10 2 10 11
M  V30 11 1 11 12
M  V30 12 2 12 13
M  V30 13 1 13 14
M  V30 14 2 14 15
M  V30 15 1 9 16
M  V30 16 1 16 17
M  V30 17 2 17 18
M  V30 18 1 18 19
M  V30 19 2 19 20
M  V30 20 1 20 21
M  V30 21 2 21 22
M  V30 22 1 16 23
M  V30 23 1 23 7
M  V30 24 1 15 10
M  V30 25 1 22 17
M  V30 26 1 1 24
M  V30 27 1 1 25
M  V30 28 1 1 26
M  V30 29 1 2 27
M  V30 30 1 2 28
M  V30 31 1 3 29
M  V30 32 1 3 30
M  V30 33 1 4 31
M  V30 34 1 4 32
M  V30 35 1 5 33
M  V30 36 1 5 34
M  V30 37 1 11 35
M  V30 38 1 12 36
M  V30 39 1 13 37
M  V30 40 1 14 38
M  V30 41 1 15 39
M  V30 42 1 18 40
M  V30 43 1 19 41
M  V30 44 1 20 42
M  V30 45 1 21 43
M  V30 46 1 22 44
M  V30 END BOND
M  V30 END CTAB
M  END
>  <Dataset>  (562) 
ChEMBL_Kinases

>  <Ligand_Instance>  (562) 
nan

>  <PDB_ID>  (562) 
nan

>  <Standardized_SMILES>  (562) 
CCCCC/N=c1\nc(-c2ccccc2)n(-c2ccccc2)s1

>  <Name>  (562) 
nan

>  <Pocket>  (562) 
nan

>  <ATP_Site>  (562) 
nan

>  <Peripheral>  (562) 
nan

>  <Num_H_Atoms_ProtBoundConf>  (562) 
nan

>  <Num_Resolved_Atoms>  (562) 
nan

>  <Num_Not_Resolved_Atoms>  (562) 
nan

$$$$
CHEMBL2024349
     RDKit          3D

  0  0  0  0  0  0  0  0  0  0999 V3000
M  V30 BEGIN CTAB
M  V30 COUNTS 40 43 0 0 0
M  V30 BEGIN ATOM
M  V30 1 C -0.376839 -2.994793 -0.974893 0
M  V30 2 C 1.088204 -3.182245 -1.016645 0
M  V30 3 C 1.527436 -4.473313 -0.739357 0
M  V30 4 C 2.884591 -4.728696 -0.758854 0
M  V30 5 C 3.794660 -3.734163 -1.045520 0
M  V30 6 C 3.376200 -2.449439 -1.322534 0
M  V30 7 C 2.024656 -2.184882 -1.305519 0
M  V30 8 C 1.390020 -0.893341 -1.571478 0
M  V30 9 C 0.993115 -0.482333 -2.831673 0
M  V30 10 O 1.182009 -1.247071 -3.801208 0
M  V30 11 N 0.417688 0.734608 -2.946208 0
M  V30 12 C 0.231224 1.530396 -1.876425 0
M  V30 13 N 0.618461 1.136562 -0.627191 0
M  V30 14 N 0.403083 1.978010 0.394147 0
M  V30 15 C 0.766636 1.637981 1.648928 0
M  V30 16 S 0.487254 2.751110 3.033350 0
M  V30 17 C -1.141125 2.360482 3.684988 0
M  V30 18 C -2.163025 3.083941 3.103986 0
M  V30 19 C -3.454130 2.848345 3.544899 0
M  V30 20 C -3.711990 1.914334 4.539461 0
M  V30 21 C -2.629965 1.232353 5.068753 0
M  V30 22 C -1.311472 1.430145 4.662230 0
M  V30 23 C 1.369468 0.409908 1.898041 0
M  V30 24 C 1.574793 -0.430543 0.818834 0
M  V30 25 C 1.204092 -0.085825 -0.466135 0
M  V30 26 H -0.690722 -2.042155 -1.452304 0
M  V30 27 H -0.890859 -3.822240 -1.513566 0
M  V30 28 H -0.772638 -3.046332 0.074243 0
M  V30 29 H 0.832832 -5.286650 -0.507827 0
M  V30 30 H 3.229821 -5.732168 -0.543560 0
M  V30 31 H 4.869702 -3.901514 -1.069165 0
M  V30 32 H 4.010961 -1.600483 -1.558928 0
M  V30 33 H -0.230277 2.490081 -2.013345 0
M  V30 34 H -2.084132 3.825599 2.333772 0
M  V30 35 H -4.328631 3.356493 3.161110 0
M  V30 36 H -4.695949 1.687484 4.923818 0
M  V30 37 H -2.826464 0.493757 5.854074 0
M  V30 38 H -0.486548 0.889461 5.086964 0
M  V30 39 H 1.676834 0.086303 2.859285 0
M  V30 40 H 2.044505 -1.407613 0.957280 0
M  V30 END ATOM
M  V30 BEGIN BOND
M  V30 1 1 1 2
M  V30 2 2 2 3
M  V30 3 1 3 4
M  V30 4 2 4 5
M  V30 5 1 5 6
M  V30 6 2 6 7
M  V30 7 1 7 8
M  V30 8 1 8 9
M  V30 9 2 9 10
M  V30 10 1 9 11
M  V30 11 2 11 12
M  V30 12 1 12 13
M  V30 13 1 13 14
M  V30 14 2 14 15
M  V30 15 1 15 16
M  V30 16 1 16 17
M  V30 17 2 17 18
M  V30 18 1 18 19
M  V30 19 2 19 20
M  V30 20 1 20 21
M  V30 21 2 21 22
M  V30 22 1 15 23
M  V30 23 2 23 24
M  V30 24 1 24 25
M  V30 25 1 7 2
M  V30 26 2 25 8
M  V30 27 1 25 13
M  V30 28 1 22 17
M  V30 29 1 1 26
M  V30 30 1 1 27
M  V30 31 1 1 28
M  V30 32 1 3 29
M  V30 33 1 4 30
M  V30 34 1 5 31
M  V30 35 1 6 32
M  V30 36 1 12 33
M  V30 37 1 18 34
M  V30 38 1 19 35
M  V30 39 1 20 36
M  V30 40 1 21 37
M  V30 41 1 22 38
M  V30 42 1 23 39
M  V30 43 1 24 40
M  V30 END BOND
M  V30 END CTAB
M  END
>  <Dataset>  (563) 
ChEMBL_Kinases

>  <Ligand_Instance>  (563) 
nan

>  <PDB_ID>  (563) 
nan

>  <Standardized_SMILES>  (563) 
Cc1ccccc1-c1c(=O)ncn2nc(Sc3ccccc3)ccc12

>  <Name>  (563) 
nan

>  <Pocket>  (563) 
nan

>  <ATP_Site>  (563) 
nan

>  <Peripheral>  (563) 
nan

>  <Num_H_Atoms_ProtBoundConf>  (563) 
nan

>  <Num_Resolved_Atoms>  (563) 
nan

>  <Num_Not_Resolved_Atoms>  (563) 
nan

$$$$
CHEMBL2024350
     RDKit          3D

  0  0  0  0  0  0  0  0  0  0999 V3000
M  V30 BEGIN CTAB
M  V30 COUNTS 41 44 0 0 0
M  V30 BEGIN ATOM
M  V30 1 C 2.091701 -4.166186 -0.291791 0
M  V30 2 O 1.565474 -2.933824 -0.779147 0
M  V30 3 C 2.471537 -1.999446 -1.261021 0
M  V30 4 C 3.837324 -2.192408 -1.295207 0
M  V30 5 C 4.732980 -1.261592 -1.774641 0
M  V30 6 C 4.256534 -0.050624 -2.257029 0
M  V30 7 C 2.890433 0.186018 -2.241695 0
M  V30 8 C 2.037468 -0.782030 -1.749846 0
M  V30 9 C 0.640409 -0.418687 -1.786636 0
M  V30 10 C -0.271244 -0.632689 -2.800752 0
M  V30 11 O 0.191830 -1.219950 -3.813117 0
M  V30 12 N -1.536192 -0.224603 -2.660514 0
M  V30 13 C -1.984424 0.404458 -1.547556 0
M  V30 14 N -1.095187 0.621891 -0.539297 0
M  V30 15 N -1.605729 1.240267 0.512984 0
M  V30 16 C -0.850718 1.526100 1.591196 0
M  V30 17 S -1.431745 2.355294 3.064016 0
M  V30 18 C -2.029261 1.139797 4.229931 0
M  V30 19 C -3.374316 0.756411 4.189782 0
M  V30 20 C -3.857651 -0.193375 5.095054 0
M  V30 21 C -3.023923 -0.762997 6.034250 0
M  V30 22 C -1.708260 -0.347659 6.027844 0
M  V30 23 C -1.156136 0.581504 5.170192 0
M  V30 24 C 0.481262 1.141435 1.542403 0
M  V30 25 C 1.023631 0.496137 0.450043 0
M  V30 26 C 0.208310 0.224585 -0.632849 0
M  V30 27 H 2.552210 -4.755860 -1.109689 0
M  V30 28 H 2.908184 -3.895625 0.409572 0
M  V30 29 H 1.296391 -4.732101 0.249381 0
M  V30 30 H 4.241872 -3.123830 -0.927453 0
M  V30 31 H 5.808306 -1.449345 -1.786071 0
M  V30 32 H 4.936825 0.698873 -2.639543 0
M  V30 33 H 2.558114 1.141491 -2.626059 0
M  V30 34 H -3.013134 0.714578 -1.481265 0
M  V30 35 H -4.033354 1.214120 3.438944 0
M  V30 36 H -4.900036 -0.486737 5.059696 0
M  V30 37 H -3.359875 -1.504830 6.755965 0
M  V30 38 H -1.045770 -0.784530 6.756289 0
M  V30 39 H -0.114690 0.859418 5.222727 0
M  V30 40 H 1.149720 1.336822 2.370425 0
M  V30 41 H 2.063967 0.183683 0.385563 0
M  V30 END ATOM
M  V30 BEGIN BOND
M  V30 1 1 1 2
M  V30 2 1 2 3
M  V30 3 2 3 4
M  V30 4 1 4 5
M  V30 5 2 5 6
M  V30 6 1 6 7
M  V30 7 2 7 8
M  V30 8 1 8 9
M  V30 9 1 9 10
M  V30 10 2 10 11
M  V30 11 1 10 12
M  V30 12 2 12 13
M  V30 13 1 13 14
M  V30 14 1 14 15
M  V30 15 2 15 16
M  V30 16 1 16 17
M  V30 17 1 17 18
M  V30 18 2 18 19
M  V30 19 1 19 20
M  V30 20 2 20 21
M  V30 21 1 21 22
M  V30 22 2 22 23
M  V30 23 1 16 24
M  V30 24 2 24 25
M  V30 25 1 25 26
M  V30 26 1 8 3
M  V30 27 2 26 9
M  V30 28 1 26 14
M  V30 29 1 23 18
M  V30 30 1 1 27
M  V30 31 1 1 28
M  V30 32 1 1 29
M  V30 33 1 4 30
M  V30 34 1 5 31
M  V30 35 1 6 32
M  V30 36 1 7 33
M  V30 37 1 13 34
M  V30 38 1 19 35
M  V30 39 1 20 36
M  V30 40 1 21 37
M  V30 41 1 22 38
M  V30 42 1 23 39
M  V30 43 1 24 40
M  V30 44 1 25 41
M  V30 END BOND
M  V30 END CTAB
M  END
>  <Dataset>  (564) 
ChEMBL_Kinases

>  <Ligand_Instance>  (564) 
nan

>  <PDB_ID>  (564) 
nan

>  <Standardized_SMILES>  (564) 
COc1ccccc1-c1c(=O)ncn2nc(Sc3ccccc3)ccc12

>  <Name>  (564) 
nan

>  <Pocket>  (564) 
nan

>  <ATP_Site>  (564) 
nan

>  <Peripheral>  (564) 
nan

>  <Num_H_Atoms_ProtBoundConf>  (564) 
nan

>  <Num_Resolved_Atoms>  (564) 
nan

>  <Num_Not_Resolved_Atoms>  (564) 
nan

$$$$
CHEMBL2024351
     RDKit          3D

  0  0  0  0  0  0  0  0  0  0999 V3000
M  V30 BEGIN CTAB
M  V30 COUNTS 40 43 0 0 0
M  V30 BEGIN ATOM
M  V30 1 O -0.111272 -4.079744 4.030644 0
M  V30 2 C 0.627881 -3.195455 3.517624 0
M  V30 3 N 1.915698 -3.039601 3.834088 0
M  V30 4 C 2.689884 -2.073134 3.261584 0
M  V30 5 N 2.109897 -1.264531 2.351088 0
M  V30 6 N 2.943231 -0.343065 1.839634 0
M  V30 7 C 2.446592 0.505989 0.924100 0
M  V30 8 S 3.574504 1.742113 0.241444 0
M  V30 9 C 2.696913 2.755369 -0.951176 0
M  V30 10 C 2.627255 2.440326 -2.295159 0
M  V30 11 C 1.942250 3.243469 -3.187300 0
M  V30 12 C 1.300032 4.393584 -2.769150 0
M  V30 13 C 1.376567 4.699244 -1.420405 0
M  V30 14 C 2.056170 3.906188 -0.523427 0
M  V30 15 C 1.139884 0.492633 0.476653 0
M  V30 16 C 0.312605 -0.467558 1.023990 0
M  V30 17 C 0.812935 -1.359929 1.978590 0
M  V30 18 C 0.036658 -2.358291 2.578167 0
M  V30 19 C -1.365232 -2.471611 2.186656 0
M  V30 20 C -2.296582 -1.741438 2.897501 0
M  V30 21 C -3.622795 -1.828741 2.548345 0
M  V30 22 C -4.015990 -2.634397 1.502923 0
M  V30 23 C -3.030687 -3.337341 0.834934 0
M  V30 24 C -1.676418 -3.305767 1.121983 0
M  V30 25 C -0.710387 -4.091324 0.353270 0
M  V30 26 F -1.402979 -4.803942 -0.634187 0
M  V30 27 F 0.267317 -3.385972 -0.274548 0
M  V30 28 F -0.092933 -5.077075 1.128733 0
M  V30 29 H 3.728685 -1.984923 3.549608 0
M  V30 30 H 3.137094 1.526848 -2.628382 0
M  V30 31 H 1.900700 2.972898 -4.250058 0
M  V30 32 H 0.755117 5.043251 -3.444833 0
M  V30 33 H 0.859324 5.617866 -1.107940 0
M  V30 34 H 2.084589 4.191379 0.519774 0
M  V30 35 H 0.752890 1.165615 -0.246666 0
M  V30 36 H -0.730970 -0.596352 0.769733 0
M  V30 37 H -2.025616 -1.098997 3.723305 0
M  V30 38 H -4.413744 -1.290549 3.053099 0
M  V30 39 H -5.043012 -2.741598 1.184667 0
M  V30 40 H -3.352572 -3.973883 0.006920 0
M  V30 END ATOM
M  V30 BEGIN BOND
M  V30 1 2 1 2
M  V30 2 1 2 3
M  V30 3 2 3 4
M  V30 4 1 4 5
M  V30 5 1 5 6
M  V30 6 2 6 7
M  V30 7 1 7 8
M  V30 8 1 8 9
M  V30 9 2 9 10
M  V30 10 1 10 11
M  V30 11 2 11 12
M  V30 12 1 12 13
M  V30 13 2 13 14
M  V30 14 1 7 15
M  V30 15 2 15 16
M  V30 16 1 16 17
M  V30 17 2 17 18
M  V30 18 1 18 19
M  V30 19 2 19 20
M  V30 20 1 20 21
M  V30 21 2 21 22
M  V30 22 1 22 23
M  V30 23 2 23 24
M  V30 24 1 24 25
M  V30 25 1 25 26
M  V30 26 1 25 27
M  V30 27 1 25 28
M  V30 28 1 18 2
M  V30 29 1 24 19
M  V30 30 1 17 5
M  V30 31 1 14 9
M  V30 32 1 4 29
M  V30 33 1 10 30
M  V30 34 1 11 31
M  V30 35 1 12 32
M  V30 36 1 13 33
M  V30 37 1 14 34
M  V30 38 1 15 35
M  V30 39 1 16 36
M  V30 40 1 20 37
M  V30 41 1 21 38
M  V30 42 1 22 39
M  V30 43 1 23 40
M  V30 END BOND
M  V30 END CTAB
M  END
>  <Dataset>  (565) 
ChEMBL_Kinases

>  <Ligand_Instance>  (565) 
nan

>  <PDB_ID>  (565) 
nan

>  <Standardized_SMILES>  (565) 
O=c1ncn2nc(Sc3ccccc3)ccc2c1-c1ccccc1C(F)(F)F

>  <Name>  (565) 
nan

>  <Pocket>  (565) 
nan

>  <ATP_Site>  (565) 
nan

>  <Peripheral>  (565) 
nan

>  <Num_H_Atoms_ProtBoundConf>  (565) 
nan

>  <Num_Resolved_Atoms>  (565) 
nan

>  <Num_Not_Resolved_Atoms>  (565) 
nan

$$$$
CHEMBL2024352
     RDKit          3D

  0  0  0  0  0  0  0  0  0  0999 V3000
M  V30 BEGIN CTAB
M  V30 COUNTS 37 40 0 0 0
M  V30 BEGIN ATOM
M  V30 1 O -2.238566 -4.466403 2.150613 0
M  V30 2 C -1.495152 -3.863471 1.354672 0
M  V30 3 N -1.345486 -4.152762 0.049922 0
M  V30 4 C -0.527039 -3.469348 -0.771653 0
M  V30 5 N 0.197013 -2.433379 -0.296273 0
M  V30 6 N 0.983678 -1.809599 -1.178208 0
M  V30 7 C 1.745072 -0.752864 -0.769375 0
M  V30 8 S 2.837896 0.169280 -1.839662 0
M  V30 9 C 1.966512 1.537020 -2.587696 0
M  V30 10 C 1.335373 1.299156 -3.806472 0
M  V30 11 C 0.663467 2.355544 -4.382282 0
M  V30 12 C 0.582827 3.614319 -3.827584 0
M  V30 13 C 1.218037 3.848020 -2.604093 0
M  V30 14 C 1.904996 2.787321 -2.004717 0
M  V30 15 C 1.678611 -0.358875 0.550000 0
M  V30 16 C 0.849076 -1.031006 1.439985 0
M  V30 17 C 0.082673 -2.100349 1.012700 0
M  V30 18 C -0.757860 -2.805730 1.846623 0
M  V30 19 C -0.780013 -2.335605 3.230553 0
M  V30 20 C -1.647169 -1.372943 3.700309 0
M  V30 21 C -1.613525 -0.975077 5.022215 0
M  V30 22 C -0.723663 -1.510837 5.932307 0
M  V30 23 C 0.149293 -2.475119 5.474244 0
M  V30 24 C 0.119881 -2.880698 4.140763 0
M  V30 25 Cl 1.251441 -4.115883 3.592469 0
M  V30 26 H -0.531466 -3.839741 -1.789157 0
M  V30 27 H 1.379534 0.315517 -4.272414 0
M  V30 28 H 0.163381 2.171497 -5.345540 0
M  V30 29 H 0.047697 4.426487 -4.302268 0
M  V30 30 H 1.196376 4.816703 -2.107614 0
M  V30 31 H 2.403935 2.963784 -1.047610 0
M  V30 32 H 2.252044 0.462189 0.928118 0
M  V30 33 H 0.787191 -0.735923 2.468489 0
M  V30 34 H -2.344613 -0.944707 3.012646 0
M  V30 35 H -2.330515 -0.213291 5.305394 0
M  V30 36 H -0.711365 -1.186304 6.967012 0
M  V30 37 H 0.848074 -2.893347 6.196556 0
M  V30 END ATOM
M  V30 BEGIN BOND
M  V30 1 2 1 2
M  V30 2 1 2 3
M  V30 3 2 3 4
M  V30 4 1 4 5
M  V30 5 1 5 6
M  V30 6 2 6 7
M  V30 7 1 7 8
M  V30 8 1 8 9
M  V30 9 2 9 10
M  V30 10 1 10 11
M  V30 11 2 11 12
M  V30 12 1 12 13
M  V30 13 2 13 14
M  V30 14 1 7 15
M  V30 15 2 15 16
M  V30 16 1 16 17
M  V30 17 2 17 18
M  V30 18 1 18 19
M  V30 19 2 19 20
M  V30 20 1 20 21
M  V30 21 2 21 22
M  V30 22 1 22 23
M  V30 23 2 23 24
M  V30 24 1 24 25
M  V30 25 1 18 2
M  V30 26 1 24 19
M  V30 27 1 17 5
M  V30 28 1 14 9
M  V30 29 1 4 26
M  V30 30 1 10 27
M  V30 31 1 11 28
M  V30 32 1 12 29
M  V30 33 1 13 30
M  V30 34 1 14 31
M  V30 35 1 15 32
M  V30 36 1 16 33
M  V30 37 1 20 34
M  V30 38 1 21 35
M  V30 39 1 22 36
M  V30 40 1 23 37
M  V30 END BOND
M  V30 END CTAB
M  END
>  <Dataset>  (566) 
ChEMBL_Kinases

>  <Ligand_Instance>  (566) 
nan

>  <PDB_ID>  (566) 
nan

>  <Standardized_SMILES>  (566) 
O=c1ncn2nc(Sc3ccccc3)ccc2c1-c1ccccc1Cl

>  <Name>  (566) 
nan

>  <Pocket>  (566) 
nan

>  <ATP_Site>  (566) 
nan

>  <Peripheral>  (566) 
nan

>  <Num_H_Atoms_ProtBoundConf>  (566) 
nan

>  <Num_Resolved_Atoms>  (566) 
nan

>  <Num_Not_Resolved_Atoms>  (566) 
nan

$$$$
CHEMBL2024359
     RDKit          3D

  0  0  0  0  0  0  0  0  0  0999 V3000
M  V30 BEGIN CTAB
M  V30 COUNTS 41 44 0 0 0
M  V30 BEGIN ATOM
M  V30 1 C 0.713486 -4.991853 0.897720 0
M  V30 2 C 1.412171 -4.461075 1.962347 0
M  V30 3 C 1.325511 -3.089678 2.159803 0
M  V30 4 C 0.549376 -2.343066 1.283507 0
M  V30 5 C 0.467594 -0.881312 1.508279 0
M  V30 6 N 1.139535 -0.152501 0.633772 0
M  V30 7 C 1.133519 1.080066 0.736128 0
M  V30 8 N 1.654287 2.077126 0.091365 0
M  V30 9 C 2.487211 1.816893 -1.081391 0
M  V30 10 C 1.981888 2.671443 -2.194616 0
M  V30 11 C 1.000870 2.195321 -3.049998 0
M  V30 12 C 0.573985 3.030735 -4.059825 0
M  V30 13 C 1.059138 4.310327 -4.275352 0
M  V30 14 N 2.010545 4.725771 -3.417467 0
M  V30 15 C 2.466232 3.946279 -2.408180 0
M  V30 16 S 0.062891 1.461992 2.247233 0
M  V30 17 N -0.245900 -0.326164 2.538257 0
M  V30 18 C -0.961763 -1.028477 3.475617 0
M  V30 19 C -2.309220 -1.333900 3.242606 0
M  V30 20 C -2.995586 -2.051439 4.228215 0
M  V30 21 C -2.381186 -2.454026 5.399238 0
M  V30 22 C -1.045126 -2.132944 5.594430 0
M  V30 23 C -0.331482 -1.423214 4.641031 0
M  V30 24 C -0.141440 -2.890550 0.225666 0
M  V30 25 C -0.057615 -4.250265 0.027066 0
M  V30 26 H 0.739683 -6.056270 0.689031 0
M  V30 27 H 1.988804 -5.110988 2.591553 0
M  V30 28 H 1.867187 -2.645618 2.992637 0
M  V30 29 H 2.509201 0.755665 -1.344667 0
M  V30 30 H 3.530693 2.152080 -0.878813 0
M  V30 31 H 0.586753 1.213092 -2.933301 0
M  V30 32 H -0.196510 2.677233 -4.744145 0
M  V30 33 H 0.697571 4.931630 -5.077896 0
M  V30 34 H 3.231774 4.310185 -1.736036 0
M  V30 35 H -2.803279 -1.020954 2.322135 0
M  V30 36 H -4.048436 -2.276815 4.020072 0
M  V30 37 H -2.922521 -3.006159 6.149520 0
M  V30 38 H -0.599782 -2.457480 6.507549 0
M  V30 39 H 0.724444 -1.170963 4.798239 0
M  V30 40 H -0.726600 -2.214692 -0.409119 0
M  V30 41 H -0.595071 -4.681487 -0.797128 0
M  V30 END ATOM
M  V30 BEGIN BOND
M  V30 1 2 1 2
M  V30 2 1 2 3
M  V30 3 2 3 4
M  V30 4 1 4 5
M  V30 5 2 5 6
M  V30 6 1 6 7
M  V30 7 2 7 8
M  V30 8 1 8 9
M  V30 9 1 9 10
M  V30 10 2 10 11
M  V30 11 1 11 12
M  V30 12 2 12 13
M  V30 13 1 13 14
M  V30 14 2 14 15
M  V30 15 1 7 16
M  V30 16 1 16 17
M  V30 17 1 17 18
M  V30 18 2 18 19
M  V30 19 1 19 20
M  V30 20 2 20 21
M  V30 21 1 21 22
M  V30 22 2 22 23
M  V30 23 1 4 24
M  V30 24 2 24 25
M  V30 25 1 25 1
M  V30 26 1 17 5
M  V30 27 1 23 18
M  V30 28 1 15 10
M  V30 29 1 1 26
M  V30 30 1 2 27
M  V30 31 1 3 28
M  V30 32 1 9 29
M  V30 33 1 9 30
M  V30 34 1 11 31
M  V30 35 1 12 32
M  V30 36 1 13 33
M  V30 37 1 15 34
M  V30 38 1 19 35
M  V30 39 1 20 36
M  V30 40 1 21 37
M  V30 41 1 22 38
M  V30 42 1 23 39
M  V30 43 1 24 40
M  V30 44 1 25 41
M  V30 END BOND
M  V30 END CTAB
M  END
>  <Dataset>  (567) 
ChEMBL_Kinases

>  <Ligand_Instance>  (567) 
nan

>  <PDB_ID>  (567) 
nan

>  <Standardized_SMILES>  (567) 
c1ccc(-c2n/c(=N\Cc3cccnc3)sn2-c2ccccc2)cc1

>  <Name>  (567) 
nan

>  <Pocket>  (567) 
nan

>  <ATP_Site>  (567) 
nan

>  <Peripheral>  (567) 
nan

>  <Num_H_Atoms_ProtBoundConf>  (567) 
nan

>  <Num_Resolved_Atoms>  (567) 
nan

>  <Num_Not_Resolved_Atoms>  (567) 
nan

$$$$
CHEMBL2024362
     RDKit          3D

  0  0  0  0  0  0  0  0  0  0999 V3000
M  V30 BEGIN CTAB
M  V30 COUNTS 29 31 0 0 0
M  V30 BEGIN ATOM
M  V30 1 N -0.673315 -5.610536 1.439183 0
M  V30 2 C -0.367474 -4.319939 1.255242 0
M  V30 3 N 0.381325 -3.519236 0.983169 0
M  V30 4 C 0.234906 -2.216014 0.926049 0
M  V30 5 C 1.379568 -1.356026 0.537664 0
M  V30 6 C 1.811361 -0.434642 1.499608 0
M  V30 7 C 2.878895 0.406311 1.209635 0
M  V30 8 C 3.434785 0.250727 -0.043332 0
M  V30 9 C 3.048488 -0.634670 -1.017354 0
M  V30 10 C 1.988247 -1.456745 -0.704984 0
M  V30 11 N -1.033145 -1.754607 1.249447 0
M  V30 12 C -1.315228 -0.309357 1.219925 0
M  V30 13 C -1.243842 0.224261 -0.039112 0
M  V30 14 C -1.495304 1.587432 -0.170708 0
M  V30 15 C -1.800788 2.325683 0.961841 0
M  V30 16 C -1.864276 1.754785 2.217217 0
M  V30 17 C -1.617298 0.408967 2.356264 0
M  V30 18 S -1.907624 -3.263361 1.610538 0
M  V30 19 H 0.034565 -6.336432 1.294034 0
M  V30 20 H 1.335281 -0.361845 2.460455 0
M  V30 21 H 3.268557 1.144033 1.903609 0
M  V30 22 H 4.275399 0.913423 -0.270744 0
M  V30 23 H 3.556859 -0.673850 -1.971783 0
M  V30 24 H 1.617704 -2.176990 -1.399669 0
M  V30 25 H -1.013316 -0.308428 -0.928184 0
M  V30 26 H -1.455094 2.065138 -1.129382 0
M  V30 27 H -1.987944 3.380925 0.806555 0
M  V30 28 H -2.103789 2.341038 3.094728 0
M  V30 29 H -1.644608 -0.122445 3.298783 0
M  V30 END ATOM
M  V30 BEGIN BOND
M  V30 1 2 1 2 CFG=2
M  V30 2 1 2 3
M  V30 3 2 3 4
M  V30 4 1 4 5
M  V30 5 2 5 6
M  V30 6 1 6 7
M  V30 7 2 7 8
M  V30 8 1 8 9
M  V30 9 2 9 10
M  V30 10 1 4 11
M  V30 11 1 11 12
M  V30 12 2 12 13
M  V30 13 1 13 14
M  V30 14 2 14 15
M  V30 15 1 15 16
M  V30 16 2 16 17
M  V30 17 1 11 18
M  V30 18 1 18 2
M  V30 19 1 10 5
M  V30 20 1 17 12
M  V30 21 1 1 19
M  V30 22 1 6 20
M  V30 23 1 7 21
M  V30 24 1 8 22
M  V30 25 1 9 23
M  V30 26 1 10 24
M  V30 27 1 13 25
M  V30 28 1 14 26
M  V30 29 1 15 27
M  V30 30 1 16 28
M  V30 31 1 17 29
M  V30 END BOND
M  V30 END CTAB
M  END
>  <Dataset>  (568) 
ChEMBL_Kinases

>  <Ligand_Instance>  (568) 
nan

>  <PDB_ID>  (568) 
nan

>  <Standardized_SMILES>  (568) 
N=c1nc(-c2ccccc2)n(-c2ccccc2)s1

>  <Name>  (568) 
nan

>  <Pocket>  (568) 
nan

>  <ATP_Site>  (568) 
nan

>  <Peripheral>  (568) 
nan

>  <Num_H_Atoms_ProtBoundConf>  (568) 
nan

>  <Num_Resolved_Atoms>  (568) 
nan

>  <Num_Not_Resolved_Atoms>  (568) 
nan

$$$$
CHEMBL2023843
     RDKit          3D

  0  0  0  0  0  0  0  0  0  0999 V3000
M  V30 BEGIN CTAB
M  V30 COUNTS 240 242 0 0 0
M  V30 BEGIN ATOM
M  V30 1 N 5.392684 -4.597937 5.062358 0
M  V30 2 C 4.470164 -3.718635 5.242315 0
M  V30 3 N 4.730352 -2.877061 6.383449 0
M  V30 4 N 3.323676 -3.542935 4.460013 0
M  V30 5 C 2.952337 -4.732202 3.666339 0
M  V30 6 C 1.701212 -4.337967 2.921380 0
M  V30 7 C 1.116566 -5.382859 2.055251 0
M  V30 8 C 1.940208 -5.902915 0.925916 0 CFG=1
M  V30 9 N 2.303060 -4.842908 -0.019054 0
M  V30 10 C 1.430877 -4.579920 -1.140320 0
M  V30 11 O 0.374461 -5.280669 -1.254698 0
M  V30 12 C 1.499303 -3.617544 -2.250773 0 CFG=1
M  V30 13 C 0.446904 -2.500348 -2.048327 0
M  V30 14 C 0.585643 -1.585327 -3.237075 0
M  V30 15 C -0.354990 -0.404212 -3.172961 0
M  V30 16 N -0.078531 0.414754 -1.996889 0
M  V30 17 C -0.819497 1.599498 -1.637772 0
M  V30 18 N -2.076366 1.443047 -1.867948 0
M  V30 19 N -0.070479 2.693202 -1.115646 0
M  V30 20 N 2.763667 -2.905684 -2.274791 0
M  V30 21 C 3.693631 -2.569793 -3.289623 0
M  V30 22 O 3.545423 -2.865554 -4.513436 0
M  V30 23 C 4.940509 -1.847603 -3.042949 0 CFG=1
M  V30 24 C 5.256757 -0.701185 -3.919313 0
M  V30 25 C 4.295433 0.432749 -3.931411 0
M  V30 26 C 4.837663 1.505668 -4.880878 0
M  V30 27 N 4.992951 1.056683 -6.226847 0
M  V30 28 C 5.521091 1.987029 -7.171535 0
M  V30 29 N 6.436616 2.833547 -6.810591 0
M  V30 30 N 5.091258 2.041043 -8.535609 0
M  V30 31 N 5.085958 -1.486360 -1.635882 0
M  V30 32 C 5.765116 -2.371743 -0.744108 0
M  V30 33 O 6.210294 -3.467975 -1.197810 0
M  V30 34 C 6.006646 -2.120019 0.723648 0 CFG=1
M  V30 35 C 7.367620 -2.635728 1.066622 0
M  V30 36 C 8.482792 -1.993642 0.287872 0
M  V30 37 C 9.802369 -2.595265 0.726631 0
M  V30 38 N 10.047149 -2.370365 2.130249 0
M  V30 39 C 10.296906 -1.000827 2.505085 0
M  V30 40 N 10.899823 -0.222015 1.675208 0
M  V30 41 N 9.890468 -0.485682 3.771088 0
M  V30 42 N 5.681849 -0.815406 1.109666 0
M  V30 43 C 4.887144 0.132331 1.730993 0
M  V30 44 O 3.848200 -0.374495 2.296170 0
M  V30 45 C 4.802013 1.547160 1.988453 0 CFG=1
M  V30 46 C 4.703759 2.494452 0.845579 0
M  V30 47 C 5.864904 2.416044 -0.065377 0
M  V30 48 C 5.770403 3.436971 -1.205218 0
M  V30 49 N 6.955971 3.260894 -2.017564 0
M  V30 50 C 7.080885 4.135145 -3.158321 0
M  V30 51 N 6.043251 4.769313 -3.573920 0
M  V30 52 N 8.334395 4.282520 -3.804024 0
M  V30 53 N 3.660120 1.804193 2.919177 0
M  V30 54 C 3.681300 2.282823 4.279277 0
M  V30 55 O 4.903701 2.444046 4.562034 0
M  V30 56 C 2.333589 2.438071 4.921076 0 CFG=1
M  V30 57 C 2.211436 3.771701 5.604797 0
M  V30 58 C 3.255196 3.909786 6.677094 0
M  V30 59 C 3.102605 5.279957 7.316804 0
M  V30 60 N 1.794892 5.391296 7.898222 0
M  V30 61 C 1.491898 6.635441 8.522719 0
M  V30 62 N 2.068094 7.701421 8.071718 0
M  V30 63 N 0.580206 6.776493 9.629920 0
M  V30 64 N 1.264611 2.140243 4.016847 0
M  V30 65 C 0.310516 1.070061 3.891713 0
M  V30 66 O 0.335276 0.120432 4.713187 0
M  V30 67 C -0.536547 1.371710 2.729024 0
M  V30 68 C -1.503997 0.268448 2.369279 0
M  V30 69 C -0.714673 -0.947424 2.027774 0
M  V30 70 C -1.585182 -2.139637 1.619987 0
M  V30 71 C -2.400825 -1.762119 0.411431 0
M  V30 72 N -3.247636 -2.865910 -0.066305 0
M  V30 73 C -3.981567 -2.385710 -1.201751 0
M  V30 74 O -3.683588 -1.190746 -1.431151 0
M  V30 75 C -4.932982 -3.231147 -1.941885 0 CFG=1
M  V30 76 C -4.787058 -3.222733 -3.424429 0
M  V30 77 C -4.987167 -1.851131 -3.980813 0
M  V30 78 C -6.341607 -1.262621 -3.707595 0
M  V30 79 C -6.371466 0.132968 -4.345623 0
M  V30 80 N -6.146930 0.016002 -5.774500 0
M  V30 81 N -5.054856 -4.588741 -1.413171 0
M  V30 82 C -6.216486 -4.921867 -0.688125 0
M  V30 83 O -7.257441 -4.372716 -0.313335 0
M  V30 84 C -6.745712 -6.114796 -0.028953 0
M  V30 85 C -7.741824 -5.923599 1.067923 0
M  V30 86 C -7.329370 -5.312216 2.319251 0
M  V30 87 C -6.828160 -3.980755 2.563564 0
M  V30 88 C -7.662534 -2.772226 2.338106 0
M  V30 89 C -6.833912 -1.577689 2.804045 0
M  V30 90 C -7.494328 -0.264636 2.648632 0
M  V30 91 N -7.754088 0.104957 1.232141 0
M  V30 92 C -8.496225 1.345852 1.343064 0
M  V30 93 C -9.347074 1.497078 0.108775 0
M  V30 94 C -8.530193 2.421549 -0.824928 0
M  V30 95 N -7.195550 2.525735 -0.360153 0
M  V30 96 S -6.553859 4.062404 -0.368121 0
M  V30 97 O -6.203623 4.457556 1.068268 0
M  V30 98 O -7.666224 5.042842 -0.743493 0
M  V30 99 C -5.178996 4.341688 -1.404466 0
M  V30 100 C -3.977181 4.720947 -0.781903 0
M  V30 101 C -2.779639 4.981783 -1.436287 0
M  V30 102 C -2.750735 4.864477 -2.795410 0
M  V30 103 C -3.912698 4.494118 -3.432414 0
M  V30 104 C -3.947206 4.367076 -4.815279 0
M  V30 105 N -5.076988 4.016309 -5.451578 0
M  V30 106 C -6.222460 3.772631 -4.784529 0
M  V30 107 C -6.235376 3.885546 -3.413837 0
M  V30 108 C -5.094152 4.239057 -2.766523 0
M  V30 109 C -6.387302 1.388161 -0.440922 0
M  V30 110 C -6.484326 0.341324 0.586115 0
M  V30 111 C 3.057478 -6.746259 1.326298 0
M  V30 112 N 2.469322 -7.661034 2.292518 0
M  V30 113 O 4.007882 -6.294826 0.658573 0
M  V30 114 H 6.181931 -4.563355 5.768801 0
M  V30 115 H 4.039392 -2.978778 7.152214 0
M  V30 116 H 5.461762 -2.162719 6.645168 0
M  V30 117 H 2.798202 -2.622145 4.464627 0
M  V30 118 H 3.787264 -5.018371 3.030480 0
M  V30 119 H 2.744580 -5.560712 4.398308 0
M  V30 120 H 1.895252 -3.400931 2.341729 0
M  V30 121 H 0.940251 -4.123753 3.729733 0
M  V30 122 H 0.098354 -5.138575 1.686575 0
M  V30 123 H 0.933234 -6.285758 2.724722 0
M  V30 124 H 1.210202 -6.556268 0.334409 0
M  V30 125 H 3.114489 -4.192199 -0.059378 0
M  V30 126 H 1.272008 -4.076496 -3.216697 0
M  V30 127 H 0.752053 -1.936801 -1.143189 0
M  V30 128 H -0.560528 -2.924860 -1.981392 0
M  V30 129 H 1.615512 -1.275942 -3.373403 0
M  V30 130 H 0.287547 -2.179443 -4.141855 0
M  V30 131 H -1.387715 -0.751875 -3.217938 0
M  V30 132 H -0.148171 0.222299 -4.063314 0
M  V30 133 H 0.735688 0.089879 -1.380963 0
M  V30 134 H -2.822778 2.126433 -1.703455 0
M  V30 135 H 0.599024 2.561696 -0.327077 0
M  V30 136 H -0.112637 3.695189 -1.455900 0
M  V30 137 H 3.033505 -2.575316 -1.331600 0
M  V30 138 H 5.748075 -2.640943 -3.187066 0
M  V30 139 H 6.241357 -0.257247 -3.576868 0
M  V30 140 H 5.458183 -1.037072 -4.958682 0
M  V30 141 H 4.272445 0.949460 -2.934457 0
M  V30 142 H 3.255685 0.200249 -4.160688 0
M  V30 143 H 4.119647 2.349708 -4.817434 0
M  V30 144 H 5.788057 1.894833 -4.459747 0
M  V30 145 H 4.757505 0.096953 -6.621818 0
M  V30 146 H 6.870307 3.535451 -7.426336 0
M  V30 147 H 4.123895 1.807119 -8.865616 0
M  V30 148 H 4.791032 2.082148 -9.514872 0
M  V30 149 H 4.733492 -0.622562 -1.190949 0
M  V30 150 H 5.285308 -2.871457 1.204408 0
M  V30 151 H 7.565731 -2.606397 2.174106 0
M  V30 152 H 7.362192 -3.715403 0.824040 0
M  V30 153 H 8.376240 -2.286445 -0.797798 0
M  V30 154 H 8.479089 -0.901880 0.311068 0
M  V30 155 H 10.642898 -2.121518 0.162553 0
M  V30 156 H 9.849666 -3.679383 0.537306 0
M  V30 157 H 10.067058 -3.083793 2.911852 0
M  V30 158 H 11.120258 0.765830 1.852038 0
M  V30 159 H 8.994775 -0.031523 4.036722 0
M  V30 160 H 9.790457 -0.178807 4.753590 0
M  V30 161 H 6.526022 -0.335109 0.709184 0
M  V30 162 H 5.705948 1.871989 2.590029 0
M  V30 163 H 4.700844 3.528663 1.313112 0
M  V30 164 H 3.718590 2.461104 0.328245 0
M  V30 165 H 5.854712 1.388884 -0.530195 0
M  V30 166 H 6.800355 2.562604 0.474702 0
M  V30 167 H 5.829574 4.453350 -0.774493 0
M  V30 168 H 4.840176 3.342403 -1.765574 0
M  V30 169 H 7.751896 2.582289 -1.898908 0
M  V30 170 H 6.090518 5.411283 -4.395517 0
M  V30 171 H 8.842838 5.116286 -3.475033 0
M  V30 172 H 9.064131 3.953800 -4.493152 0
M  V30 173 H 2.806282 1.548070 2.336329 0
M  V30 174 H 2.281699 1.646644 5.725806 0
M  V30 175 H 1.220018 3.737822 6.143693 0
M  V30 176 H 2.185806 4.615939 4.911731 0
M  V30 177 H 3.143533 3.123706 7.465860 0
M  V30 178 H 4.274899 3.861843 6.291971 0
M  V30 179 H 3.280890 6.082328 6.572042 0
M  V30 180 H 3.860419 5.427675 8.125162 0
M  V30 181 H 1.013102 4.676322 7.930232 0
M  V30 182 H 1.897335 8.642083 8.474923 0
M  V30 183 H 0.680339 7.510520 10.345802 0
M  V30 184 H -0.197553 6.064741 9.650017 0
M  V30 185 H 1.376261 2.999552 3.398354 0
M  V30 186 H -1.112449 2.300553 2.986466 0
M  V30 187 H 0.052053 1.629928 1.815271 0
M  V30 188 H -2.168048 0.623606 1.554291 0
M  V30 189 H -2.177654 0.080119 3.245317 0
M  V30 190 H -0.060110 -1.219499 2.871538 0
M  V30 191 H -0.074265 -0.759800 1.118039 0
M  V30 192 H -0.979392 -3.031355 1.479511 0
M  V30 193 H -2.251787 -2.336612 2.485832 0
M  V30 194 H -1.767988 -1.349073 -0.403364 0
M  V30 195 H -3.093294 -0.943827 0.717858 0
M  V30 196 H -3.367019 -3.845850 0.276281 0
M  V30 197 H -5.940702 -2.752856 -1.731570 0
M  V30 198 H -5.582739 -3.868471 -3.868468 0
M  V30 199 H -3.839126 -3.662734 -3.790968 0
M  V30 200 H -4.239991 -1.103685 -3.647673 0
M  V30 201 H -4.908262 -1.897586 -5.110286 0
M  V30 202 H -6.596088 -1.108453 -2.662924 0
M  V30 203 H -7.162058 -1.833712 -4.187513 0
M  V30 204 H -7.405542 0.517703 -4.225300 0
M  V30 205 H -5.697707 0.840504 -3.848120 0
M  V30 206 H -6.627790 0.831022 -6.222327 0
M  V30 207 H -6.720639 -0.824754 -6.067402 0
M  V30 208 H -4.467512 -5.446420 -1.426762 0
M  V30 209 H -7.151296 -6.788818 -0.839621 0
M  V30 210 H -5.856555 -6.638453 0.447433 0
M  V30 211 H -8.605559 -5.335240 0.596346 0
M  V30 212 H -8.255077 -6.932374 1.222706 0
M  V30 213 H -6.554669 -6.032774 2.784139 0
M  V30 214 H -8.248941 -5.443745 3.036954 0
M  V30 215 H -5.782531 -3.835799 2.111924 0
M  V30 216 H -6.554758 -3.933446 3.679990 0
M  V30 217 H -8.145261 -2.615464 1.396431 0
M  V30 218 H -8.502980 -2.835548 3.102773 0
M  V30 219 H -6.648039 -1.741235 3.887058 0
M  V30 220 H -5.834793 -1.555105 2.320882 0
M  V30 221 H -6.865431 0.531329 3.087237 0
M  V30 222 H -8.487115 -0.288294 3.181048 0
M  V30 223 H -7.826553 2.222364 1.425838 0
M  V30 224 H -9.158200 1.316685 2.256331 0
M  V30 225 H -10.253878 2.077426 0.426704 0
M  V30 226 H -9.618625 0.567321 -0.384485 0
M  V30 227 H -8.535666 1.913639 -1.808285 0
M  V30 228 H -9.050794 3.371906 -0.966597 0
M  V30 229 H -3.933301 4.832957 0.311839 0
M  V30 230 H -1.903400 5.271195 -0.877580 0
M  V30 231 H -1.825042 5.064987 -3.316202 0
M  V30 232 H -3.016158 4.568029 -5.331922 0
M  V30 233 H -7.099743 3.498703 -5.351265 0
M  V30 234 H -7.138868 3.704475 -2.867686 0
M  V30 235 H -6.463695 0.940439 -1.465614 0
M  V30 236 H -5.305556 1.754063 -0.429431 0
M  V30 237 H -6.245040 -0.652326 0.082973 0
M  V30 238 H -5.656375 0.426895 1.334037 0
M  V30 239 H 3.332512 -8.180257 2.622410 0
M  V30 240 H 3.208343 -8.266395 2.726561 0
M  V30 END ATOM
M  V30 BEGIN BOND
M  V30 1 2 1 2 CFG=2
M  V30 2 1 2 3
M  V30 3 1 2 4
M  V30 4 1 4 5
M  V30 5 1 5 6
M  V30 6 1 6 7
M  V30 7 1 7 8
M  V30 8 1 8 9
M  V30 9 1 9 10
M  V30 10 2 10 11
M  V30 11 1 10 12
M  V30 12 1 12 13
M  V30 13 1 13 14
M  V30 14 1 14 15
M  V30 15 1 15 16
M  V30 16 1 16 17
M  V30 17 2 17 18 CFG=2
M  V30 18 1 17 19
M  V30 19 1 12 20
M  V30 20 1 20 21
M  V30 21 2 21 22
M  V30 22 1 21 23
M  V30 23 1 23 24
M  V30 24 1 24 25
M  V30 25 1 25 26
M  V30 26 1 26 27
M  V30 27 1 27 28
M  V30 28 2 28 29 CFG=2
M  V30 29 1 28 30
M  V30 30 1 23 31
M  V30 31 1 31 32
M  V30 32 2 32 33
M  V30 33 1 32 34
M  V30 34 1 34 35
M  V30 35 1 35 36
M  V30 36 1 36 37
M  V30 37 1 37 38
M  V30 38 1 38 39
M  V30 39 2 39 40 CFG=2
M  V30 40 1 39 41
M  V30 41 1 34 42
M  V30 42 1 42 43
M  V30 43 2 43 44
M  V30 44 1 43 45
M  V30 45 1 45 46
M  V30 46 1 46 47
M  V30 47 1 47 48
M  V30 48 1 48 49
M  V30 49 1 49 50
M  V30 50 2 50 51 CFG=2
M  V30 51 1 50 52
M  V30 52 1 45 53
M  V30 53 1 53 54
M  V30 54 2 54 55
M  V30 55 1 54 56
M  V30 56 1 56 57
M  V30 57 1 57 58
M  V30 58 1 58 59
M  V30 59 1 59 60
M  V30 60 1 60 61
M  V30 61 2 61 62 CFG=2
M  V30 62 1 61 63
M  V30 63 1 56 64
M  V30 64 1 64 65
M  V30 65 2 65 66
M  V30 66 1 65 67
M  V30 67 1 67 68
M  V30 68 1 68 69
M  V30 69 1 69 70
M  V30 70 1 70 71
M  V30 71 1 71 72
M  V30 72 1 72 73
M  V30 73 2 73 74
M  V30 74 1 73 75
M  V30 75 1 75 76
M  V30 76 1 76 77
M  V30 77 1 77 78
M  V30 78 1 78 79
M  V30 79 1 79 80
M  V30 80 1 75 81
M  V30 81 1 81 82
M  V30 82 2 82 83
M  V30 83 1 82 84
M  V30 84 1 84 85
M  V30 85 1 85 86
M  V30 86 1 86 87
M  V30 87 1 87 88
M  V30 88 1 88 89
M  V30 89 1 89 90
M  V30 90 1 90 91
M  V30 91 1 91 92
M  V30 92 1 92 93
M  V30 93 1 93 94
M  V30 94 1 94 95
M  V30 95 1 95 96
M  V30 96 2 96 97
M  V30 97 2 96 98
M  V30 98 1 96 99
M  V30 99 2 99 100
M  V30 100 1 100 101
M  V30 101 2 101 102
M  V30 102 1 102 103
M  V30 103 2 103 104
M  V30 104 1 104 105
M  V30 105 2 105 106
M  V30 106 1 106 107
M  V30 107 2 107 108
M  V30 108 1 95 109
M  V30 109 1 109 110
M  V30 110 1 8 111
M  V30 111 1 111 112
M  V30 112 2 111 113
M  V30 113 1 110 91
M  V30 114 1 108 99
M  V30 115 1 108 103
M  V30 116 1 1 114
M  V30 117 1 3 115
M  V30 118 1 3 116
M  V30 119 1 4 117
M  V30 120 1 5 118
M  V30 121 1 5 119
M  V30 122 1 6 120
M  V30 123 1 6 121
M  V30 124 1 7 122
M  V30 125 1 7 123
M  V30 126 1 8 124 CFG=3
M  V30 127 1 9 125
M  V30 128 1 12 126 CFG=3
M  V30 129 1 13 127
M  V30 130 1 13 128
M  V30 131 1 14 129
M  V30 132 1 14 130
M  V30 133 1 15 131
M  V30 134 1 15 132
M  V30 135 1 16 133
M  V30 136 1 18 134
M  V30 137 1 19 135
M  V30 138 1 19 136
M  V30 139 1 20 137
M  V30 140 1 23 138 CFG=3
M  V30 141 1 24 139
M  V30 142 1 24 140
M  V30 143 1 25 141
M  V30 144 1 25 142
M  V30 145 1 26 143
M  V30 146 1 26 144
M  V30 147 1 27 145
M  V30 148 1 29 146
M  V30 149 1 30 147
M  V30 150 1 30 148
M  V30 151 1 31 149
M  V30 152 1 34 150 CFG=1
M  V30 153 1 35 151
M  V30 154 1 35 152
M  V30 155 1 36 153
M  V30 156 1 36 154
M  V30 157 1 37 155
M  V30 158 1 37 156
M  V30 159 1 38 157
M  V30 160 1 40 158
M  V30 161 1 41 159
M  V30 162 1 41 160
M  V30 163 1 42 161
M  V30 164 1 45 162 CFG=1
M  V30 165 1 46 163
M  V30 166 1 46 164
M  V30 167 1 47 165
M  V30 168 1 47 166
M  V30 169 1 48 167
M  V30 170 1 48 168
M  V30 171 1 49 169
M  V30 172 1 51 170
M  V30 173 1 52 171
M  V30 174 1 52 172
M  V30 175 1 53 173
M  V30 176 1 56 174 CFG=1
M  V30 177 1 57 175
M  V30 178 1 57 176
M  V30 179 1 58 177
M  V30 180 1 58 178
M  V30 181 1 59 179
M  V30 182 1 59 180
M  V30 183 1 60 181
M  V30 184 1 62 182
M  V30 185 1 63 183
M  V30 186 1 63 184
M  V30 187 1 64 185
M  V30 188 1 67 186
M  V30 189 1 67 187
M  V30 190 1 68 188
M  V30 191 1 68 189
M  V30 192 1 69 190
M  V30 193 1 69 191
M  V30 194 1 70 192
M  V30 195 1 70 193
M  V30 196 1 71 194
M  V30 197 1 71 195
M  V30 198 1 72 196
M  V30 199 1 75 197 CFG=3
M  V30 200 1 76 198
M  V30 201 1 76 199
M  V30 202 1 77 200
M  V30 203 1 77 201
M  V30 204 1 78 202
M  V30 205 1 78 203
M  V30 206 1 79 204
M  V30 207 1 79 205
M  V30 208 1 80 206
M  V30 209 1 80 207
M  V30 210 1 81 208
M  V30 211 1 84 209
M  V30 212 1 84 210
M  V30 213 1 85 211
M  V30 214 1 85 212
M  V30 215 1 86 213
M  V30 216 1 86 214
M  V30 217 1 87 215
M  V30 218 1 87 216
M  V30 219 1 88 217
M  V30 220 1 88 218
M  V30 221 1 89 219
M  V30 222 1 89 220
M  V30 223 1 90 221
M  V30 224 1 90 222
M  V30 225 1 92 223
M  V30 226 1 92 224
M  V30 227 1 93 225
M  V30 228 1 93 226
M  V30 229 1 94 227
M  V30 230 1 94 228
M  V30 231 1 100 229
M  V30 232 1 101 230
M  V30 233 1 102 231
M  V30 234 1 104 232
M  V30 235 1 106 233
M  V30 236 1 107 234
M  V30 237 1 109 235
M  V30 238 1 109 236
M  V30 239 1 110 237
M  V30 240 1 110 238
M  V30 241 1 112 239
M  V30 242 1 112 240
M  V30 END BOND
M  V30 END CTAB
M  END
>  <Dataset>  (569) 
ChEMBL_Kinases

>  <Ligand_Instance>  (569) 
nan

>  <PDB_ID>  (569) 
nan

>  <Standardized_SMILES>  (569) 
N=C(N)NCCC[C@@H](NC(=O)[C@@H](CCCNC(=N)N)NC(=O)[C@@H](CCCNC(=N)N)NC(=O)[C@@H](CCCNC(=N)N)NC(=O)[C@@H](CCCNC(=N)N)NC(=O)[C@@H](CCCNC(=N)N)NC(=O)CCCCCNC(=O)[C@@H](CCCCN)NC(=O)CCCCCCCN1CCCN(S(=O)(=O)c2cccc3cnccc23)CC1)C(N)=O

>  <Name>  (569) 
nan

>  <Pocket>  (569) 
nan

>  <ATP_Site>  (569) 
nan

>  <Peripheral>  (569) 
nan

>  <Num_H_Atoms_ProtBoundConf>  (569) 
nan

>  <Num_Resolved_Atoms>  (569) 
nan

>  <Num_Not_Resolved_Atoms>  (569) 
nan

$$$$
CHEMBL203978
     RDKit          3D

  0  0  0  0  0  0  0  0  0  0999 V3000
M  V30 BEGIN CTAB
M  V30 COUNTS 42 45 0 0 0
M  V30 BEGIN ATOM
M  V30 1 N 0.514224 -4.216248 1.044200 0
M  V30 2 C -0.269539 -3.070766 1.420176 0
M  V30 3 C -0.121747 -1.706535 1.242789 0
M  V30 4 C 1.020975 -1.174245 0.520094 0
M  V30 5 O 1.809291 -2.042636 0.025956 0
M  V30 6 C 1.380118 0.209694 0.287671 0
M  V30 7 C 1.057223 1.330120 1.021347 0
M  V30 8 C 1.428906 2.609691 0.691636 0
M  V30 9 C 2.176606 2.829692 -0.441101 0
M  V30 10 C 2.626389 4.144424 -0.875818 0
M  V30 11 C 2.770872 4.404329 -2.250730 0
M  V30 12 C 3.195717 5.608515 -2.780176 0
M  V30 13 C 3.504988 6.644379 -1.892100 0
M  V30 14 N 3.369309 6.405409 -0.554405 0
M  V30 15 C 2.954078 5.221009 -0.097940 0
M  V30 16 C 2.541127 1.760986 -1.227588 0
M  V30 17 C 2.135830 0.502956 -0.842220 0
M  V30 18 C -1.235869 -1.171687 1.855266 0
M  V30 19 N -1.997741 -2.152565 2.364277 0
M  V30 20 N -1.416295 -3.309138 2.103063 0
M  V30 21 C -2.009181 -4.530010 2.524767 0
M  V30 22 C -3.372704 -4.734828 2.519532 0
M  V30 23 C -3.985901 -5.903281 2.918110 0
M  V30 24 C -3.137390 -6.915939 3.346232 0
M  V30 25 F -3.680030 -8.103557 3.755058 0
M  V30 26 C -1.764449 -6.789193 3.381488 0
M  V30 27 C -1.221369 -5.586189 2.965600 0
M  V30 28 H 0.169693 -4.956365 0.378064 0
M  V30 29 H 1.447910 -4.181978 1.532658 0
M  V30 30 H 0.482392 1.175001 1.912987 0
M  V30 31 H 1.138299 3.438549 1.313918 0
M  V30 32 H 2.537118 3.620440 -2.980618 0
M  V30 33 H 3.280258 5.728441 -3.850893 0
M  V30 34 H 3.834302 7.573693 -2.333746 0
M  V30 35 H 2.854784 5.057114 0.986100 0
M  V30 36 H 3.131895 1.879507 -2.131577 0
M  V30 37 H 2.442226 -0.317273 -1.486887 0
M  V30 38 H -1.443753 -0.121683 1.898525 0
M  V30 39 H -3.947220 -3.881615 2.169040 0
M  V30 40 H -5.064006 -5.990214 2.885710 0
M  V30 41 H -1.129910 -7.618960 3.729805 0
M  V30 42 H -0.142536 -5.461589 2.983442 0
M  V30 END ATOM
M  V30 BEGIN BOND
M  V30 1 1 1 2
M  V30 2 2 2 3
M  V30 3 1 3 4
M  V30 4 2 4 5
M  V30 5 1 4 6
M  V30 6 2 6 7
M  V30 7 1 7 8
M  V30 8 2 8 9
M  V30 9 1 9 10
M  V30 10 2 10 11
M  V30 11 1 11 12
M  V30 12 2 12 13
M  V30 13 1 13 14
M  V30 14 2 14 15
M  V30 15 1 9 16
M  V30 16 2 16 17
M  V30 17 1 3 18
M  V30 18 2 18 19
M  V30 19 1 19 20
M  V30 20 1 20 21
M  V30 21 2 21 22
M  V30 22 1 22 23
M  V30 23 2 23 24
M  V30 24 1 24 25
M  V30 25 1 24 26
M  V30 26 2 26 27
M  V30 27 1 20 2
M  V30 28 1 27 21
M  V30 29 1 17 6
M  V30 30 1 15 10
M  V30 31 1 1 28
M  V30 32 1 1 29
M  V30 33 1 7 30
M  V30 34 1 8 31
M  V30 35 1 11 32
M  V30 36 1 12 33
M  V30 37 1 13 34
M  V30 38 1 15 35
M  V30 39 1 16 36
M  V30 40 1 17 37
M  V30 41 1 18 38
M  V30 42 1 22 39
M  V30 43 1 23 40
M  V30 44 1 26 41
M  V30 45 1 27 42
M  V30 END BOND
M  V30 END CTAB
M  END
>  <Dataset>  (570) 
ChEMBL_Kinases

>  <Ligand_Instance>  (570) 
nan

>  <PDB_ID>  (570) 
nan

>  <Standardized_SMILES>  (570) 
Nc1c(C(=O)c2ccc(-c3cccnc3)cc2)cnn1-c1ccc(F)cc1

>  <Name>  (570) 
nan

>  <Pocket>  (570) 
nan

>  <ATP_Site>  (570) 
nan

>  <Peripheral>  (570) 
nan

>  <Num_H_Atoms_ProtBoundConf>  (570) 
nan

>  <Num_Resolved_Atoms>  (570) 
nan

>  <Num_Not_Resolved_Atoms>  (570) 
nan

$$$$
CHEMBL203945
     RDKit          3D

  0  0  0  0  0  0  0  0  0  0999 V3000
M  V30 BEGIN CTAB
M  V30 COUNTS 69 73 0 0 0
M  V30 BEGIN ATOM
M  V30 1 C -1.514264 -4.813609 2.043990 0
M  V30 2 O -1.477903 -4.381744 0.720709 0
M  V30 3 C -0.377254 -3.802903 0.126788 0
M  V30 4 C 0.712198 -3.686577 0.980628 0
M  V30 5 C 1.887318 -3.133091 0.550175 0
M  V30 6 C 3.031484 -2.964342 1.295078 0
M  V30 7 N 2.989476 -3.407500 2.656899 0
M  V30 8 C 2.589770 -2.462221 3.665613 0
M  V30 9 C 2.499825 -2.770896 5.013177 0
M  V30 10 N 2.122782 -1.849285 5.919446 0
M  V30 11 C 1.821599 -0.611482 5.569280 0
M  V30 12 N 1.413854 0.444929 6.429455 0
M  V30 13 C 1.099593 1.760639 6.025615 0
M  V30 14 O 1.210842 1.952004 4.767501 0
M  V30 15 C 0.688927 2.797376 6.953699 0
M  V30 16 C 0.542650 2.674201 8.335914 0
M  V30 17 C 0.144335 3.758759 9.066627 0
M  V30 18 C -0.133498 4.999544 8.541484 0
M  V30 19 C 0.009083 5.130072 7.171696 0
M  V30 20 Cl -0.318790 6.670279 6.388384 0
M  V30 21 C 0.411047 4.052450 6.398535 0
M  V30 22 N 1.898196 -0.272913 4.259090 0
M  V30 23 C 2.268131 -1.151103 3.314153 0
M  V30 24 N 4.154279 -2.404620 0.781359 0
M  V30 25 C 4.177145 -1.991178 -0.498642 0
M  V30 26 N 3.077189 -2.127227 -1.297145 0
M  V30 27 C 1.968606 -2.691743 -0.752611 0
M  V30 28 C 0.879839 -2.815472 -1.582647 0
M  V30 29 C -0.322374 -3.363070 -1.200107 0
M  V30 30 O -1.509219 -3.582985 -1.830083 0
M  V30 31 C -1.936107 -3.311805 -3.104598 0
M  V30 32 C -1.973542 -1.869892 -3.521419 0
M  V30 33 C -2.464157 -1.718442 -4.947312 0
M  V30 34 N -2.517244 -0.363082 -5.381221 0
M  V30 35 C -2.975235 -0.262381 -6.729287 0
M  V30 36 C -3.547330 1.104563 -7.031880 0
M  V30 37 C -2.994495 2.106933 -6.032735 0
M  V30 38 C -1.527375 1.784632 -5.764659 0
M  V30 39 C -1.386533 0.447491 -5.071771 0
M  V30 40 H -1.258424 -3.964911 2.728227 0
M  V30 41 H -2.543444 -5.101833 2.336591 0
M  V30 42 H -0.765195 -5.601565 2.278441 0
M  V30 43 H 0.709713 -4.012964 2.007848 0
M  V30 44 H 3.224602 -4.365474 2.992855 0
M  V30 45 H 2.746294 -3.786262 5.303925 0
M  V30 46 H 1.342545 0.233269 7.425006 0
M  V30 47 H 0.762164 1.704777 8.728508 0
M  V30 48 H 0.034239 3.651332 10.138292 0
M  V30 49 H -0.444093 5.841160 9.119666 0
M  V30 50 H 0.504424 4.221644 5.322542 0
M  V30 51 H 2.319422 -0.848224 2.273540 0
M  V30 52 H 5.068343 -1.545365 -0.911383 0
M  V30 53 H 0.910129 -2.496231 -2.588569 0
M  V30 54 H -1.388584 -3.929625 -3.865813 0
M  V30 55 H -3.001470 -3.675660 -3.186199 0
M  V30 56 H -0.952469 -1.460574 -3.508117 0
M  V30 57 H -2.583782 -1.298854 -2.808484 0
M  V30 58 H -3.512951 -2.108135 -4.953771 0
M  V30 59 H -1.911520 -2.383646 -5.639174 0
M  V30 60 H -2.081554 -0.435886 -7.388576 0
M  V30 61 H -3.728090 -1.045917 -6.927146 0
M  V30 62 H -4.635835 1.050351 -6.891721 0
M  V30 63 H -3.304906 1.471520 -8.031972 0
M  V30 64 H -3.076954 3.107089 -6.482182 0
M  V30 65 H -3.559888 2.106622 -5.088402 0
M  V30 66 H -0.994212 1.723752 -6.735240 0
M  V30 67 H -1.084539 2.621894 -5.202522 0
M  V30 68 H -1.371223 0.656588 -3.983623 0
M  V30 69 H -0.436755 -0.008961 -5.387398 0
M  V30 END ATOM
M  V30 BEGIN BOND
M  V30 1 1 1 2
M  V30 2 1 2 3
M  V30 3 2 3 4
M  V30 4 1 4 5
M  V30 5 2 5 6
M  V30 6 1 6 7
M  V30 7 1 7 8
M  V30 8 2 8 9
M  V30 9 1 9 10
M  V30 10 2 10 11
M  V30 11 1 11 12
M  V30 12 1 12 13
M  V30 13 2 13 14
M  V30 14 1 13 15
M  V30 15 2 15 16
M  V30 16 1 16 17
M  V30 17 2 17 18
M  V30 18 1 18 19
M  V30 19 1 19 20
M  V30 20 2 19 21
M  V30 21 1 11 22
M  V30 22 2 22 23
M  V30 23 1 6 24
M  V30 24 2 24 25
M  V30 25 1 25 26
M  V30 26 2 26 27
M  V30 27 1 27 28
M  V30 28 2 28 29
M  V30 29 1 29 30
M  V30 30 1 30 31
M  V30 31 1 31 32
M  V30 32 1 32 33
M  V30 33 1 33 34
M  V30 34 1 34 35
M  V30 35 1 35 36
M  V30 36 1 36 37
M  V30 37 1 37 38
M  V30 38 1 38 39
M  V30 39 1 29 3
M  V30 40 1 39 34
M  V30 41 1 27 5
M  V30 42 1 23 8
M  V30 43 1 21 15
M  V30 44 1 1 40
M  V30 45 1 1 41
M  V30 46 1 1 42
M  V30 47 1 4 43
M  V30 48 1 7 44
M  V30 49 1 9 45
M  V30 50 1 12 46
M  V30 51 1 16 47
M  V30 52 1 17 48
M  V30 53 1 18 49
M  V30 54 1 21 50
M  V30 55 1 23 51
M  V30 56 1 25 52
M  V30 57 1 28 53
M  V30 58 1 31 54
M  V30 59 1 31 55
M  V30 60 1 32 56
M  V30 61 1 32 57
M  V30 62 1 33 58
M  V30 63 1 33 59
M  V30 64 1 35 60
M  V30 65 1 35 61
M  V30 66 1 36 62
M  V30 67 1 36 63
M  V30 68 1 37 64
M  V30 69 1 37 65
M  V30 70 1 38 66
M  V30 71 1 38 67
M  V30 72 1 39 68
M  V30 73 1 39 69
M  V30 END BOND
M  V30 END CTAB
M  END
>  <Dataset>  (571) 
ChEMBL_Kinases

>  <Ligand_Instance>  (571) 
nan

>  <PDB_ID>  (571) 
nan

>  <Standardized_SMILES>  (571) 
COc1cc2c(Nc3cnc(NC(=O)c4cccc(Cl)c4)nc3)ncnc2cc1OCCCN1CCCCC1

>  <Name>  (571) 
nan

>  <Pocket>  (571) 
nan

>  <ATP_Site>  (571) 
nan

>  <Peripheral>  (571) 
nan

>  <Num_H_Atoms_ProtBoundConf>  (571) 
nan

>  <Num_Resolved_Atoms>  (571) 
nan

>  <Num_Not_Resolved_Atoms>  (571) 
nan

$$$$
CHEMBL203932
     RDKit          3D

  0  0  0  0  0  0  0  0  0  0999 V3000
M  V30 BEGIN CTAB
M  V30 COUNTS 55 58 0 0 0
M  V30 BEGIN ATOM
M  V30 1 N 0.075674 -5.356744 1.924998 0
M  V30 2 C -0.247274 -4.730426 0.693344 0
M  V30 3 C 0.089634 -3.543886 0.075599 0
M  V30 4 C 0.971999 -2.611632 0.753130 0
M  V30 5 O 1.321985 -2.915349 1.928164 0
M  V30 6 C 1.525259 -1.357852 0.280428 0
M  V30 7 C 1.745858 -0.991474 -1.028323 0
M  V30 8 C 2.246920 0.218086 -1.446391 0
M  V30 9 C 2.568101 1.170157 -0.507360 0
M  V30 10 C 2.367569 0.858499 0.822788 0
M  V30 11 C 2.737312 1.948346 1.761922 0
M  V30 12 C 1.521544 2.822317 1.995161 0
M  V30 13 C 0.974280 3.447174 0.753432 0
M  V30 14 N -0.176176 4.277458 0.982653 0
M  V30 15 C 0.106983 5.491593 1.699961 0
M  V30 16 C -0.818146 6.594952 1.181888 0
M  V30 17 O -2.124782 6.149806 1.086558 0
M  V30 18 C -2.269762 5.191970 0.105108 0
M  V30 19 C -0.902620 4.593736 -0.224261 0
M  V30 20 C 1.864322 -0.365767 1.178933 0
M  V30 21 C -0.573963 -3.541446 -1.133415 0
M  V30 22 N -1.282564 -4.678365 -1.244702 0
M  V30 23 N -1.091507 -5.412690 -0.135878 0
M  V30 24 C -1.746727 -6.673121 -0.022974 0
M  V30 25 C -2.283548 -7.108022 1.188051 0
M  V30 26 C -2.917349 -8.344479 1.244165 0
M  V30 27 C -3.016510 -9.134432 0.119519 0
M  V30 28 F -3.617722 -10.361740 0.068830 0
M  V30 29 C -2.496183 -8.738992 -1.105168 0
M  V30 30 C -1.869772 -7.502536 -1.132941 0
M  V30 31 H 0.540380 -6.276723 2.084398 0
M  V30 32 H -0.164213 -4.870488 2.819621 0
M  V30 33 H 1.528754 -1.690102 -1.819970 0
M  V30 34 H 2.394534 0.440708 -2.499878 0
M  V30 35 H 2.962150 2.111615 -0.846443 0
M  V30 36 H 2.929643 1.444894 2.744468 0
M  V30 37 H 3.603529 2.512178 1.394558 0
M  V30 38 H 1.801434 3.609237 2.726641 0
M  V30 39 H 0.747129 2.179108 2.475247 0
M  V30 40 H 1.763587 4.107559 0.293163 0
M  V30 41 H 0.683461 2.656515 0.018289 0
M  V30 42 H 1.160854 5.836852 1.573246 0
M  V30 43 H -0.075512 5.384752 2.795535 0
M  V30 44 H -0.771364 7.444515 1.909125 0
M  V30 45 H -0.470145 6.929980 0.202111 0
M  V30 46 H -2.658694 5.622041 -0.835993 0
M  V30 47 H -2.910217 4.338818 0.424386 0
M  V30 48 H -0.327170 5.237004 -0.911915 0
M  V30 49 H -1.116551 3.654962 -0.806649 0
M  V30 50 H 1.741595 -0.521192 2.251360 0
M  V30 51 H -0.530390 -2.750580 -1.855741 0
M  V30 52 H -2.216632 -6.507099 2.073487 0
M  V30 53 H -3.346568 -8.719829 2.155010 0
M  V30 54 H -2.552535 -9.330969 -2.020189 0
M  V30 55 H -1.454808 -7.179835 -2.099839 0
M  V30 END ATOM
M  V30 BEGIN BOND
M  V30 1 1 1 2
M  V30 2 2 2 3
M  V30 3 1 3 4
M  V30 4 2 4 5
M  V30 5 1 4 6
M  V30 6 2 6 7
M  V30 7 1 7 8
M  V30 8 2 8 9
M  V30 9 1 9 10
M  V30 10 1 10 11
M  V30 11 1 11 12
M  V30 12 1 12 13
M  V30 13 1 13 14
M  V30 14 1 14 15
M  V30 15 1 15 16
M  V30 16 1 16 17
M  V30 17 1 17 18
M  V30 18 1 18 19
M  V30 19 2 10 20
M  V30 20 1 3 21
M  V30 21 2 21 22
M  V30 22 1 22 23
M  V30 23 1 23 24
M  V30 24 2 24 25
M  V30 25 1 25 26
M  V30 26 2 26 27
M  V30 27 1 27 28
M  V30 28 1 27 29
M  V30 29 2 29 30
M  V30 30 1 23 2
M  V30 31 1 30 24
M  V30 32 1 20 6
M  V30 33 1 19 14
M  V30 34 1 1 31
M  V30 35 1 1 32
M  V30 36 1 7 33
M  V30 37 1 8 34
M  V30 38 1 9 35
M  V30 39 1 11 36
M  V30 40 1 11 37
M  V30 41 1 12 38
M  V30 42 1 12 39
M  V30 43 1 13 40
M  V30 44 1 13 41
M  V30 45 1 15 42
M  V30 46 1 15 43
M  V30 47 1 16 44
M  V30 48 1 16 45
M  V30 49 1 18 46
M  V30 50 1 18 47
M  V30 51 1 19 48
M  V30 52 1 19 49
M  V30 53 1 20 50
M  V30 54 1 21 51
M  V30 55 1 25 52
M  V30 56 1 26 53
M  V30 57 1 29 54
M  V30 58 1 30 55
M  V30 END BOND
M  V30 END CTAB
M  END
>  <Dataset>  (572) 
ChEMBL_Kinases

>  <Ligand_Instance>  (572) 
nan

>  <PDB_ID>  (572) 
nan

>  <Standardized_SMILES>  (572) 
Nc1c(C(=O)c2cccc(CCCN3CCOCC3)c2)cnn1-c1ccc(F)cc1

>  <Name>  (572) 
nan

>  <Pocket>  (572) 
nan

>  <ATP_Site>  (572) 
nan

>  <Peripheral>  (572) 
nan

>  <Num_H_Atoms_ProtBoundConf>  (572) 
nan

>  <Num_Resolved_Atoms>  (572) 
nan

>  <Num_Not_Resolved_Atoms>  (572) 
nan

$$$$
CHEMBL203926
     RDKit          3D

  0  0  0  0  0  0  0  0  0  0999 V3000
M  V30 BEGIN CTAB
M  V30 COUNTS 42 45 0 0 0
M  V30 BEGIN ATOM
M  V30 1 N -2.051903 -3.218489 0.403001 0
M  V30 2 C -0.754582 -2.679364 0.348028 0
M  V30 3 C -0.263271 -1.394268 0.294917 0
M  V30 4 C -1.174686 -0.266460 0.279106 0
M  V30 5 O -2.417780 -0.512834 0.269074 0
M  V30 6 C -0.915718 1.159416 0.271462 0
M  V30 7 C -1.834393 2.004580 -0.322986 0
M  V30 8 C -1.647615 3.393654 -0.356961 0
M  V30 9 C -0.530563 3.972765 0.206523 0
M  V30 10 C 0.401001 3.151316 0.805999 0
M  V30 11 C 1.598570 3.733038 1.414261 0
M  V30 12 C 1.628731 4.987622 2.006676 0
M  V30 13 C 2.817453 5.442412 2.553232 0
M  V30 14 C 3.973057 4.681964 2.524828 0
M  V30 15 N 3.944781 3.469681 1.952634 0
M  V30 16 C 2.786475 3.009029 1.411962 0
M  V30 17 C 0.170287 1.807940 0.811305 0
M  V30 18 C 1.108873 -1.481971 0.256218 0
M  V30 19 N 1.435766 -2.791390 0.285856 0
M  V30 20 N 0.311655 -3.516731 0.341279 0
M  V30 21 C 0.417076 -4.932779 0.380390 0
M  V30 22 C 1.120346 -5.596383 -0.611036 0
M  V30 23 C 1.251278 -6.977457 -0.614529 0
M  V30 24 C 0.660776 -7.713578 0.404164 0
M  V30 25 F 0.807717 -9.061616 0.371299 0
M  V30 26 C -0.045249 -7.091891 1.405999 0
M  V30 27 C -0.138727 -5.714280 1.352190 0
M  V30 28 F -0.831486 -5.103601 2.334990 0
M  V30 29 H -2.856490 -2.789526 0.947375 0
M  V30 30 H -2.326204 -4.096612 -0.095891 0
M  V30 31 H -2.740175 1.635258 -0.790092 0
M  V30 32 H -2.373495 4.042711 -0.824723 0
M  V30 33 H -0.419285 5.039752 0.162143 0
M  V30 34 H 0.722865 5.571972 2.023563 0
M  V30 35 H 2.792019 6.431293 3.006296 0
M  V30 36 H 4.859931 5.134718 2.985186 0
M  V30 37 H 2.771138 2.028775 0.951447 0
M  V30 38 H 0.925533 1.217130 1.300782 0
M  V30 39 H 1.795561 -0.658435 0.206708 0
M  V30 40 H 1.578211 -4.998954 -1.405102 0
M  V30 41 H 1.808857 -7.431051 -1.411643 0
M  V30 42 H -0.501441 -7.679903 2.195785 0
M  V30 END ATOM
M  V30 BEGIN BOND
M  V30 1 1 1 2
M  V30 2 2 2 3
M  V30 3 1 3 4
M  V30 4 2 4 5
M  V30 5 1 4 6
M  V30 6 2 6 7
M  V30 7 1 7 8
M  V30 8 2 8 9
M  V30 9 1 9 10
M  V30 10 1 10 11
M  V30 11 2 11 12
M  V30 12 1 12 13
M  V30 13 2 13 14
M  V30 14 1 14 15
M  V30 15 2 15 16
M  V30 16 2 10 17
M  V30 17 1 3 18
M  V30 18 2 18 19
M  V30 19 1 19 20
M  V30 20 1 20 21
M  V30 21 2 21 22
M  V30 22 1 22 23
M  V30 23 2 23 24
M  V30 24 1 24 25
M  V30 25 1 24 26
M  V30 26 2 26 27
M  V30 27 1 27 28
M  V30 28 1 20 2
M  V30 29 1 27 21
M  V30 30 1 17 6
M  V30 31 1 16 11
M  V30 32 1 1 29
M  V30 33 1 1 30
M  V30 34 1 7 31
M  V30 35 1 8 32
M  V30 36 1 9 33
M  V30 37 1 12 34
M  V30 38 1 13 35
M  V30 39 1 14 36
M  V30 40 1 16 37
M  V30 41 1 17 38
M  V30 42 1 18 39
M  V30 43 1 22 40
M  V30 44 1 23 41
M  V30 45 1 26 42
M  V30 END BOND
M  V30 END CTAB
M  END
>  <Dataset>  (573) 
ChEMBL_Kinases

>  <Ligand_Instance>  (573) 
nan

>  <PDB_ID>  (573) 
nan

>  <Standardized_SMILES>  (573) 
Nc1c(C(=O)c2cccc(-c3cccnc3)c2)cnn1-c1ccc(F)cc1F

>  <Name>  (573) 
nan

>  <Pocket>  (573) 
nan

>  <ATP_Site>  (573) 
nan

>  <Peripheral>  (573) 
nan

>  <Num_H_Atoms_ProtBoundConf>  (573) 
nan

>  <Num_Resolved_Atoms>  (573) 
nan

>  <Num_Not_Resolved_Atoms>  (573) 
nan

$$$$
CHEMBL203908
     RDKit          3D

  0  0  0  0  0  0  0  0  0  0999 V3000
M  V30 BEGIN CTAB
M  V30 COUNTS 53 56 0 0 0
M  V30 BEGIN ATOM
M  V30 1 N 0.719475 -4.986891 1.165660 0
M  V30 2 C -0.211967 -4.312185 0.320783 0
M  V30 3 C -0.143489 -3.009973 -0.111107 0
M  V30 4 C 0.859106 -2.024203 0.188559 0
M  V30 5 O 1.728025 -2.483438 0.977521 0
M  V30 6 C 1.012896 -0.660623 -0.252066 0
M  V30 7 C 0.547586 -0.041909 -1.387977 0
M  V30 8 C 0.710118 1.283500 -1.708287 0
M  V30 9 C 1.402416 2.052461 -0.806510 0
M  V30 10 C 1.921942 1.535284 0.377723 0
M  V30 11 C 2.611378 2.469398 1.239783 0
M  V30 12 C 1.928557 3.091539 2.373677 0
M  V30 13 C 0.713439 3.907764 2.186383 0
M  V30 14 O 0.360545 4.356421 3.504177 0
M  V30 15 C -0.510505 3.248664 1.651344 0
M  V30 16 C -1.068062 4.058265 0.521295 0
M  V30 17 C -0.411153 5.406562 0.669164 0
M  V30 18 C 0.902201 5.164757 1.366615 0
M  V30 19 C 1.698876 0.207888 0.589622 0
M  V30 20 C -1.261313 -2.841861 -0.887667 0
M  V30 21 N -1.954846 -3.988689 -0.912594 0
M  V30 22 N -1.321166 -4.904628 -0.172103 0
M  V30 23 C -1.822312 -6.238129 0.002372 0
M  V30 24 C -1.024147 -7.292680 0.402742 0
M  V30 25 C -1.557356 -8.569814 0.565900 0
M  V30 26 C -2.899260 -8.682095 0.301538 0
M  V30 27 F -3.402362 -9.947796 0.469468 0
M  V30 28 C -3.778654 -7.701689 -0.100511 0
M  V30 29 C -3.173197 -6.466565 -0.238263 0
M  V30 30 H 0.789852 -5.239120 2.178273 0
M  V30 31 H 1.629576 -5.399634 0.824072 0
M  V30 32 H 0.023033 -0.644771 -2.088547 0
M  V30 33 H 0.299103 1.670452 -2.634118 0
M  V30 34 H 1.532644 3.106103 -1.058218 0
M  V30 35 H 3.110150 3.295555 0.647008 0
M  V30 36 H 3.505983 1.907296 1.658609 0
M  V30 37 H 1.812539 2.363977 3.243463 0
M  V30 38 H 2.689254 3.811986 2.834080 0
M  V30 39 H 0.086454 3.574134 4.055535 0
M  V30 40 H -1.331168 3.246812 2.445067 0
M  V30 41 H -0.433611 2.211430 1.350189 0
M  V30 42 H -0.954727 3.611902 -0.479462 0
M  V30 43 H -2.184456 4.219013 0.632272 0
M  V30 44 H -0.237909 5.862092 -0.323602 0
M  V30 45 H -1.057294 6.047005 1.272582 0
M  V30 46 H 1.207112 6.037440 1.953673 0
M  V30 47 H 1.663660 4.964026 0.558944 0
M  V30 48 H 2.113204 -0.168234 1.515621 0
M  V30 49 H -1.695122 -2.035913 -1.449212 0
M  V30 50 H 0.019259 -7.158661 0.595639 0
M  V30 51 H -0.947502 -9.397801 0.876896 0
M  V30 52 H -4.822681 -7.901978 -0.281455 0
M  V30 53 H -3.808057 -5.626427 -0.556946 0
M  V30 END ATOM
M  V30 BEGIN BOND
M  V30 1 1 1 2
M  V30 2 2 2 3
M  V30 3 1 3 4
M  V30 4 2 4 5
M  V30 5 1 4 6
M  V30 6 2 6 7
M  V30 7 1 7 8
M  V30 8 2 8 9
M  V30 9 1 9 10
M  V30 10 1 10 11
M  V30 11 1 11 12
M  V30 12 1 12 13
M  V30 13 1 13 14
M  V30 14 1 13 15
M  V30 15 1 15 16
M  V30 16 1 16 17
M  V30 17 1 17 18
M  V30 18 2 10 19
M  V30 19 1 3 20
M  V30 20 2 20 21
M  V30 21 1 21 22
M  V30 22 1 22 23
M  V30 23 2 23 24
M  V30 24 1 24 25
M  V30 25 2 25 26
M  V30 26 1 26 27
M  V30 27 1 26 28
M  V30 28 2 28 29
M  V30 29 1 22 2
M  V30 30 1 29 23
M  V30 31 1 19 6
M  V30 32 1 18 13
M  V30 33 1 1 30
M  V30 34 1 1 31
M  V30 35 1 7 32
M  V30 36 1 8 33
M  V30 37 1 9 34
M  V30 38 1 11 35
M  V30 39 1 11 36
M  V30 40 1 12 37
M  V30 41 1 12 38
M  V30 42 1 14 39
M  V30 43 1 15 40
M  V30 44 1 15 41
M  V30 45 1 16 42
M  V30 46 1 16 43
M  V30 47 1 17 44
M  V30 48 1 17 45
M  V30 49 1 18 46
M  V30 50 1 18 47
M  V30 51 1 19 48
M  V30 52 1 20 49
M  V30 53 1 24 50
M  V30 54 1 25 51
M  V30 55 1 28 52
M  V30 56 1 29 53
M  V30 END BOND
M  V30 END CTAB
M  END
>  <Dataset>  (574) 
ChEMBL_Kinases

>  <Ligand_Instance>  (574) 
nan

>  <PDB_ID>  (574) 
nan

>  <Standardized_SMILES>  (574) 
Nc1c(C(=O)c2cccc(CCC3(O)CCCC3)c2)cnn1-c1ccc(F)cc1

>  <Name>  (574) 
nan

>  <Pocket>  (574) 
nan

>  <ATP_Site>  (574) 
nan

>  <Peripheral>  (574) 
nan

>  <Num_H_Atoms_ProtBoundConf>  (574) 
nan

>  <Num_Resolved_Atoms>  (574) 
nan

>  <Num_Not_Resolved_Atoms>  (574) 
nan

$$$$
CHEMBL203864
     RDKit          3D

  0  0  0  0  0  0  0  0  0  0999 V3000
M  V30 BEGIN CTAB
M  V30 COUNTS 37 39 0 0 0
M  V30 BEGIN ATOM
M  V30 1 C 1.913884 -7.460350 0.518770 0
M  V30 2 O 1.146044 -6.721520 1.459461 0
M  V30 3 C 1.063007 -5.335782 1.423841 0
M  V30 4 C 1.701140 -4.538366 0.492527 0
M  V30 5 C 1.545012 -3.150240 0.554000 0
M  V30 6 C 0.756964 -2.554356 1.538115 0
M  V30 7 N 0.747765 -1.139019 1.402821 0
M  V30 8 N 1.486813 -0.142733 1.849778 0
M  V30 9 C 1.022743 1.035754 1.410486 0
M  V30 10 C -0.080061 0.779671 0.635246 0
M  V30 11 C -0.854536 1.831939 0.017446 0
M  V30 12 O -1.909506 1.329000 -0.502096 0
M  V30 13 C -0.652798 3.258304 -0.104235 0
M  V30 14 C 0.537090 3.949615 -0.075973 0
M  V30 15 C 0.695216 5.301941 -0.173220 0
M  V30 16 C -0.487643 6.018554 -0.314135 0
M  V30 17 C -1.715134 5.400836 -0.351417 0
M  V30 18 C -1.801720 4.043681 -0.248484 0
M  V30 19 C -0.239382 -0.573028 0.639228 0
M  V30 20 N -1.295907 -1.262331 -0.067543 0
M  V30 21 C 0.122289 -3.353872 2.465061 0
M  V30 22 C 0.284875 -4.739407 2.394608 0
M  V30 23 H 2.129271 -8.468193 0.894246 0
M  V30 24 H 2.837094 -6.931760 0.224155 0
M  V30 25 H 1.273375 -7.590856 -0.384371 0
M  V30 26 H 2.308634 -5.023586 -0.265254 0
M  V30 27 H 2.091645 -2.633195 -0.226588 0
M  V30 28 H 1.609154 1.859201 1.769545 0
M  V30 29 H 1.434874 3.366108 0.021281 0
M  V30 30 H 1.683062 5.741163 -0.139932 0
M  V30 31 H -0.424993 7.095150 -0.396849 0
M  V30 32 H -2.586635 6.049595 -0.465315 0
M  V30 33 H -2.806438 3.661302 -0.288232 0
M  V30 34 H -1.110913 -1.416878 -1.083920 0
M  V30 35 H -2.128189 -1.535442 0.492307 0
M  V30 36 H -0.459515 -2.797249 3.178587 0
M  V30 37 H -0.238932 -5.310075 3.149026 0
M  V30 END ATOM
M  V30 BEGIN BOND
M  V30 1 1 1 2
M  V30 2 1 2 3
M  V30 3 2 3 4
M  V30 4 1 4 5
M  V30 5 2 5 6
M  V30 6 1 6 7
M  V30 7 1 7 8
M  V30 8 2 8 9
M  V30 9 1 9 10
M  V30 10 1 10 11
M  V30 11 2 11 12
M  V30 12 1 11 13
M  V30 13 2 13 14
M  V30 14 1 14 15
M  V30 15 2 15 16
M  V30 16 1 16 17
M  V30 17 2 17 18
M  V30 18 2 10 19
M  V30 19 1 19 20
M  V30 20 1 6 21
M  V30 21 2 21 22
M  V30 22 1 22 3
M  V30 23 1 19 7
M  V30 24 1 18 13
M  V30 25 1 1 23
M  V30 26 1 1 24
M  V30 27 1 1 25
M  V30 28 1 4 26
M  V30 29 1 5 27
M  V30 30 1 9 28
M  V30 31 1 14 29
M  V30 32 1 15 30
M  V30 33 1 16 31
M  V30 34 1 17 32
M  V30 35 1 18 33
M  V30 36 1 20 34
M  V30 37 1 20 35
M  V30 38 1 21 36
M  V30 39 1 22 37
M  V30 END BOND
M  V30 END CTAB
M  END
>  <Dataset>  (575) 
ChEMBL_Kinases

>  <Ligand_Instance>  (575) 
nan

>  <PDB_ID>  (575) 
nan

>  <Standardized_SMILES>  (575) 
COc1ccc(-n2ncc(C(=O)c3ccccc3)c2N)cc1

>  <Name>  (575) 
nan

>  <Pocket>  (575) 
nan

>  <ATP_Site>  (575) 
nan

>  <Peripheral>  (575) 
nan

>  <Num_H_Atoms_ProtBoundConf>  (575) 
nan

>  <Num_Resolved_Atoms>  (575) 
nan

>  <Num_Not_Resolved_Atoms>  (575) 
nan

$$$$
CHEMBL203847
     RDKit          3D

  0  0  0  0  0  0  0  0  0  0999 V3000
M  V30 BEGIN CTAB
M  V30 COUNTS 32 35 0 0 0
M  V30 BEGIN ATOM
M  V30 1 O -1.924170 -1.909195 2.524706 0
M  V30 2 C -1.043060 -1.283098 1.696285 0
M  V30 3 C -0.047695 -2.022117 1.042921 0
M  V30 4 C 0.870033 -1.440189 0.193780 0
M  V30 5 C 1.902130 -2.217357 -0.481587 0
M  V30 6 C 2.068533 -3.568903 -0.350979 0
M  V30 7 C 3.049919 -4.293149 -0.996051 0
M  V30 8 C 3.943248 -3.627782 -1.841953 0
M  V30 9 C 3.791558 -2.265910 -1.986370 0
M  V30 10 Br 4.994850 -1.343063 -3.130989 0
M  V30 11 C 2.792098 -1.578618 -1.319596 0
M  V30 12 N 0.786406 -0.113197 0.001623 0
M  V30 13 C -0.134901 0.675645 0.585906 0
M  V30 14 C -0.139791 2.038927 0.323555 0
M  V30 15 C -1.106577 2.814352 0.946901 0
M  V30 16 C -2.029669 2.240707 1.798723 0
M  V30 17 N -3.053576 2.779979 2.513974 0
M  V30 18 C -3.663716 1.792762 3.195769 0
M  V30 19 C -3.009930 0.612149 2.902403 0
M  V30 20 C -1.983142 0.881173 2.026973 0
M  V30 21 C -1.041950 0.069689 1.431181 0
M  V30 22 H -1.651881 -2.239814 3.452287 0
M  V30 23 H -0.037217 -3.075058 1.240172 0
M  V30 24 H 1.415896 -4.122056 0.280111 0
M  V30 25 H 3.161974 -5.353581 -0.878747 0
M  V30 26 H 4.732096 -4.140595 -2.374015 0
M  V30 27 H 2.697303 -0.509222 -1.452485 0
M  V30 28 H 0.600834 2.449663 -0.350218 0
M  V30 29 H -1.104736 3.885479 0.736215 0
M  V30 30 H -3.265995 3.819416 2.481194 0
M  V30 31 H -4.527798 1.986281 3.850465 0
M  V30 32 H -3.343190 -0.287617 3.345222 0
M  V30 END ATOM
M  V30 BEGIN BOND
M  V30 1 1 1 2
M  V30 2 2 2 3
M  V30 3 1 3 4
M  V30 4 1 4 5
M  V30 5 2 5 6
M  V30 6 1 6 7
M  V30 7 2 7 8
M  V30 8 1 8 9
M  V30 9 1 9 10
M  V30 10 2 9 11
M  V30 11 2 4 12
M  V30 12 1 12 13
M  V30 13 2 13 14
M  V30 14 1 14 15
M  V30 15 2 15 16
M  V30 16 1 16 17
M  V30 17 1 17 18
M  V30 18 2 18 19
M  V30 19 1 19 20
M  V30 20 2 20 21
M  V30 21 1 21 2
M  V30 22 1 11 5
M  V30 23 1 21 13
M  V30 24 1 20 16
M  V30 25 1 1 22
M  V30 26 1 3 23
M  V30 27 1 6 24
M  V30 28 1 7 25
M  V30 29 1 8 26
M  V30 30 1 11 27
M  V30 31 1 14 28
M  V30 32 1 15 29
M  V30 33 1 17 30
M  V30 34 1 18 31
M  V30 35 1 19 32
M  V30 END BOND
M  V30 END CTAB
M  END
>  <Dataset>  (576) 
ChEMBL_Kinases

>  <Ligand_Instance>  (576) 
nan

>  <PDB_ID>  (576) 
nan

>  <Standardized_SMILES>  (576) 
Oc1cc(-c2cccc(Br)c2)nc2ccc3[nH]ccc3c12

>  <Name>  (576) 
nan

>  <Pocket>  (576) 
nan

>  <ATP_Site>  (576) 
nan

>  <Peripheral>  (576) 
nan

>  <Num_H_Atoms_ProtBoundConf>  (576) 
nan

>  <Num_Resolved_Atoms>  (576) 
nan

>  <Num_Not_Resolved_Atoms>  (576) 
nan

$$$$
CHEMBL203792
     RDKit          3D

  0  0  0  0  0  0  0  0  0  0999 V3000
M  V30 BEGIN CTAB
M  V30 COUNTS 48 51 0 0 0
M  V30 BEGIN ATOM
M  V30 1 N 3.250511 -2.085443 0.448417 0
M  V30 2 C 3.951064 -0.842393 0.641382 0
M  V30 3 C 4.084510 -0.530261 1.966470 0
M  V30 4 C 4.751248 0.649312 2.328779 0
M  V30 5 C 5.226009 1.405412 1.290082 0
M  V30 6 C 5.094485 1.094183 -0.044238 0
M  V30 7 C 4.439143 -0.061595 -0.415029 0
M  V30 8 N 4.166448 -0.638993 -1.685124 0
M  V30 9 C 2.798436 -0.812059 -2.049869 0
M  V30 10 C 1.786691 -0.305038 -1.262604 0
M  V30 11 C 0.424206 -0.453182 -1.527389 0
M  V30 12 C -0.569033 0.139153 -0.629759 0
M  V30 13 C -0.190821 1.327643 -0.030796 0
M  V30 14 C -1.033644 1.988462 0.848833 0
M  V30 15 N -2.255717 1.437114 1.115242 0
M  V30 16 C -2.575211 0.283262 0.510221 0
M  V30 17 N -3.860368 -0.207351 0.854554 0
M  V30 18 C -3.885308 -0.857470 2.115473 0
M  V30 19 C -2.747056 -0.972006 2.907275 0
M  V30 20 C -2.711116 -1.592255 4.160569 0
M  V30 21 C -3.883930 -2.127472 4.644360 0
M  V30 22 C -5.037324 -2.043491 3.902066 0
M  V30 23 C -5.022460 -1.421455 2.670378 0
M  V30 24 N -6.249635 -1.360520 1.928593 0
M  V30 25 C -1.802841 -0.435997 -0.373929 0
M  V30 26 C 0.108394 -1.163766 -2.668756 0
M  V30 27 C 1.134478 -1.678488 -3.467692 0
M  V30 28 N 2.458459 -1.510890 -3.173483 0
M  V30 29 H 3.891421 -2.773567 0.030537 0
M  V30 30 H 2.288788 -2.454641 0.616669 0
M  V30 31 H 3.714095 -1.120587 2.791469 0
M  V30 32 H 4.879092 0.933385 3.348706 0
M  V30 33 H 5.751625 2.333965 1.482761 0
M  V30 34 H 5.440877 1.640193 -0.906219 0
M  V30 35 H 4.921259 -0.932084 -2.341450 0
M  V30 36 H 2.007199 0.261526 -0.367446 0
M  V30 37 H 0.756235 1.847879 -0.174815 0
M  V30 38 H -0.759075 2.929238 1.331583 0
M  V30 39 H -4.762165 -0.172246 0.346806 0
M  V30 40 H -1.803758 -0.575145 2.581632 0
M  V30 41 H -1.816718 -1.655943 4.730977 0
M  V30 42 H -3.895384 -2.613300 5.612283 0
M  V30 43 H -5.962633 -2.474757 4.307085 0
M  V30 44 H -7.009192 -0.683597 2.121293 0
M  V30 45 H -6.537639 -1.979405 1.111653 0
M  V30 46 H -2.079694 -1.361531 -0.848813 0
M  V30 47 H -0.936473 -1.305778 -2.919836 0
M  V30 48 H 0.806549 -2.235233 -4.364176 0
M  V30 END ATOM
M  V30 BEGIN BOND
M  V30 1 1 1 2
M  V30 2 2 2 3
M  V30 3 1 3 4
M  V30 4 2 4 5
M  V30 5 1 5 6
M  V30 6 2 6 7
M  V30 7 1 7 8
M  V30 8 1 8 9
M  V30 9 2 9 10
M  V30 10 1 10 11
M  V30 11 1 11 12
M  V30 12 2 12 13
M  V30 13 1 13 14
M  V30 14 2 14 15
M  V30 15 1 15 16
M  V30 16 1 16 17
M  V30 17 1 17 18
M  V30 18 2 18 19
M  V30 19 1 19 20
M  V30 20 2 20 21
M  V30 21 1 21 22
M  V30 22 2 22 23
M  V30 23 1 23 24
M  V30 24 2 16 25
M  V30 25 2 11 26
M  V30 26 1 26 27
M  V30 27 2 27 28
M  V30 28 1 7 2
M  V30 29 1 28 9
M  V30 30 1 25 12
M  V30 31 1 23 18
M  V30 32 1 1 29
M  V30 33 1 1 30
M  V30 34 1 3 31
M  V30 35 1 4 32
M  V30 36 1 5 33
M  V30 37 1 6 34
M  V30 38 1 8 35
M  V30 39 1 10 36
M  V30 40 1 13 37
M  V30 41 1 14 38
M  V30 42 1 17 39
M  V30 43 1 19 40
M  V30 44 1 20 41
M  V30 45 1 21 42
M  V30 46 1 22 43
M  V30 47 1 24 44
M  V30 48 1 24 45
M  V30 49 1 25 46
M  V30 50 1 26 47
M  V30 51 1 27 48
M  V30 END BOND
M  V30 END CTAB
M  END
>  <Dataset>  (577) 
ChEMBL_Kinases

>  <Ligand_Instance>  (577) 
nan

>  <PDB_ID>  (577) 
nan

>  <Standardized_SMILES>  (577) 
Nc1ccccc1Nc1cc(-c2ccnc(Nc3ccccc3N)c2)ccn1

>  <Name>  (577) 
nan

>  <Pocket>  (577) 
nan

>  <ATP_Site>  (577) 
nan

>  <Peripheral>  (577) 
nan

>  <Num_H_Atoms_ProtBoundConf>  (577) 
nan

>  <Num_Resolved_Atoms>  (577) 
nan

>  <Num_Not_Resolved_Atoms>  (577) 
nan

$$$$
CHEMBL203791
     RDKit          3D

  0  0  0  0  0  0  0  0  0  0999 V3000
M  V30 BEGIN CTAB
M  V30 COUNTS 64 68 0 0 0
M  V30 BEGIN ATOM
M  V30 1 C 4.340789 -0.886797 1.643344 0
M  V30 2 C 4.237309 -2.346117 1.978535 0
M  V30 3 N 2.892937 -2.826357 2.128764 0
M  V30 4 C 2.203945 -2.312859 3.272288 0
M  V30 5 C 2.710519 -2.764568 4.588227 0
M  V30 6 C 2.068521 -2.549368 0.966365 0
M  V30 7 C 2.467790 -3.324539 -0.236938 0
M  V30 8 C 1.552808 -2.981972 -1.384638 0
M  V30 9 N 1.585694 -1.578975 -1.725387 0
M  V30 10 C 2.526794 -1.128251 -2.600482 0
M  V30 11 N 2.391993 0.206733 -2.766569 0
M  V30 12 C 1.369291 0.622428 -2.004505 0
M  V30 13 C 0.774317 1.846107 -1.770406 0
M  V30 14 C -0.293395 1.883371 -0.897380 0
M  V30 15 C -0.803749 0.771943 -0.243085 0
M  V30 16 C -1.934852 0.907070 0.669168 0
M  V30 17 C -3.161981 0.332181 0.346501 0
M  V30 18 C -3.652044 -0.453808 -0.808194 0
M  V30 19 C -4.155914 -1.736044 -0.845875 0
M  V30 20 C -4.550561 -2.254151 -2.051619 0
M  V30 21 C -4.425867 -1.463199 -3.189846 0
M  V30 22 C -3.913856 -0.170647 -3.125857 0
M  V30 23 C -3.823095 0.592932 -4.407319 0
M  V30 24 N -3.536176 0.302407 -1.915342 0
M  V30 25 N -3.983095 0.616713 1.354043 0
M  V30 26 N -3.379988 1.325815 2.293459 0
M  V30 27 C -2.108453 1.518513 1.890660 0
M  V30 28 C -1.327074 2.309840 2.873618 0
M  V30 29 C -2.129558 2.065241 4.135890 0
M  V30 30 C -3.536719 1.981922 3.589291 0
M  V30 31 C -0.187816 -0.434725 -0.498075 0
M  V30 32 C 0.881391 -0.490763 -1.367989 0
M  V30 33 H 5.348881 -0.513513 1.936284 0
M  V30 34 H 3.527072 -0.275175 2.033902 0
M  V30 35 H 4.323043 -0.750100 0.532132 0
M  V30 36 H 4.801380 -2.587371 2.881310 0
M  V30 37 H 4.697325 -2.922704 1.146278 0
M  V30 38 H 2.189967 -1.203529 3.258372 0
M  V30 39 H 1.135496 -2.663893 3.167889 0
M  V30 40 H 3.357570 -1.957805 5.036771 0
M  V30 41 H 3.220589 -3.745217 4.606367 0
M  V30 42 H 1.858349 -2.835997 5.296614 0
M  V30 43 H 2.127129 -1.452527 0.823680 0
M  V30 44 H 1.024931 -2.788761 1.238108 0
M  V30 45 H 2.353605 -4.428521 -0.081958 0
M  V30 46 H 3.533275 -3.197581 -0.518951 0
M  V30 47 H 1.807263 -3.612180 -2.278794 0
M  V30 48 H 0.502971 -3.280458 -1.092503 0
M  V30 49 H 3.301866 -1.689800 -3.128154 0
M  V30 50 H 1.154579 2.733632 -2.269925 0
M  V30 51 H -0.801026 2.829809 -0.678289 0
M  V30 52 H -4.177199 -2.195642 0.131534 0
M  V30 53 H -4.935651 -3.253530 -2.026211 0
M  V30 54 H -4.735463 -1.870749 -4.126374 0
M  V30 55 H -4.840038 0.812466 -4.769203 0
M  V30 56 H -3.350132 -0.119550 -5.143989 0
M  V30 57 H -3.207658 1.501820 -4.312554 0
M  V30 58 H -0.299798 1.891787 2.959929 0
M  V30 59 H -1.316816 3.356601 2.555614 0
M  V30 60 H -1.824385 1.111544 4.573886 0
M  V30 61 H -1.977871 2.938156 4.788442 0
M  V30 62 H -3.966028 2.981095 3.421748 0
M  V30 63 H -4.166666 1.365279 4.286337 0
M  V30 64 H -0.555996 -1.343042 -0.005225 0
M  V30 END ATOM
M  V30 BEGIN BOND
M  V30 1 1 1 2
M  V30 2 1 2 3
M  V30 3 1 3 4
M  V30 4 1 4 5
M  V30 5 1 3 6
M  V30 6 1 6 7
M  V30 7 1 7 8
M  V30 8 1 8 9
M  V30 9 1 9 10
M  V30 10 2 10 11
M  V30 11 1 11 12
M  V30 12 2 12 13
M  V30 13 1 13 14
M  V30 14 2 14 15
M  V30 15 1 15 16
M  V30 16 1 16 17
M  V30 17 1 17 18
M  V30 18 2 18 19
M  V30 19 1 19 20
M  V30 20 2 20 21
M  V30 21 1 21 22
M  V30 22 1 22 23
M  V30 23 2 22 24
M  V30 24 2 17 25
M  V30 25 1 25 26
M  V30 26 1 26 27
M  V30 27 1 27 28
M  V30 28 1 28 29
M  V30 29 1 29 30
M  V30 30 1 15 31
M  V30 31 2 31 32
M  V30 32 1 32 9
M  V30 33 1 32 12
M  V30 34 2 27 16
M  V30 35 1 24 18
M  V30 36 1 30 26
M  V30 37 1 1 33
M  V30 38 1 1 34
M  V30 39 1 1 35
M  V30 40 1 2 36
M  V30 41 1 2 37
M  V30 42 1 4 38
M  V30 43 1 4 39
M  V30 44 1 5 40
M  V30 45 1 5 41
M  V30 46 1 5 42
M  V30 47 1 6 43
M  V30 48 1 6 44
M  V30 49 1 7 45
M  V30 50 1 7 46
M  V30 51 1 8 47
M  V30 52 1 8 48
M  V30 53 1 10 49
M  V30 54 1 13 50
M  V30 55 1 14 51
M  V30 56 1 19 52
M  V30 57 1 20 53
M  V30 58 1 21 54
M  V30 59 1 23 55
M  V30 60 1 23 56
M  V30 61 1 23 57
M  V30 62 1 28 58
M  V30 63 1 28 59
M  V30 64 1 29 60
M  V30 65 1 29 61
M  V30 66 1 30 62
M  V30 67 1 30 63
M  V30 68 1 31 64
M  V30 END BOND
M  V30 END CTAB
M  END
>  <Dataset>  (578) 
ChEMBL_Kinases

>  <Ligand_Instance>  (578) 
nan

>  <PDB_ID>  (578) 
nan

>  <Standardized_SMILES>  (578) 
CCN(CC)CCCn1cnc2ccc(-c3c(-c4cccc(C)n4)nn4c3CCC4)cc21

>  <Name>  (578) 
nan

>  <Pocket>  (578) 
nan

>  <ATP_Site>  (578) 
nan

>  <Peripheral>  (578) 
nan

>  <Num_H_Atoms_ProtBoundConf>  (578) 
nan

>  <Num_Resolved_Atoms>  (578) 
nan

>  <Num_Not_Resolved_Atoms>  (578) 
nan

$$$$
CHEMBL203770
     RDKit          3D

  0  0  0  0  0  0  0  0  0  0999 V3000
M  V30 BEGIN CTAB
M  V30 COUNTS 53 56 0 0 0
M  V30 BEGIN ATOM
M  V30 1 N -0.318471 -3.884390 0.929026 0
M  V30 2 C -0.843151 -3.345080 -0.285444 0
M  V30 3 C -0.443408 -2.209941 -0.940022 0
M  V30 4 C 0.584420 -1.264074 -0.572827 0
M  V30 5 O 1.065259 -1.590110 0.562545 0
M  V30 6 C 1.102632 -0.097260 -1.250205 0
M  V30 7 C 1.122878 0.195423 -2.592452 0
M  V30 8 C 1.628315 1.361154 -3.117131 0
M  V30 9 C 2.147733 2.289619 -2.216655 0
M  V30 10 C 2.165730 2.068633 -0.825333 0
M  V30 11 O 2.726666 3.145365 -0.261406 0
M  V30 12 C 3.039919 3.598509 0.995501 0
M  V30 13 C 1.961242 3.822516 1.963673 0
M  V30 14 N 1.114185 2.841081 2.420223 0
M  V30 15 C 1.599677 1.814591 3.277330 0
M  V30 16 C 0.614722 0.706158 3.553064 0
M  V30 17 O -0.673580 1.113443 3.763446 0
M  V30 18 C -1.111782 2.104271 2.894135 0
M  V30 19 C -0.181400 3.269014 2.883954 0
M  V30 20 C 1.632649 0.868118 -0.422211 0
M  V30 21 C -1.250322 -2.122399 -2.050315 0
M  V30 22 N -2.076233 -3.164183 -2.031196 0
M  V30 23 N -1.866214 -3.927811 -0.984678 0
M  V30 24 C -2.510205 -5.125597 -0.568531 0
M  V30 25 C -3.004054 -5.050001 0.737835 0
M  V30 26 C -3.662682 -6.146494 1.297403 0
M  V30 27 C -3.799212 -7.284554 0.513436 0
M  V30 28 F -4.456216 -8.306341 1.143232 0
M  V30 29 C -3.314035 -7.371208 -0.782489 0
M  V30 30 C -2.667623 -6.275168 -1.311939 0
M  V30 31 H 0.129522 -4.722700 1.302817 0
M  V30 32 H -0.430743 -3.172845 1.707749 0
M  V30 33 H 0.722331 -0.557398 -3.247892 0
M  V30 34 H 1.584353 1.468723 -4.190516 0
M  V30 35 H 2.512444 3.162202 -2.774867 0
M  V30 36 H 3.872834 2.950238 1.370151 0
M  V30 37 H 3.590661 4.589684 0.831669 0
M  V30 38 H 2.409326 4.339640 2.876273 0
M  V30 39 H 1.322969 4.663094 1.542764 0
M  V30 40 H 1.716796 2.327025 4.281965 0
M  V30 41 H 2.575943 1.395748 3.053334 0
M  V30 42 H 0.678488 -0.117471 2.824640 0
M  V30 43 H 0.942055 0.226226 4.523784 0
M  V30 44 H -1.278291 1.738511 1.871975 0
M  V30 45 H -2.101112 2.447659 3.262175 0
M  V30 46 H -0.034211 3.559001 3.965710 0
M  V30 47 H -0.608784 4.126520 2.367155 0
M  V30 48 H 1.687221 0.774144 0.638427 0
M  V30 49 H -1.373635 -1.451039 -2.878486 0
M  V30 50 H -2.907241 -4.173343 1.361436 0
M  V30 51 H -4.035085 -6.064205 2.307408 0
M  V30 52 H -3.452564 -8.284409 -1.338598 0
M  V30 53 H -2.264648 -6.272269 -2.313436 0
M  V30 END ATOM
M  V30 BEGIN BOND
M  V30 1 1 1 2
M  V30 2 2 2 3
M  V30 3 1 3 4
M  V30 4 2 4 5
M  V30 5 1 4 6
M  V30 6 2 6 7
M  V30 7 1 7 8
M  V30 8 2 8 9
M  V30 9 1 9 10
M  V30 10 1 10 11
M  V30 11 1 11 12
M  V30 12 1 12 13
M  V30 13 1 13 14
M  V30 14 1 14 15
M  V30 15 1 15 16
M  V30 16 1 16 17
M  V30 17 1 17 18
M  V30 18 1 18 19
M  V30 19 2 10 20
M  V30 20 1 3 21
M  V30 21 2 21 22
M  V30 22 1 22 23
M  V30 23 1 23 24
M  V30 24 2 24 25
M  V30 25 1 25 26
M  V30 26 2 26 27
M  V30 27 1 27 28
M  V30 28 1 27 29
M  V30 29 2 29 30
M  V30 30 1 23 2
M  V30 31 1 30 24
M  V30 32 1 20 6
M  V30 33 1 19 14
M  V30 34 1 1 31
M  V30 35 1 1 32
M  V30 36 1 7 33
M  V30 37 1 8 34
M  V30 38 1 9 35
M  V30 39 1 12 36
M  V30 40 1 12 37
M  V30 41 1 13 38
M  V30 42 1 13 39
M  V30 43 1 15 40
M  V30 44 1 15 41
M  V30 45 1 16 42
M  V30 46 1 16 43
M  V30 47 1 18 44
M  V30 48 1 18 45
M  V30 49 1 19 46
M  V30 50 1 19 47
M  V30 51 1 20 48
M  V30 52 1 21 49
M  V30 53 1 25 50
M  V30 54 1 26 51
M  V30 55 1 29 52
M  V30 56 1 30 53
M  V30 END BOND
M  V30 END CTAB
M  END
>  <Dataset>  (579) 
ChEMBL_Kinases

>  <Ligand_Instance>  (579) 
nan

>  <PDB_ID>  (579) 
nan

>  <Standardized_SMILES>  (579) 
Nc1c(C(=O)c2cccc(OCCN3CCOCC3)c2)cnn1-c1ccc(F)cc1

>  <Name>  (579) 
nan

>  <Pocket>  (579) 
nan

>  <ATP_Site>  (579) 
nan

>  <Peripheral>  (579) 
nan

>  <Num_H_Atoms_ProtBoundConf>  (579) 
nan

>  <Num_Resolved_Atoms>  (579) 
nan

>  <Num_Not_Resolved_Atoms>  (579) 
nan

$$$$
CHEMBL2037482
     RDKit          3D

  0  0  0  0  0  0  0  0  0  0999 V3000
M  V30 BEGIN CTAB
M  V30 COUNTS 66 67 0 0 0
M  V30 BEGIN ATOM
M  V30 1 C 2.852272 -1.052177 2.561813 0
M  V30 2 C 3.825457 -0.975107 1.410144 0
M  V30 3 C 3.874459 -2.368458 0.772866 0
M  V30 4 C 4.816604 -2.442149 -0.355002 0
M  V30 5 C 4.609922 -1.666545 -1.585428 0
M  V30 6 C 3.493401 -1.934546 -2.478452 0
M  V30 7 C 2.080175 -1.806474 -2.194331 0
M  V30 8 C 1.560615 -0.407368 -1.854661 0
M  V30 9 C 1.884127 0.555385 -2.924877 0
M  V30 10 C 1.441692 1.973243 -2.814910 0
M  V30 11 C 1.857034 2.700284 -1.569578 0
M  V30 12 C 1.152828 2.212759 -0.370704 0
M  V30 13 O 0.153735 1.958944 -1.155654 0
M  V30 14 N 0.968087 1.901348 0.991552 0
M  V30 15 N -0.289542 1.393855 1.246393 0
M  V30 16 C -0.783692 0.078183 1.278945 0
M  V30 17 O 0.058543 -0.817012 1.027308 0
M  V30 18 C -2.119632 -0.337027 1.563874 0
M  V30 19 C -2.383378 -1.715429 1.568662 0
M  V30 20 O -1.385934 -2.674537 1.305978 0
M  V30 21 C -3.636010 -2.227949 1.830528 0
M  V30 22 C -3.869967 -3.585797 1.829289 0
M  V30 23 C -5.112403 -4.133961 2.087286 0
M  V30 24 C -6.135196 -3.248239 2.352912 0
M  V30 25 C -5.923665 -1.874463 2.359897 0
M  V30 26 C -4.675956 -1.375327 2.098526 0
M  V30 27 N -4.474377 -0.044966 2.105624 0
M  V30 28 C -5.560372 0.881053 2.385241 0
M  V30 29 C -5.621906 1.146783 3.868917 0
M  V30 30 C -3.229221 0.389236 1.842448 0
M  V30 31 O -3.103069 1.639511 1.863154 0
M  V30 32 H 2.244726 -0.120310 2.553135 0
M  V30 33 H 2.160670 -1.906865 2.381697 0
M  V30 34 H 3.377038 -1.177990 3.537581 0
M  V30 35 H 4.856521 -0.719470 1.798779 0
M  V30 36 H 3.537319 -0.191368 0.703891 0
M  V30 37 H 4.178566 -3.045652 1.610163 0
M  V30 38 H 2.842695 -2.598436 0.511881 0
M  V30 39 H 4.931619 -3.521589 -0.670977 0
M  V30 40 H 5.843745 -2.206131 0.062991 0
M  V30 41 H 5.562288 -1.808446 -2.212692 0
M  V30 42 H 4.714682 -0.577843 -1.297508 0
M  V30 43 H 3.659105 -1.398691 -3.497944 0
M  V30 44 H 3.637370 -3.026629 -2.837544 0
M  V30 45 H 1.609015 -2.513589 -1.483355 0
M  V30 46 H 1.524111 -2.036893 -3.166410 0
M  V30 47 H 0.439886 -0.568679 -1.837346 0
M  V30 48 H 1.876017 -0.067162 -0.888287 0
M  V30 49 H 1.384147 0.153242 -3.866514 0
M  V30 50 H 2.982037 0.538360 -3.199813 0
M  V30 51 H 1.939801 2.509479 -3.681416 0
M  V30 52 H 0.352674 2.076759 -3.042330 0
M  V30 53 H 1.691111 3.781583 -1.677511 0
M  V30 54 H 2.963224 2.586383 -1.451444 0
M  V30 55 H 1.917811 2.191953 1.297199 0
M  V30 56 H -0.950895 2.178711 1.417437 0
M  V30 57 H -1.268388 -3.079400 0.402047 0
M  V30 58 H -3.044755 -4.280775 1.615560 0
M  V30 59 H -5.212171 -5.204905 2.067149 0
M  V30 60 H -7.114605 -3.672706 2.556913 0
M  V30 61 H -6.769583 -1.272271 2.575740 0
M  V30 62 H -6.509646 0.625942 1.919321 0
M  V30 63 H -5.264599 1.866995 1.915843 0
M  V30 64 H -4.635587 1.503330 4.196055 0
M  V30 65 H -6.332302 1.980067 4.078035 0
M  V30 66 H -5.891493 0.285639 4.479148 0
M  V30 END ATOM
M  V30 BEGIN BOND
M  V30 1 1 1 2
M  V30 2 1 2 3
M  V30 3 1 3 4
M  V30 4 1 4 5
M  V30 5 1 5 6
M  V30 6 1 6 7
M  V30 7 1 7 8
M  V30 8 1 8 9
M  V30 9 1 9 10
M  V30 10 1 10 11
M  V30 11 1 11 12
M  V30 12 2 12 13
M  V30 13 1 12 14
M  V30 14 1 14 15
M  V30 15 1 15 16
M  V30 16 2 16 17
M  V30 17 1 16 18
M  V30 18 2 18 19
M  V30 19 1 19 20
M  V30 20 1 19 21
M  V30 21 2 21 22
M  V30 22 1 22 23
M  V30 23 2 23 24
M  V30 24 1 24 25
M  V30 25 2 25 26
M  V30 26 1 26 27
M  V30 27 1 27 28
M  V30 28 1 28 29
M  V30 29 1 27 30
M  V30 30 2 30 31
M  V30 31 1 30 18
M  V30 32 1 26 21
M  V30 33 1 1 32
M  V30 34 1 1 33
M  V30 35 1 1 34
M  V30 36 1 2 35
M  V30 37 1 2 36
M  V30 38 1 3 37
M  V30 39 1 3 38
M  V30 40 1 4 39
M  V30 41 1 4 40
M  V30 42 1 5 41
M  V30 43 1 5 42
M  V30 44 1 6 43
M  V30 45 1 6 44
M  V30 46 1 7 45
M  V30 47 1 7 46
M  V30 48 1 8 47
M  V30 49 1 8 48
M  V30 50 1 9 49
M  V30 51 1 9 50
M  V30 52 1 10 51
M  V30 53 1 10 52
M  V30 54 1 11 53
M  V30 55 1 11 54
M  V30 56 1 14 55
M  V30 57 1 15 56
M  V30 58 1 20 57
M  V30 59 1 22 58
M  V30 60 1 23 59
M  V30 61 1 24 60
M  V30 62 1 25 61
M  V30 63 1 28 62
M  V30 64 1 28 63
M  V30 65 1 29 64
M  V30 66 1 29 65
M  V30 67 1 29 66
M  V30 END BOND
M  V30 END CTAB
M  END
>  <Dataset>  (580) 
ChEMBL_Kinases

>  <Ligand_Instance>  (580) 
nan

>  <PDB_ID>  (580) 
nan

>  <Standardized_SMILES>  (580) 
CCCCCCCCCCCC(=O)NNC(=O)c1c(O)c2ccccc2n(CC)c1=O

>  <Name>  (580) 
nan

>  <Pocket>  (580) 
nan

>  <ATP_Site>  (580) 
nan

>  <Peripheral>  (580) 
nan

>  <Num_H_Atoms_ProtBoundConf>  (580) 
nan

>  <Num_Resolved_Atoms>  (580) 
nan

>  <Num_Not_Resolved_Atoms>  (580) 
nan

$$$$
CHEMBL2037226
     RDKit          3D

  0  0  0  0  0  0  0  0  0  0999 V3000
M  V30 BEGIN CTAB
M  V30 COUNTS 60 64 0 0 0
M  V30 BEGIN ATOM
M  V30 1 C -6.287925 2.491644 0.790085 0
M  V30 2 C -4.890276 2.184071 1.222207 0
M  V30 3 C -4.389646 3.022885 2.196632 0
M  V30 4 C -3.090253 2.811223 2.604001 0
M  V30 5 C -2.332326 1.784827 2.049637 0
M  V30 6 N -0.924921 1.495224 2.270112 0
M  V30 7 C -0.362032 1.971613 1.044100 0
M  V30 8 O -1.261565 2.456529 0.327661 0
M  V30 9 N 0.987363 1.948404 0.569644 0
M  V30 10 C 1.559653 2.336173 -0.665936 0
M  V30 11 C 2.907310 2.177281 -0.711409 0
M  V30 12 C 3.541901 2.484593 -1.916749 0
M  V30 13 C 5.009257 2.372462 -2.066352 0
M  V30 14 F 5.637208 3.598036 -1.829119 0
M  V30 15 F 5.291886 1.992175 -3.389098 0
M  V30 16 F 5.527952 1.476913 -1.171884 0
M  V30 17 C 2.849122 2.935740 -3.026659 0
M  V30 18 C 1.461842 3.107532 -2.981470 0
M  V30 19 C 0.895962 2.790038 -1.779412 0
M  V30 20 F -0.429436 2.972072 -1.776567 0
M  V30 21 C -2.967374 1.000722 1.067947 0
M  V30 22 C -4.280777 1.128277 0.575761 0
M  V30 23 N -4.805756 0.300764 -0.467412 0
M  V30 24 C -3.743119 -0.584309 -0.881480 0
M  V30 25 C -3.847385 -1.865557 -0.390009 0
M  V30 26 C -2.771584 -2.666357 -0.706895 0
M  V30 27 C -1.730846 -2.150086 -1.449105 0
M  V30 28 C -1.694591 -0.841480 -1.915755 0
M  V30 29 C -2.758554 0.028151 -1.631412 0
M  V30 30 N -0.492125 -0.623952 -2.632763 0
M  V30 31 C 0.281319 -1.834305 -2.630320 0
M  V30 32 O 1.392951 -2.060564 -3.148698 0
M  V30 33 C -0.488196 -2.834783 -1.877181 0
M  V30 34 C -0.178417 -4.075547 -1.524531 0
M  V30 35 C 1.199327 -4.511826 -2.136058 0
M  V30 36 C 2.309042 -4.860433 -2.598869 0
M  V30 37 C 3.467054 -5.042091 -1.958242 0
M  V30 38 C 3.098483 -4.728453 -0.629025 0
M  V30 39 N 1.751224 -4.421510 -0.785528 0
M  V30 40 H -6.844600 1.593013 0.502209 0
M  V30 41 H -6.230482 3.112315 -0.150861 0
M  V30 42 H -6.796441 3.128389 1.519888 0
M  V30 43 H -4.937929 3.789663 2.640119 0
M  V30 44 H -2.615821 3.392056 3.345286 0
M  V30 45 H -0.224390 1.099013 2.919782 0
M  V30 46 H 1.565150 1.544278 1.331253 0
M  V30 47 H 3.578568 1.823917 0.065921 0
M  V30 48 H 3.379478 3.144808 -3.935612 0
M  V30 49 H 0.950465 3.461172 -3.853463 0
M  V30 50 H -2.315470 0.212537 0.697999 0
M  V30 51 H -5.779669 0.467007 -0.749010 0
M  V30 52 H -4.703660 -2.192608 0.174114 0
M  V30 53 H -2.767928 -3.692645 -0.369185 0
M  V30 54 H -2.777301 1.042344 -1.967146 0
M  V30 55 H -0.158391 0.254447 -3.116824 0
M  V30 56 H -0.854556 -4.686128 -0.889572 0
M  V30 57 H 1.858307 -4.827553 -3.636136 0
M  V30 58 H 4.244460 -5.357658 -2.660148 0
M  V30 59 H 3.965948 -4.855385 0.020147 0
M  V30 60 H 1.611001 -4.210746 0.317385 0
M  V30 END ATOM
M  V30 BEGIN BOND
M  V30 1 1 1 2
M  V30 2 2 2 3
M  V30 3 1 3 4
M  V30 4 2 4 5
M  V30 5 1 5 6
M  V30 6 1 6 7
M  V30 7 2 7 8
M  V30 8 1 7 9
M  V30 9 1 9 10
M  V30 10 2 10 11
M  V30 11 1 11 12
M  V30 12 1 12 13
M  V30 13 1 13 14
M  V30 14 1 13 15
M  V30 15 1 13 16
M  V30 16 2 12 17
M  V30 17 1 17 18
M  V30 18 2 18 19
M  V30 19 1 19 20
M  V30 20 1 5 21
M  V30 21 2 21 22
M  V30 22 1 22 23
M  V30 23 1 23 24
M  V30 24 2 24 25
M  V30 25 1 25 26
M  V30 26 2 26 27
M  V30 27 1 27 28
M  V30 28 2 28 29
M  V30 29 1 28 30
M  V30 30 1 30 31
M  V30 31 2 31 32
M  V30 32 1 31 33
M  V30 33 2 33 34
M  V30 34 1 34 35
M  V30 35 2 35 36
M  V30 36 1 36 37
M  V30 37 2 37 38
M  V30 38 1 38 39
M  V30 39 1 22 2
M  V30 40 1 29 24
M  V30 41 1 39 35
M  V30 42 1 19 10
M  V30 43 1 33 27
M  V30 44 1 1 40
M  V30 45 1 1 41
M  V30 46 1 1 42
M  V30 47 1 3 43
M  V30 48 1 4 44
M  V30 49 1 6 45
M  V30 50 1 9 46
M  V30 51 1 11 47
M  V30 52 1 17 48
M  V30 53 1 18 49
M  V30 54 1 21 50
M  V30 55 1 23 51
M  V30 56 1 25 52
M  V30 57 1 26 53
M  V30 58 1 29 54
M  V30 59 1 30 55
M  V30 60 1 34 56
M  V30 61 1 36 57
M  V30 62 1 37 58
M  V30 63 1 38 59
M  V30 64 1 39 60
M  V30 END BOND
M  V30 END CTAB
M  END
>  <Dataset>  (581) 
ChEMBL_Kinases

>  <Ligand_Instance>  (581) 
nan

>  <PDB_ID>  (581) 
nan

>  <Standardized_SMILES>  (581) 
Cc1ccc(NC(=O)Nc2cc(C(F)(F)F)ccc2F)cc1Nc1ccc2c(c1)NC(=O)/C2=C\c1ccc[nH]1

>  <Name>  (581) 
nan

>  <Pocket>  (581) 
nan

>  <ATP_Site>  (581) 
nan

>  <Peripheral>  (581) 
nan

>  <Num_H_Atoms_ProtBoundConf>  (581) 
nan

>  <Num_Resolved_Atoms>  (581) 
nan

>  <Num_Not_Resolved_Atoms>  (581) 
nan

$$$$
CHEMBL2037224
     RDKit          3D

  0  0  0  0  0  0  0  0  0  0999 V3000
M  V30 BEGIN CTAB
M  V30 COUNTS 57 61 0 0 0
M  V30 BEGIN ATOM
M  V30 1 O 2.931935 -0.969386 -0.343084 0
M  V30 2 C 3.050358 -2.001018 0.405939 0
M  V30 3 N 3.562970 -1.842910 1.740631 0
M  V30 4 C 3.869862 -0.460532 2.047592 0
M  V30 5 C 5.037209 0.255944 1.913960 0
M  V30 6 C 5.022378 1.581240 2.282208 0
M  V30 7 C 3.895829 2.198549 2.769398 0
M  V30 8 C 2.713744 1.542140 2.923116 0
M  V30 9 N 1.517012 2.122884 3.430806 0
M  V30 10 C 0.244445 1.667031 2.922839 0
M  V30 11 C 0.203862 1.137421 1.622793 0
M  V30 12 C -0.959317 0.648136 1.041959 0
M  V30 13 C -2.098243 0.712592 1.827368 0
M  V30 14 C -2.127584 1.225899 3.120332 0
M  V30 15 C -0.922405 1.700304 3.643365 0
M  V30 16 N -3.450990 1.147280 3.651683 0
M  V30 17 C -4.260680 0.559981 2.641695 0
M  V30 18 O -5.485821 0.352494 2.809470 0
M  V30 19 C -3.433530 0.282647 1.495404 0
M  V30 20 C -3.938149 -0.293988 0.420955 0
M  V30 21 C -5.292853 -0.709339 0.120148 0
M  V30 22 C -5.522468 -1.986214 -0.380899 0
M  V30 23 C -6.849069 -2.177329 -0.622451 0
M  V30 24 C -7.496202 -0.990713 -0.268114 0
M  V30 25 N -6.519844 -0.175250 0.158603 0
M  V30 26 C 2.746716 0.199668 2.546920 0
M  V30 27 N 2.637972 -3.219185 -0.215618 0
M  V30 28 C 2.147920 -3.161964 -1.570375 0
M  V30 29 C 0.769083 -2.916168 -1.572029 0
M  V30 30 C 0.112916 -2.833217 -2.808201 0
M  V30 31 C 0.823695 -2.993041 -3.992332 0
M  V30 32 C 2.180805 -3.232309 -3.920079 0
M  V30 33 C 2.959362 -3.417906 -5.172735 0
M  V30 34 F 3.876019 -2.410070 -5.384370 0
M  V30 35 F 2.075342 -3.560012 -6.240450 0
M  V30 36 F 3.638891 -4.639961 -5.064688 0
M  V30 37 C 2.861655 -3.319741 -2.722296 0
M  V30 38 H 3.622122 -2.753911 2.253455 0
M  V30 39 H 5.830882 -0.358845 1.517916 0
M  V30 40 H 5.985450 2.080037 2.145545 0
M  V30 41 H 3.950861 3.249915 3.041288 0
M  V30 42 H 1.537971 2.877260 4.169319 0
M  V30 43 H 1.080390 1.076896 0.958725 0
M  V30 44 H -0.979778 0.245083 0.056200 0
M  V30 45 H -0.906221 2.101758 4.638770 0
M  V30 46 H -3.754184 1.465333 4.599460 0
M  V30 47 H -3.174626 -0.472965 -0.356539 0
M  V30 48 H -4.907396 -2.854985 -0.622497 0
M  V30 49 H -7.463797 -2.995965 -1.004212 0
M  V30 50 H -8.544008 -0.740015 -0.307967 0
M  V30 51 H -6.691903 0.797174 0.483277 0
M  V30 52 H 1.790281 -0.330923 2.693783 0
M  V30 53 H 2.730730 -4.062396 0.387412 0
M  V30 54 H 0.120234 -2.775511 -0.722658 0
M  V30 55 H -0.931654 -2.649871 -2.937481 0
M  V30 56 H 0.329091 -2.932622 -4.968881 0
M  V30 57 H 3.914743 -3.503154 -2.593287 0
M  V30 END ATOM
M  V30 BEGIN BOND
M  V30 1 2 1 2
M  V30 2 1 2 3
M  V30 3 1 3 4
M  V30 4 2 4 5
M  V30 5 1 5 6
M  V30 6 2 6 7
M  V30 7 1 7 8
M  V30 8 1 8 9
M  V30 9 1 9 10
M  V30 10 2 10 11
M  V30 11 1 11 12
M  V30 12 2 12 13
M  V30 13 1 13 14
M  V30 14 2 14 15
M  V30 15 1 14 16
M  V30 16 1 16 17
M  V30 17 2 17 18
M  V30 18 1 17 19
M  V30 19 2 19 20
M  V30 20 1 20 21
M  V30 21 2 21 22
M  V30 22 1 22 23
M  V30 23 2 23 24
M  V30 24 1 24 25
M  V30 25 2 8 26
M  V30 26 1 2 27
M  V30 27 1 27 28
M  V30 28 2 28 29
M  V30 29 1 29 30
M  V30 30 2 30 31
M  V30 31 1 31 32
M  V30 32 1 32 33
M  V30 33 1 33 34
M  V30 34 1 33 35
M  V30 35 1 33 36
M  V30 36 2 32 37
M  V30 37 1 26 4
M  V30 38 1 37 28
M  V30 39 1 15 10
M  V30 40 1 25 21
M  V30 41 1 19 13
M  V30 42 1 3 38
M  V30 43 1 5 39
M  V30 44 1 6 40
M  V30 45 1 7 41
M  V30 46 1 9 42
M  V30 47 1 11 43
M  V30 48 1 12 44
M  V30 49 1 15 45
M  V30 50 1 16 46
M  V30 51 1 20 47
M  V30 52 1 22 48
M  V30 53 1 23 49
M  V30 54 1 24 50
M  V30 55 1 25 51
M  V30 56 1 26 52
M  V30 57 1 27 53
M  V30 58 1 29 54
M  V30 59 1 30 55
M  V30 60 1 31 56
M  V30 61 1 37 57
M  V30 END BOND
M  V30 END CTAB
M  END
>  <Dataset>  (582) 
ChEMBL_Kinases

>  <Ligand_Instance>  (582) 
nan

>  <PDB_ID>  (582) 
nan

>  <Standardized_SMILES>  (582) 
O=C(Nc1cccc(Nc2ccc3c(c2)NC(=O)/C3=C\c2ccc[nH]2)c1)Nc1cccc(C(F)(F)F)c1

>  <Name>  (582) 
nan

>  <Pocket>  (582) 
nan

>  <ATP_Site>  (582) 
nan

>  <Peripheral>  (582) 
nan

>  <Num_H_Atoms_ProtBoundConf>  (582) 
nan

>  <Num_Resolved_Atoms>  (582) 
nan

>  <Num_Not_Resolved_Atoms>  (582) 
nan

$$$$
CHEMBL2037220
     RDKit          3D

  0  0  0  0  0  0  0  0  0  0999 V3000
M  V30 BEGIN CTAB
M  V30 COUNTS 75 80 0 0 0
M  V30 BEGIN ATOM
M  V30 1 C 3.492174 -6.033518 3.011289 0
M  V30 2 N 3.916479 -5.525469 1.706247 0
M  V30 3 C 2.888362 -4.677520 1.140533 0
M  V30 4 C 2.989816 -3.274039 1.712277 0
M  V30 5 N 4.258549 -2.676571 1.326685 0
M  V30 6 C 4.439877 -1.264539 1.375008 0
M  V30 7 C 3.394157 -0.527533 1.895089 0
M  V30 8 C 3.542236 0.834698 1.945580 0
M  V30 9 C 2.549099 1.773235 2.455268 0
M  V30 10 O 2.679710 3.043802 2.467762 0
M  V30 11 N 1.345588 1.271987 2.980058 0
M  V30 12 C 0.153116 1.790578 3.552010 0
M  V30 13 C 0.011824 2.050508 4.899167 0
M  V30 14 C -1.155248 2.547649 5.453043 0
M  V30 15 C -2.209674 2.783625 4.588454 0
M  V30 16 C -2.131013 2.541449 3.220352 0
M  V30 17 N -3.225800 2.806900 2.388119 0
M  V30 18 C -3.585912 2.123785 1.194139 0
M  V30 19 C -3.091942 0.821128 1.057092 0
M  V30 20 C -3.391103 0.101803 -0.079458 0
M  V30 21 C -4.172970 0.679828 -1.060472 0
M  V30 22 C -4.684257 1.967833 -0.965767 0
M  V30 23 C -4.363822 2.679012 0.202822 0
M  V30 24 N -5.455486 2.287268 -2.133319 0
M  V30 25 C -5.425800 1.154752 -2.992339 0
M  V30 26 O -5.999589 1.108002 -4.087018 0
M  V30 27 C -4.633021 0.148815 -2.340129 0
M  V30 28 C -4.433419 -1.037246 -2.883498 0
M  V30 29 C -4.881385 -1.578364 -4.155090 0
M  V30 30 C -4.934165 -1.209504 -5.479960 0
M  V30 31 C -5.530820 -2.188852 -6.243208 0
M  V30 32 C -5.763477 -2.157774 -7.681365 0
M  V30 33 O -6.328779 -3.139491 -8.239220 0
M  V30 34 O -5.367775 -1.059684 -8.433256 0
M  V30 35 C -5.855095 -3.194292 -5.359478 0
M  V30 36 N -5.460552 -2.801975 -4.150430 0
M  V30 37 C -0.920866 2.039184 2.723288 0
M  V30 38 C 4.697994 1.426155 1.490328 0
M  V30 39 C 5.729582 0.670703 0.975039 0
M  V30 40 C 6.975186 1.287249 0.481304 0
M  V30 41 F 7.980263 1.142540 1.430160 0
M  V30 42 F 7.442124 0.612479 -0.653930 0
M  V30 43 F 6.857791 2.636174 0.227564 0
M  V30 44 C 5.621020 -0.710617 0.905174 0
M  V30 45 C 5.244738 -3.647344 0.915985 0
M  V30 46 C 5.150621 -4.798337 1.928703 0
M  V30 47 H 3.831641 -5.320994 3.797969 0
M  V30 48 H 2.383082 -6.131268 2.989809 0
M  V30 49 H 3.897470 -7.056892 3.163432 0
M  V30 50 H 2.951378 -4.641389 0.032957 0
M  V30 51 H 1.893804 -5.075441 1.439031 0
M  V30 52 H 2.151783 -2.688771 1.274640 0
M  V30 53 H 2.835132 -3.321292 2.797572 0
M  V30 54 H 2.471811 -0.948340 2.262224 0
M  V30 55 H 1.072600 0.268156 3.054390 0
M  V30 56 H 0.839968 1.865131 5.579959 0
M  V30 57 H -1.252208 2.749257 6.518742 0
M  V30 58 H -3.154024 3.170789 4.941739 0
M  V30 59 H -3.879637 3.604401 2.654975 0
M  V30 60 H -2.485747 0.258457 1.753032 0
M  V30 61 H -3.037719 -0.925846 -0.258826 0
M  V30 62 H -4.736380 3.688792 0.327138 0
M  V30 63 H -5.944960 3.182633 -2.314210 0
M  V30 64 H -3.819056 -1.691373 -2.235606 0
M  V30 65 H -4.527574 -0.266313 -5.806231 0
M  V30 66 H -5.528213 -0.979143 -9.429726 0
M  V30 67 H -6.342173 -4.092779 -5.704379 0
M  V30 68 H -5.647062 -3.481207 -3.357565 0
M  V30 69 H -0.782556 1.842733 1.670197 0
M  V30 70 H 4.877887 2.489006 1.502118 0
M  V30 71 H 6.442081 -1.282936 0.496572 0
M  V30 72 H 4.913591 -4.085851 -0.052752 0
M  V30 73 H 6.282916 -3.262688 0.891985 0
M  V30 74 H 5.071828 -4.314603 2.924519 0
M  V30 75 H 6.018116 -5.461818 1.876544 0
M  V30 END ATOM
M  V30 BEGIN BOND
M  V30 1 1 1 2
M  V30 2 1 2 3
M  V30 3 1 3 4
M  V30 4 1 4 5
M  V30 5 1 5 6
M  V30 6 2 6 7
M  V30 7 1 7 8
M  V30 8 1 8 9
M  V30 9 2 9 10
M  V30 10 1 9 11
M  V30 11 1 11 12
M  V30 12 2 12 13
M  V30 13 1 13 14
M  V30 14 2 14 15
M  V30 15 1 15 16
M  V30 16 1 16 17
M  V30 17 1 17 18
M  V30 18 2 18 19
M  V30 19 1 19 20
M  V30 20 2 20 21
M  V30 21 1 21 22
M  V30 22 2 22 23
M  V30 23 1 22 24
M  V30 24 1 24 25
M  V30 25 2 25 26
M  V30 26 1 25 27
M  V30 27 2 27 28
M  V30 28 1 28 29
M  V30 29 2 29 30
M  V30 30 1 30 31
M  V30 31 1 31 32
M  V30 32 2 32 33
M  V30 33 1 32 34
M  V30 34 2 31 35
M  V30 35 1 35 36
M  V30 36 2 16 37
M  V30 37 2 8 38
M  V30 38 1 38 39
M  V30 39 1 39 40
M  V30 40 1 40 41
M  V30 41 1 40 42
M  V30 42 1 40 43
M  V30 43 2 39 44
M  V30 44 1 5 45
M  V30 45 1 45 46
M  V30 46 1 46 2
M  V30 47 1 44 6
M  V30 48 1 37 12
M  V30 49 1 23 18
M  V30 50 1 36 29
M  V30 51 1 27 21
M  V30 52 1 1 47
M  V30 53 1 1 48
M  V30 54 1 1 49
M  V30 55 1 3 50
M  V30 56 1 3 51
M  V30 57 1 4 52
M  V30 58 1 4 53
M  V30 59 1 7 54
M  V30 60 1 11 55
M  V30 61 1 13 56
M  V30 62 1 14 57
M  V30 63 1 15 58
M  V30 64 1 17 59
M  V30 65 1 19 60
M  V30 66 1 20 61
M  V30 67 1 23 62
M  V30 68 1 24 63
M  V30 69 1 28 64
M  V30 70 1 30 65
M  V30 71 1 34 66
M  V30 72 1 35 67
M  V30 73 1 36 68
M  V30 74 1 37 69
M  V30 75 1 38 70
M  V30 76 1 44 71
M  V30 77 1 45 72
M  V30 78 1 45 73
M  V30 79 1 46 74
M  V30 80 1 46 75
M  V30 END BOND
M  V30 END CTAB
M  END
>  <Dataset>  (583) 
ChEMBL_Kinases

>  <Ligand_Instance>  (583) 
nan

>  <PDB_ID>  (583) 
nan

>  <Standardized_SMILES>  (583) 
CN1CCN(c2cc(C(=O)Nc3cccc(Nc4ccc5c(c4)NC(=O)/C5=C\c4cc(C(=O)O)c[nH]4)c3)cc(C(F)(F)F)c2)CC1

>  <Name>  (583) 
nan

>  <Pocket>  (583) 
nan

>  <ATP_Site>  (583) 
nan

>  <Peripheral>  (583) 
nan

>  <Num_H_Atoms_ProtBoundConf>  (583) 
nan

>  <Num_Resolved_Atoms>  (583) 
nan

>  <Num_Not_Resolved_Atoms>  (583) 
nan

$$$$
CHEMBL2037211
     RDKit          3D

  0  0  0  0  0  0  0  0  0  0999 V3000
M  V30 BEGIN CTAB
M  V30 COUNTS 72 77 0 0 0
M  V30 BEGIN ATOM
M  V30 1 C -2.378007 -4.283971 -4.583968 0
M  V30 2 N -1.063781 -3.825622 -4.238099 0
M  V30 3 C -0.064717 -4.644334 -4.923382 0
M  V30 4 C 1.245989 -3.894343 -5.017361 0
M  V30 5 N 1.405824 -2.932961 -3.967036 0
M  V30 6 C 2.387485 -2.886145 -2.933207 0
M  V30 7 C 2.458814 -1.742675 -2.141128 0
M  V30 8 C 3.398376 -1.704657 -1.132998 0
M  V30 9 C 3.540516 -0.536891 -0.269491 0
M  V30 10 O 4.307422 -0.481597 0.727675 0
M  V30 11 N 2.818862 0.659083 -0.478347 0
M  V30 12 C 2.982843 1.782222 0.394674 0
M  V30 13 C 3.963894 2.725585 0.174488 0
M  V30 14 C 4.065230 3.785759 1.053631 0
M  V30 15 C 3.218222 3.921855 2.134474 0
M  V30 16 C 2.222219 2.987705 2.379099 0
M  V30 17 N 1.334549 3.074276 3.484534 0
M  V30 18 C 0.018058 2.616468 3.633726 0
M  V30 19 C -0.744597 2.420346 2.485818 0
M  V30 20 C -2.059245 1.956383 2.569966 0
M  V30 21 C -2.567130 1.701231 3.842250 0
M  V30 22 C -1.824890 1.890126 4.989071 0
M  V30 23 C -0.512503 2.355359 4.876647 0
M  V30 24 N -2.616025 1.543849 6.143417 0
M  V30 25 C -3.877678 1.133283 5.660506 0
M  V30 26 O -4.779052 0.769754 6.437901 0
M  V30 27 C -3.879017 1.221577 4.215731 0
M  V30 28 C -4.929742 0.875538 3.500532 0
M  V30 29 C -6.233137 0.400633 3.933135 0
M  V30 30 C -6.724797 -0.730291 3.262546 0
M  V30 31 C -7.974037 -1.059522 3.751753 0
M  V30 32 C -8.245537 -0.124519 4.725716 0
M  V30 33 N -7.205121 0.707787 4.798413 0
M  V30 34 C 2.116957 1.911006 1.489588 0
M  V30 35 C 4.240050 -2.776995 -0.924583 0
M  V30 36 C 4.175799 -3.919916 -1.709991 0
M  V30 37 C 5.081191 -5.081926 -1.492871 0
M  V30 38 F 6.362402 -4.815676 -1.964208 0
M  V30 39 F 4.593868 -6.190595 -2.112780 0
M  V30 40 F 5.183459 -5.244456 -0.107073 0
M  V30 41 C 3.229728 -3.960319 -2.725935 0
M  V30 42 C 0.368005 -1.921898 -4.052766 0
M  V30 43 C -0.865359 -2.478504 -4.741118 0
M  V30 44 H -3.068826 -3.420653 -4.760159 0
M  V30 45 H -2.789598 -4.829796 -3.700397 0
M  V30 46 H -2.300169 -4.907116 -5.495570 0
M  V30 47 H 0.045238 -5.601391 -4.390908 0
M  V30 48 H -0.497944 -4.866348 -5.924770 0
M  V30 49 H 2.046770 -4.633661 -5.106345 0
M  V30 50 H 1.208364 -3.323554 -5.985136 0
M  V30 51 H 1.792354 -0.926390 -2.329123 0
M  V30 52 H 2.146757 0.764870 -1.269007 0
M  V30 53 H 4.598704 2.567988 -0.689259 0
M  V30 54 H 4.842261 4.501021 0.850967 0
M  V30 55 H 3.307096 4.757868 2.816555 0
M  V30 56 H 1.760807 3.563877 4.304983 0
M  V30 57 H -0.432221 2.600709 1.468399 0
M  V30 58 H -2.682214 1.792823 1.678501 0
M  V30 59 H 0.079336 2.507252 5.772154 0
M  V30 60 H -2.282863 1.600389 7.123561 0
M  V30 61 H -4.717171 0.991944 2.421913 0
M  V30 62 H -6.346832 -1.383868 2.465920 0
M  V30 63 H -8.687854 -1.838266 3.524189 0
M  V30 64 H -9.128751 -0.039895 5.344642 0
M  V30 65 H -7.104709 1.516569 5.413749 0
M  V30 66 H 1.372462 1.112874 1.599264 0
M  V30 67 H 5.004253 -2.790612 -0.132687 0
M  V30 68 H 3.167919 -4.852491 -3.351876 0
M  V30 69 H 0.032363 -1.667874 -3.008641 0
M  V30 70 H 0.718286 -1.010995 -4.568306 0
M  V30 71 H -1.731429 -1.820547 -4.525512 0
M  V30 72 H -0.645507 -2.484872 -5.825415 0
M  V30 END ATOM
M  V30 BEGIN BOND
M  V30 1 1 1 2
M  V30 2 1 2 3
M  V30 3 1 3 4
M  V30 4 1 4 5
M  V30 5 1 5 6
M  V30 6 2 6 7
M  V30 7 1 7 8
M  V30 8 1 8 9
M  V30 9 2 9 10
M  V30 10 1 9 11
M  V30 11 1 11 12
M  V30 12 2 12 13
M  V30 13 1 13 14
M  V30 14 2 14 15
M  V30 15 1 15 16
M  V30 16 1 16 17
M  V30 17 1 17 18
M  V30 18 2 18 19
M  V30 19 1 19 20
M  V30 20 2 20 21
M  V30 21 1 21 22
M  V30 22 2 22 23
M  V30 23 1 22 24
M  V30 24 1 24 25
M  V30 25 2 25 26
M  V30 26 1 25 27
M  V30 27 2 27 28
M  V30 28 1 28 29
M  V30 29 2 29 30
M  V30 30 1 30 31
M  V30 31 2 31 32
M  V30 32 1 32 33
M  V30 33 2 16 34
M  V30 34 2 8 35
M  V30 35 1 35 36
M  V30 36 1 36 37
M  V30 37 1 37 38
M  V30 38 1 37 39
M  V30 39 1 37 40
M  V30 40 2 36 41
M  V30 41 1 5 42
M  V30 42 1 42 43
M  V30 43 1 43 2
M  V30 44 1 41 6
M  V30 45 1 34 12
M  V30 46 1 23 18
M  V30 47 1 33 29
M  V30 48 1 27 21
M  V30 49 1 1 44
M  V30 50 1 1 45
M  V30 51 1 1 46
M  V30 52 1 3 47
M  V30 53 1 3 48
M  V30 54 1 4 49
M  V30 55 1 4 50
M  V30 56 1 7 51
M  V30 57 1 11 52
M  V30 58 1 13 53
M  V30 59 1 14 54
M  V30 60 1 15 55
M  V30 61 1 17 56
M  V30 62 1 19 57
M  V30 63 1 20 58
M  V30 64 1 23 59
M  V30 65 1 24 60
M  V30 66 1 28 61
M  V30 67 1 30 62
M  V30 68 1 31 63
M  V30 69 1 32 64
M  V30 70 1 33 65
M  V30 71 1 34 66
M  V30 72 1 35 67
M  V30 73 1 41 68
M  V30 74 1 42 69
M  V30 75 1 42 70
M  V30 76 1 43 71
M  V30 77 1 43 72
M  V30 END BOND
M  V30 END CTAB
M  END
>  <Dataset>  (584) 
ChEMBL_Kinases

>  <Ligand_Instance>  (584) 
nan

>  <PDB_ID>  (584) 
nan

>  <Standardized_SMILES>  (584) 
CN1CCN(c2cc(C(=O)Nc3cccc(Nc4ccc5c(c4)NC(=O)/C5=C\c4ccc[nH]4)c3)cc(C(F)(F)F)c2)CC1

>  <Name>  (584) 
nan

>  <Pocket>  (584) 
nan

>  <ATP_Site>  (584) 
nan

>  <Peripheral>  (584) 
nan

>  <Num_H_Atoms_ProtBoundConf>  (584) 
nan

>  <Num_Resolved_Atoms>  (584) 
nan

>  <Num_Not_Resolved_Atoms>  (584) 
nan

$$$$
CHEMBL2031222
     RDKit          3D

  0  0  0  0  0  0  0  0  0  0999 V3000
M  V30 BEGIN CTAB
M  V30 COUNTS 61 65 0 0 0
M  V30 BEGIN ATOM
M  V30 1 C 0.068537 -1.479624 4.701792 0
M  V30 2 C 0.848997 -0.327139 4.126073 0
M  V30 3 C 2.066312 0.080220 4.647381 0
M  V30 4 C 2.711671 1.157878 4.043337 0
M  V30 5 C 2.143379 1.792765 2.957062 0
M  V30 6 N 2.993253 2.873379 2.507690 0
M  V30 7 C 3.903125 2.369564 1.537721 0
M  V30 8 O 3.815505 1.145914 1.256746 0
M  V30 9 C 4.912049 3.166701 0.861081 0
M  V30 10 C 5.713920 2.514746 -0.054101 0
M  V30 11 C 6.692685 3.246818 -0.722877 0
M  V30 12 C 6.848279 4.611383 -0.462968 0
M  V30 13 C 6.034484 5.264575 0.463320 0
M  V30 14 C 5.075398 4.514152 1.108963 0
M  V30 15 C 0.930989 1.391443 2.433409 0
M  V30 16 C 0.300225 0.323476 3.038702 0
M  V30 17 N -0.952762 -0.026373 2.431579 0
M  V30 18 C -2.087934 0.681658 2.644766 0
M  V30 19 N -3.207577 0.268132 2.026272 0
M  V30 20 C -3.243274 -0.805550 1.216098 0
M  V30 21 C -4.392260 -1.227273 0.582787 0
M  V30 22 C -4.420068 -2.345472 -0.258733 0
M  V30 23 C -3.251757 -3.049434 -0.459534 0
M  V30 24 N -3.328291 -4.177494 -1.322590 0
M  V30 25 C -4.603966 -4.494543 -1.933785 0
M  V30 26 C -4.350934 -5.431581 -3.093497 0
M  V30 27 N -3.240619 -4.964500 -3.897362 0
M  V30 28 C -3.483523 -3.599368 -4.354384 0
M  V30 29 C -1.985122 -5.053614 -3.176593 0
M  V30 30 C -2.242460 -5.072068 -1.669145 0
M  V30 31 C -2.087086 -2.649944 0.161424 0
M  V30 32 C -2.092685 -1.539782 0.987754 0
M  V30 33 C -0.946784 -1.106648 1.628128 0
M  V30 34 O 0.095831 -1.798143 1.401724 0
M  V30 35 H 0.400564 -1.648532 5.725511 0
M  V30 36 H 0.306685 -2.421122 4.130411 0
M  V30 37 H -1.011318 -1.288431 4.724092 0
M  V30 38 H 2.394068 -0.500697 5.493644 0
M  V30 39 H 3.647785 1.392175 4.524757 0
M  V30 40 H 3.043881 3.885524 2.759237 0
M  V30 41 H 5.676834 1.474317 -0.325695 0
M  V30 42 H 7.387865 2.866260 -1.462297 0
M  V30 43 H 7.602502 5.227288 -0.963329 0
M  V30 44 H 6.181058 6.333269 0.644655 0
M  V30 45 H 4.449735 5.027652 1.824420 0
M  V30 46 H 0.610575 1.972388 1.593131 0
M  V30 47 H -2.041627 1.539871 3.297578 0
M  V30 48 H -5.284724 -0.635228 0.776486 0
M  V30 49 H -5.392348 -2.545030 -0.676732 0
M  V30 50 H -5.335890 -4.917003 -1.235527 0
M  V30 51 H -4.968479 -3.543411 -2.402808 0
M  V30 52 H -5.221409 -5.509741 -3.782026 0
M  V30 53 H -4.101481 -6.443358 -2.718714 0
M  V30 54 H -3.152046 -2.856170 -3.576763 0
M  V30 55 H -4.568937 -3.478981 -4.453229 0
M  V30 56 H -3.038041 -3.396460 -5.329300 0
M  V30 57 H -1.284860 -4.252504 -3.463567 0
M  V30 58 H -1.535885 -6.036698 -3.422275 0
M  V30 59 H -2.565372 -6.110381 -1.419350 0
M  V30 60 H -1.292800 -4.847173 -1.188226 0
M  V30 61 H -1.171685 -3.202694 0.003106 0
M  V30 END ATOM
M  V30 BEGIN BOND
M  V30 1 1 1 2
M  V30 2 2 2 3
M  V30 3 1 3 4
M  V30 4 2 4 5
M  V30 5 1 5 6
M  V30 6 1 6 7
M  V30 7 2 7 8
M  V30 8 1 7 9
M  V30 9 2 9 10
M  V30 10 1 10 11
M  V30 11 2 11 12
M  V30 12 1 12 13
M  V30 13 2 13 14
M  V30 14 1 5 15
M  V30 15 2 15 16
M  V30 16 1 16 17
M  V30 17 1 17 18
M  V30 18 2 18 19
M  V30 19 1 19 20
M  V30 20 2 20 21
M  V30 21 1 21 22
M  V30 22 2 22 23
M  V30 23 1 23 24
M  V30 24 1 24 25
M  V30 25 1 25 26
M  V30 26 1 26 27
M  V30 27 1 27 28
M  V30 28 1 27 29
M  V30 29 1 29 30
M  V30 30 1 23 31
M  V30 31 2 31 32
M  V30 32 1 32 33
M  V30 33 2 33 34
M  V30 34 1 16 2
M  V30 35 1 33 17
M  V30 36 1 14 9
M  V30 37 1 32 20
M  V30 38 1 30 24
M  V30 39 1 1 35
M  V30 40 1 1 36
M  V30 41 1 1 37
M  V30 42 1 3 38
M  V30 43 1 4 39
M  V30 44 1 6 40
M  V30 45 1 10 41
M  V30 46 1 11 42
M  V30 47 1 12 43
M  V30 48 1 13 44
M  V30 49 1 14 45
M  V30 50 1 15 46
M  V30 51 1 18 47
M  V30 52 1 21 48
M  V30 53 1 22 49
M  V30 54 1 25 50
M  V30 55 1 25 51
M  V30 56 1 26 52
M  V30 57 1 26 53
M  V30 58 1 28 54
M  V30 59 1 28 55
M  V30 60 1 28 56
M  V30 61 1 29 57
M  V30 62 1 29 58
M  V30 63 1 30 59
M  V30 64 1 30 60
M  V30 65 1 31 61
M  V30 END BOND
M  V30 END CTAB
M  END
>  <Dataset>  (585) 
ChEMBL_Kinases

>  <Ligand_Instance>  (585) 
nan

>  <PDB_ID>  (585) 
nan

>  <Standardized_SMILES>  (585) 
Cc1ccc(NC(=O)c2ccccc2)cc1-n1cnc2ccc(N3CCN(C)CC3)cc2c1=O

>  <Name>  (585) 
nan

>  <Pocket>  (585) 
nan

>  <ATP_Site>  (585) 
nan

>  <Peripheral>  (585) 
nan

>  <Num_H_Atoms_ProtBoundConf>  (585) 
nan

>  <Num_Resolved_Atoms>  (585) 
nan

>  <Num_Not_Resolved_Atoms>  (585) 
nan

$$$$
CHEMBL2036459
     RDKit          3D

  0  0  0  0  0  0  0  0  0  0999 V3000
M  V30 BEGIN CTAB
M  V30 COUNTS 59 64 0 0 0
M  V30 BEGIN ATOM
M  V30 1 F 6.244583 -4.446815 0.297367 0
M  V30 2 C 5.495829 -3.459655 0.895932 0
M  V30 3 C 4.642031 -3.887622 1.893109 0
M  V30 4 C 3.903105 -2.872087 2.475057 0
M  V30 5 C 4.008163 -1.529173 2.090806 0
M  V30 6 C 3.171885 -0.575158 2.787057 0
M  V30 7 O 3.939973 0.560659 3.135942 0
M  V30 8 N 3.181323 1.713172 3.028886 0
M  V30 9 C 2.112831 1.400990 2.372753 0
M  V30 10 C 1.030781 2.320649 2.030702 0
M  V30 11 C 1.248037 3.693956 1.866718 0
M  V30 12 C 0.010125 4.263758 1.546625 0
M  V30 13 C -0.873733 3.198408 1.538182 0
M  V30 14 C -2.300069 3.301843 1.251723 0
M  V30 15 C -3.105559 2.183308 1.258647 0
M  V30 16 C -4.463729 2.168905 1.001208 0
M  V30 17 C -5.026592 3.418437 0.713999 0
M  V30 18 Cl -6.733863 3.585742 0.362968 0
M  V30 19 C -4.262630 4.584569 0.692382 0
M  V30 20 C -2.897109 4.509978 0.964069 0
M  V30 21 O -0.249739 2.083691 1.823329 0
M  V30 22 N 2.104383 0.019820 2.012617 0
M  V30 23 C 1.293358 -0.711911 1.123452 0
M  V30 24 C 0.128151 -1.275222 1.656034 0
M  V30 25 C -0.707990 -2.008349 0.824680 0
M  V30 26 C -0.479927 -2.232080 -0.512028 0
M  V30 27 N -1.338112 -2.975281 -1.337062 0
M  V30 28 C -2.594165 -3.573542 -0.923415 0
M  V30 29 C -2.307795 -5.076476 -1.050378 0
M  V30 30 N -2.321662 -5.370543 -2.431484 0
M  V30 31 C -1.668909 -4.462647 -3.299464 0
M  V30 32 C -1.060291 -3.236466 -2.718873 0
M  V30 33 C 0.658040 -1.673865 -1.002900 0
M  V30 34 C 1.532246 -0.933015 -0.228189 0
M  V30 35 N 4.845172 -1.177350 1.127088 0
M  V30 36 C 5.582792 -2.133571 0.534438 0
M  V30 37 H 4.498082 -4.891469 2.249408 0
M  V30 38 H 3.203499 -3.153808 3.278524 0
M  V30 39 H 2.755172 -0.972928 3.730532 0
M  V30 40 H 2.133673 4.290753 1.945683 0
M  V30 41 H -0.223959 5.290005 1.348621 0
M  V30 42 H -2.674078 1.201580 1.481853 0
M  V30 43 H -5.064437 1.290501 1.012812 0
M  V30 44 H -4.730532 5.534071 0.466146 0
M  V30 45 H -2.333702 5.417716 0.941754 0
M  V30 46 H -0.105295 -1.131730 2.708368 0
M  V30 47 H -1.585423 -2.409157 1.312484 0
M  V30 48 H -2.907563 -3.331840 0.090016 0
M  V30 49 H -3.373090 -3.354437 -1.683858 0
M  V30 50 H -3.114713 -5.667592 -0.553182 0
M  V30 51 H -1.362976 -5.255558 -0.518853 0
M  V30 52 H -2.156372 -6.373979 -2.621865 0
M  V30 53 H -2.431399 -4.154836 -4.064712 0
M  V30 54 H -0.934242 -5.055226 -3.885665 0
M  V30 55 H -1.417109 -2.311457 -3.263302 0
M  V30 56 H 0.030085 -3.271819 -2.918363 0
M  V30 57 H 0.992096 -1.741703 -2.005270 0
M  V30 58 H 2.445668 -0.472394 -0.578565 0
M  V30 59 H 6.284552 -1.886687 -0.264995 0
M  V30 END ATOM
M  V30 BEGIN BOND
M  V30 1 1 1 2
M  V30 2 2 2 3
M  V30 3 1 3 4
M  V30 4 2 4 5
M  V30 5 1 5 6
M  V30 6 1 6 7
M  V30 7 1 7 8
M  V30 8 2 8 9
M  V30 9 1 9 10
M  V30 10 2 10 11
M  V30 11 1 11 12
M  V30 12 2 12 13
M  V30 13 1 13 14
M  V30 14 2 14 15
M  V30 15 1 15 16
M  V30 16 2 16 17
M  V30 17 1 17 18
M  V30 18 1 17 19
M  V30 19 2 19 20
M  V30 20 1 13 21
M  V30 21 1 9 22
M  V30 22 1 22 23
M  V30 23 2 23 24
M  V30 24 1 24 25
M  V30 25 2 25 26
M  V30 26 1 26 27
M  V30 27 1 27 28
M  V30 28 1 28 29
M  V30 29 1 29 30
M  V30 30 1 30 31
M  V30 31 1 31 32
M  V30 32 1 26 33
M  V30 33 2 33 34
M  V30 34 1 5 35
M  V30 35 2 35 36
M  V30 36 1 36 2
M  V30 37 1 22 6
M  V30 38 1 34 23
M  V30 39 1 21 10
M  V30 40 1 32 27
M  V30 41 1 20 14
M  V30 42 1 3 37
M  V30 43 1 4 38
M  V30 44 1 6 39
M  V30 45 1 11 40
M  V30 46 1 12 41
M  V30 47 1 15 42
M  V30 48 1 16 43
M  V30 49 1 19 44
M  V30 50 1 20 45
M  V30 51 1 24 46
M  V30 52 1 25 47
M  V30 53 1 28 48
M  V30 54 1 28 49
M  V30 55 1 29 50
M  V30 56 1 29 51
M  V30 57 1 30 52
M  V30 58 1 31 53
M  V30 59 1 31 54
M  V30 60 1 32 55
M  V30 61 1 32 56
M  V30 62 1 33 57
M  V30 63 1 34 58
M  V30 64 1 36 59
M  V30 END BOND
M  V30 END CTAB
M  END
>  <Dataset>  (586) 
ChEMBL_Kinases

>  <Ligand_Instance>  (586) 
nan

>  <PDB_ID>  (586) 
nan

>  <Standardized_SMILES>  (586) 
Fc1ccc(C2ON=C(c3ccc(-c4ccc(Cl)cc4)o3)N2c2ccc(N3CCNCC3)cc2)nc1

>  <Name>  (586) 
nan

>  <Pocket>  (586) 
nan

>  <ATP_Site>  (586) 
nan

>  <Peripheral>  (586) 
nan

>  <Num_H_Atoms_ProtBoundConf>  (586) 
nan

>  <Num_Resolved_Atoms>  (586) 
nan

>  <Num_Not_Resolved_Atoms>  (586) 
nan

$$$$
CHEMBL2036601
     RDKit          3D

  0  0  0  0  0  0  0  0  0  0999 V3000
M  V30 BEGIN CTAB
M  V30 COUNTS 57 62 0 0 0
M  V30 BEGIN ATOM
M  V30 1 Cl 6.894604 -6.240709 -2.096477 0
M  V30 2 C 5.834506 -4.924206 -1.651293 0
M  V30 3 C 5.314160 -4.964187 -0.379065 0
M  V30 4 C 4.466411 -3.969712 0.065715 0
M  V30 5 C 4.112004 -2.902125 -0.749514 0
M  V30 6 C 3.209728 -1.822439 -0.306038 0
M  V30 7 C 2.660181 -1.819260 0.977896 0
M  V30 8 C 1.892487 -0.678333 1.010509 0
M  V30 9 C 1.995490 -0.047552 -0.208553 0
M  V30 10 C 1.366633 1.201167 -0.668872 0
M  V30 11 N 1.919561 2.024352 -1.524630 0
M  V30 12 O 1.067414 3.106587 -1.748375 0
M  V30 13 C 0.349387 3.192304 -0.506955 0
M  V30 14 C 1.324288 3.602879 0.534357 0
M  V30 15 C 1.662141 3.231290 1.817735 0
M  V30 16 N 2.671446 4.014904 2.259155 0
M  V30 17 C 2.985946 4.882647 1.279151 0
M  V30 18 N 2.178671 4.630780 0.254209 0
M  V30 19 N 0.086497 1.772984 -0.317833 0
M  V30 20 C -1.026406 0.983344 0.078428 0
M  V30 21 C -1.376160 0.575174 1.347171 0
M  V30 22 C -2.491861 -0.190815 1.595485 0
M  V30 23 C -3.336400 -0.601410 0.585077 0
M  V30 24 N -4.485123 -1.396250 0.866715 0
M  V30 25 C -5.479743 -1.864330 -0.041760 0
M  V30 26 C -5.703409 -3.354530 0.030657 0
M  V30 27 N -5.508529 -3.866708 1.371537 0
M  V30 28 C -5.751016 -2.843311 2.371722 0
M  V30 29 C -4.698003 -1.799910 2.242438 0
M  V30 30 C -2.995676 -0.198208 -0.689773 0
M  V30 31 C -1.880224 0.569841 -0.954660 0
M  V30 32 O 2.799081 -0.773297 -0.968699 0
M  V30 33 C 4.648712 -2.887481 -2.020744 0
M  V30 34 C 5.501449 -3.879387 -2.481278 0
M  V30 35 H 5.495075 -5.734514 0.383018 0
M  V30 36 H 4.029710 -3.959753 1.066407 0
M  V30 37 H 2.763235 -2.507589 1.802075 0
M  V30 38 H 1.315062 -0.345204 1.853043 0
M  V30 39 H -0.547147 3.804173 -0.568388 0
M  V30 40 H 1.113704 2.419617 2.268924 0
M  V30 41 H 3.091992 3.914120 3.208449 0
M  V30 42 H 3.755207 5.647161 1.315756 0
M  V30 43 H -0.714398 0.898448 2.132514 0
M  V30 44 H -2.658964 -0.446080 2.630702 0
M  V30 45 H -6.452075 -1.381202 0.234812 0
M  V30 46 H -5.210116 -1.593654 -1.079955 0
M  V30 47 H -5.012828 -3.898592 -0.636391 0
M  V30 48 H -6.734808 -3.605752 -0.278782 0
M  V30 49 H -4.484209 -4.111827 1.457728 0
M  V30 50 H -6.746753 -2.391989 2.332349 0
M  V30 51 H -5.573002 -3.364429 3.356287 0
M  V30 52 H -3.730593 -2.179001 2.683682 0
M  V30 53 H -4.926365 -0.867468 2.822913 0
M  V30 54 H -3.591391 -0.470375 -1.526842 0
M  V30 55 H -1.656553 0.863285 -1.992737 0
M  V30 56 H 4.392595 -2.070655 -2.678997 0
M  V30 57 H 5.936393 -3.896567 -3.468912 0
M  V30 END ATOM
M  V30 BEGIN BOND
M  V30 1 1 1 2
M  V30 2 2 2 3
M  V30 3 1 3 4
M  V30 4 2 4 5
M  V30 5 1 5 6
M  V30 6 2 6 7
M  V30 7 1 7 8
M  V30 8 2 8 9
M  V30 9 1 9 10
M  V30 10 2 10 11
M  V30 11 1 11 12
M  V30 12 1 12 13
M  V30 13 1 13 14
M  V30 14 2 14 15
M  V30 15 1 15 16
M  V30 16 1 16 17
M  V30 17 2 17 18
M  V30 18 1 13 19
M  V30 19 1 19 20
M  V30 20 2 20 21
M  V30 21 1 21 22
M  V30 22 2 22 23
M  V30 23 1 23 24
M  V30 24 1 24 25
M  V30 25 1 25 26
M  V30 26 1 26 27
M  V30 27 1 27 28
M  V30 28 1 28 29
M  V30 29 1 23 30
M  V30 30 2 30 31
M  V30 31 1 9 32
M  V30 32 1 5 33
M  V30 33 2 33 34
M  V30 34 1 34 2
M  V30 35 1 32 6
M  V30 36 1 19 10
M  V30 37 1 31 20
M  V30 38 1 18 14
M  V30 39 1 29 24
M  V30 40 1 3 35
M  V30 41 1 4 36
M  V30 42 1 7 37
M  V30 43 1 8 38
M  V30 44 1 13 39
M  V30 45 1 15 40
M  V30 46 1 16 41
M  V30 47 1 17 42
M  V30 48 1 21 43
M  V30 49 1 22 44
M  V30 50 1 25 45
M  V30 51 1 25 46
M  V30 52 1 26 47
M  V30 53 1 26 48
M  V30 54 1 27 49
M  V30 55 1 28 50
M  V30 56 1 28 51
M  V30 57 1 29 52
M  V30 58 1 29 53
M  V30 59 1 30 54
M  V30 60 1 31 55
M  V30 61 1 33 56
M  V30 62 1 34 57
M  V30 END BOND
M  V30 END CTAB
M  END
>  <Dataset>  (587) 
ChEMBL_Kinases

>  <Ligand_Instance>  (587) 
nan

>  <PDB_ID>  (587) 
nan

>  <Standardized_SMILES>  (587) 
Clc1ccc(-c2ccc(C3=NOC(c4c[nH]cn4)N3c3ccc(N4CCNCC4)cc3)o2)cc1

>  <Name>  (587) 
nan

>  <Pocket>  (587) 
nan

>  <ATP_Site>  (587) 
nan

>  <Peripheral>  (587) 
nan

>  <Num_H_Atoms_ProtBoundConf>  (587) 
nan

>  <Num_Resolved_Atoms>  (587) 
nan

>  <Num_Not_Resolved_Atoms>  (587) 
nan

$$$$
CHEMBL2036604
     RDKit          3D

  0  0  0  0  0  0  0  0  0  0999 V3000
M  V30 BEGIN CTAB
M  V30 COUNTS 68 74 0 0 0
M  V30 BEGIN ATOM
M  V30 1 Cl 3.103734 -0.995593 9.228939 0
M  V30 2 C 2.411387 -0.908711 7.616845 0
M  V30 3 C 1.454612 -1.820136 7.189001 0
M  V30 4 C 0.933744 -1.709258 5.896405 0
M  V30 5 C 1.351085 -0.718169 5.047192 0
M  V30 6 C 0.812003 -0.596357 3.696897 0
M  V30 7 C 1.208226 0.398449 2.799718 0
M  V30 8 C 0.443388 0.124499 1.662930 0
M  V30 9 C -0.344367 -0.977406 1.920135 0
M  V30 10 C -1.326286 -1.671467 1.057012 0
M  V30 11 N -2.391074 -2.289960 1.515292 0
M  V30 12 O -3.089546 -2.829369 0.430950 0
M  V30 13 C -2.754667 -1.920878 -0.627147 0
M  V30 14 C -3.393607 -0.642599 -0.302262 0
M  V30 15 C -4.731038 -0.829979 0.085121 0
M  V30 16 C -5.539975 0.246292 0.440096 0
M  V30 17 C -5.056051 1.537158 0.423914 0
M  V30 18 C -5.866017 2.689333 0.785814 0
M  V30 19 C -5.379772 3.846760 1.371603 0
M  V30 20 N -6.176444 4.889530 1.687815 0
M  V30 21 C -7.510636 4.792908 1.417244 0
M  V30 22 N -8.051962 3.689790 0.845579 0
M  V30 23 C -7.225469 2.672157 0.545432 0
M  V30 24 C -3.752981 1.720121 0.046506 0
M  V30 25 C -2.948269 0.659576 -0.305512 0
M  V30 26 N -1.327857 -1.813209 -0.380308 0
M  V30 27 C -0.140675 -1.831605 -1.161937 0
M  V30 28 C 0.402613 -3.108232 -1.368983 0
M  V30 29 C 1.544203 -3.370363 -2.095860 0
M  V30 30 C 2.216335 -2.328388 -2.667971 0
M  V30 31 N 3.401518 -2.471732 -3.440852 0
M  V30 32 C 4.195398 -1.448293 -4.094484 0
M  V30 33 C 5.506745 -1.371384 -3.342080 0
M  V30 34 N 6.115810 -2.669057 -3.308724 0
M  V30 35 C 5.404127 -3.647263 -4.106799 0
M  V30 36 C 3.968481 -3.808800 -3.658985 0
M  V30 37 C 1.706159 -1.062861 -2.481439 0
M  V30 38 C 0.562703 -0.826469 -1.750229 0
M  V30 39 O -0.074254 -1.356253 3.150183 0
M  V30 40 C 2.302932 0.150823 5.538767 0
M  V30 41 C 2.865775 0.110854 6.796091 0
M  V30 42 H 1.167506 -2.572389 7.896157 0
M  V30 43 H 0.193860 -2.434688 5.601542 0
M  V30 44 H 1.926330 1.187435 2.940666 0
M  V30 45 H 0.447767 0.667225 0.728203 0
M  V30 46 H -2.992841 -2.316188 -1.620297 0
M  V30 47 H -5.256907 -1.779374 0.148181 0
M  V30 48 H -6.572199 0.135185 0.742641 0
M  V30 49 H -4.324764 3.889026 1.570529 0
M  V30 50 H -8.044697 5.696630 1.717956 0
M  V30 51 H -7.650757 1.795769 0.091558 0
M  V30 52 H -3.305431 2.698935 0.009934 0
M  V30 53 H -1.924610 0.722763 -0.608708 0
M  V30 54 H -0.076182 -4.002689 -0.943092 0
M  V30 55 H 1.916286 -4.372396 -2.222413 0
M  V30 56 H 3.696097 -0.468831 -4.161403 0
M  V30 57 H 4.385315 -1.777681 -5.148532 0
M  V30 58 H 5.223347 -1.103628 -2.292395 0
M  V30 59 H 6.163497 -0.589582 -3.769901 0
M  V30 60 H 6.132490 -3.075480 -2.330767 0
M  V30 61 H 5.910085 -4.634913 -3.898333 0
M  V30 62 H 5.479962 -3.495257 -5.184139 0
M  V30 63 H 3.872502 -4.466678 -2.793851 0
M  V30 64 H 3.422133 -4.184472 -4.571830 0
M  V30 65 H 2.145248 -0.142032 -2.884040 0
M  V30 66 H 0.148903 0.158069 -1.593791 0
M  V30 67 H 2.664037 0.955815 4.895701 0
M  V30 68 H 3.605768 0.824103 7.113289 0
M  V30 END ATOM
M  V30 BEGIN BOND
M  V30 1 1 1 2
M  V30 2 2 2 3
M  V30 3 1 3 4
M  V30 4 2 4 5
M  V30 5 1 5 6
M  V30 6 2 6 7
M  V30 7 1 7 8
M  V30 8 2 8 9
M  V30 9 1 9 10
M  V30 10 2 10 11
M  V30 11 1 11 12
M  V30 12 1 12 13
M  V30 13 1 13 14
M  V30 14 2 14 15
M  V30 15 1 15 16
M  V30 16 2 16 17
M  V30 17 1 17 18
M  V30 18 2 18 19
M  V30 19 1 19 20
M  V30 20 2 20 21
M  V30 21 1 21 22
M  V30 22 2 22 23
M  V30 23 1 17 24
M  V30 24 2 24 25
M  V30 25 1 13 26
M  V30 26 1 26 27
M  V30 27 2 27 28
M  V30 28 1 28 29
M  V30 29 2 29 30
M  V30 30 1 30 31
M  V30 31 1 31 32
M  V30 32 1 32 33
M  V30 33 1 33 34
M  V30 34 1 34 35
M  V30 35 1 35 36
M  V30 36 1 30 37
M  V30 37 2 37 38
M  V30 38 1 9 39
M  V30 39 1 5 40
M  V30 40 2 40 41
M  V30 41 1 41 2
M  V30 42 1 39 6
M  V30 43 1 26 10
M  V30 44 1 38 27
M  V30 45 1 25 14
M  V30 46 1 36 31
M  V30 47 1 23 18
M  V30 48 1 3 42
M  V30 49 1 4 43
M  V30 50 1 7 44
M  V30 51 1 8 45
M  V30 52 1 13 46
M  V30 53 1 15 47
M  V30 54 1 16 48
M  V30 55 1 19 49
M  V30 56 1 21 50
M  V30 57 1 23 51
M  V30 58 1 24 52
M  V30 59 1 25 53
M  V30 60 1 28 54
M  V30 61 1 29 55
M  V30 62 1 32 56
M  V30 63 1 32 57
M  V30 64 1 33 58
M  V30 65 1 33 59
M  V30 66 1 34 60
M  V30 67 1 35 61
M  V30 68 1 35 62
M  V30 69 1 36 63
M  V30 70 1 36 64
M  V30 71 1 37 65
M  V30 72 1 38 66
M  V30 73 1 40 67
M  V30 74 1 41 68
M  V30 END BOND
M  V30 END CTAB
M  END
>  <Dataset>  (588) 
ChEMBL_Kinases

>  <Ligand_Instance>  (588) 
nan

>  <PDB_ID>  (588) 
nan

>  <Standardized_SMILES>  (588) 
Clc1ccc(-c2ccc(C3=NOC(c4ccc(-c5cncnc5)cc4)N3c3ccc(N4CCNCC4)cc3)o2)cc1

>  <Name>  (588) 
nan

>  <Pocket>  (588) 
nan

>  <ATP_Site>  (588) 
nan

>  <Peripheral>  (588) 
nan

>  <Num_H_Atoms_ProtBoundConf>  (588) 
nan

>  <Num_Resolved_Atoms>  (588) 
nan

>  <Num_Not_Resolved_Atoms>  (588) 
nan

$$$$
CHEMBL2036606
     RDKit          3D

  0  0  0  0  0  0  0  0  0  0999 V3000
M  V30 BEGIN CTAB
M  V30 COUNTS 68 74 0 0 0
M  V30 BEGIN ATOM
M  V30 1 Cl 7.228678 -3.096328 -0.457874 0
M  V30 2 C 5.940837 -2.169555 0.288768 0
M  V30 3 C 4.626204 -2.595971 0.208153 0
M  V30 4 C 3.650383 -1.821238 0.816278 0
M  V30 5 C 3.914208 -0.652497 1.495417 0
M  V30 6 C 2.824768 0.103110 2.108636 0
M  V30 7 C 2.833435 1.274732 2.817816 0
M  V30 8 C 1.507580 1.534882 3.163985 0
M  V30 9 C 0.752098 0.484213 2.633938 0
M  V30 10 C -0.717096 0.380011 2.778455 0
M  V30 11 N -1.267946 0.834577 3.873569 0
M  V30 12 O -2.612789 0.617027 3.747043 0
M  V30 13 C -2.697979 -0.600430 2.936827 0
M  V30 14 C -2.277851 -1.670520 3.800818 0
M  V30 15 C -2.689251 -1.567313 5.139214 0
M  V30 16 C -2.372722 -2.451547 6.172318 0
M  V30 17 C -1.575935 -3.548717 5.880199 0
M  V30 18 C -1.159430 -3.673190 4.572989 0
M  V30 19 C -1.508492 -2.764670 3.597983 0
M  V30 20 C -1.011510 -3.181098 2.307275 0
M  V30 21 C 0.254235 -3.539882 1.906823 0
M  V30 22 N 0.489776 -3.977494 0.635473 0
M  V30 23 C -0.547877 -4.060584 -0.250741 0
M  V30 24 N -1.803997 -3.720976 0.090153 0
M  V30 25 C -2.033800 -3.285179 1.358505 0
M  V30 26 N -1.744465 -0.152254 1.912856 0
M  V30 27 C -1.579226 -0.053660 0.509333 0
M  V30 28 C -0.747303 -0.647615 -0.384905 0
M  V30 29 C -0.816265 -0.400756 -1.734296 0
M  V30 30 C -1.730054 0.464340 -2.279601 0
M  V30 31 N -1.772050 0.699271 -3.681303 0
M  V30 32 C -2.832154 1.375702 -4.404431 0
M  V30 33 C -2.322650 2.466300 -5.308013 0
M  V30 34 N -0.916889 2.717419 -5.158865 0
M  V30 35 C -0.100345 1.556079 -5.140370 0
M  V30 36 C -0.758242 0.301942 -4.638078 0
M  V30 37 C -2.591698 1.088803 -1.410084 0
M  V30 38 C -2.524515 0.838939 -0.031996 0
M  V30 39 O 1.581771 -0.305075 2.037471 0
M  V30 40 C 5.232106 -0.203881 1.589727 0
M  V30 41 C 6.194876 -0.980026 0.982646 0
M  V30 42 H 4.360747 -3.512001 -0.317349 0
M  V30 43 H 2.644175 -2.193478 0.724895 0
M  V30 44 H 3.748443 1.826662 3.020330 0
M  V30 45 H 1.204042 2.408567 3.735198 0
M  V30 46 H -3.736156 -0.590632 2.584128 0
M  V30 47 H -3.325313 -0.726304 5.463212 0
M  V30 48 H -2.735003 -2.286693 7.171660 0
M  V30 49 H -1.360359 -4.195538 6.713532 0
M  V30 50 H -0.542436 -4.557255 4.436029 0
M  V30 51 H 0.983375 -3.430851 2.693485 0
M  V30 52 H -0.241120 -4.428999 -1.241408 0
M  V30 53 H -3.084029 -3.042176 1.509227 0
M  V30 54 H -0.050762 -1.302816 0.106187 0
M  V30 55 H -0.097361 -0.946676 -2.285854 0
M  V30 56 H -3.677710 1.690752 -3.787459 0
M  V30 57 H -3.262823 0.596591 -5.106531 0
M  V30 58 H -2.846700 3.399977 -5.024072 0
M  V30 59 H -2.517510 2.294868 -6.379518 0
M  V30 60 H -0.691043 3.440565 -4.446606 0
M  V30 61 H 0.778731 1.761887 -4.493464 0
M  V30 62 H 0.337043 1.390498 -6.157475 0
M  V30 63 H -1.206743 -0.228395 -5.530590 0
M  V30 64 H 0.037497 -0.341229 -4.198395 0
M  V30 65 H -3.330673 1.783454 -1.799966 0
M  V30 66 H -3.271616 1.401606 0.552405 0
M  V30 67 H 5.487154 0.701944 2.109714 0
M  V30 68 H 7.260499 -0.712086 1.001345 0
M  V30 END ATOM
M  V30 BEGIN BOND
M  V30 1 1 1 2
M  V30 2 2 2 3
M  V30 3 1 3 4
M  V30 4 2 4 5
M  V30 5 1 5 6
M  V30 6 2 6 7
M  V30 7 1 7 8
M  V30 8 2 8 9
M  V30 9 1 9 10
M  V30 10 2 10 11
M  V30 11 1 11 12
M  V30 12 1 12 13
M  V30 13 1 13 14
M  V30 14 2 14 15
M  V30 15 1 15 16
M  V30 16 2 16 17
M  V30 17 1 17 18
M  V30 18 2 18 19
M  V30 19 1 19 20
M  V30 20 2 20 21
M  V30 21 1 21 22
M  V30 22 2 22 23
M  V30 23 1 23 24
M  V30 24 2 24 25
M  V30 25 1 13 26
M  V30 26 1 26 27
M  V30 27 2 27 28
M  V30 28 1 28 29
M  V30 29 2 29 30
M  V30 30 1 30 31
M  V30 31 1 31 32
M  V30 32 1 32 33
M  V30 33 1 33 34
M  V30 34 1 34 35
M  V30 35 1 35 36
M  V30 36 1 30 37
M  V30 37 2 37 38
M  V30 38 1 9 39
M  V30 39 1 5 40
M  V30 40 2 40 41
M  V30 41 1 41 2
M  V30 42 1 39 6
M  V30 43 1 26 10
M  V30 44 1 38 27
M  V30 45 1 19 14
M  V30 46 1 25 20
M  V30 47 1 36 31
M  V30 48 1 3 42
M  V30 49 1 4 43
M  V30 50 1 7 44
M  V30 51 1 8 45
M  V30 52 1 13 46
M  V30 53 1 15 47
M  V30 54 1 16 48
M  V30 55 1 17 49
M  V30 56 1 18 50
M  V30 57 1 21 51
M  V30 58 1 23 52
M  V30 59 1 25 53
M  V30 60 1 28 54
M  V30 61 1 29 55
M  V30 62 1 32 56
M  V30 63 1 32 57
M  V30 64 1 33 58
M  V30 65 1 33 59
M  V30 66 1 34 60
M  V30 67 1 35 61
M  V30 68 1 35 62
M  V30 69 1 36 63
M  V30 70 1 36 64
M  V30 71 1 37 65
M  V30 72 1 38 66
M  V30 73 1 40 67
M  V30 74 1 41 68
M  V30 END BOND
M  V30 END CTAB
M  END
>  <Dataset>  (589) 
ChEMBL_Kinases

>  <Ligand_Instance>  (589) 
nan

>  <PDB_ID>  (589) 
nan

>  <Standardized_SMILES>  (589) 
Clc1ccc(-c2ccc(C3=NOC(c4ccccc4-c4cncnc4)N3c3ccc(N4CCNCC4)cc3)o2)cc1

>  <Name>  (589) 
nan

>  <Pocket>  (589) 
nan

>  <ATP_Site>  (589) 
nan

>  <Peripheral>  (589) 
nan

>  <Num_H_Atoms_ProtBoundConf>  (589) 
nan

>  <Num_Resolved_Atoms>  (589) 
nan

>  <Num_Not_Resolved_Atoms>  (589) 
nan

$$$$
CHEMBL2036610
     RDKit          3D

  0  0  0  0  0  0  0  0  0  0999 V3000
M  V30 BEGIN CTAB
M  V30 COUNTS 68 74 0 0 0
M  V30 BEGIN ATOM
M  V30 1 F 6.056780 -6.351120 4.369493 0
M  V30 2 C 5.356298 -5.390718 3.692356 0
M  V30 3 C 4.483984 -4.599871 4.428890 0
M  V30 4 C 3.728176 -3.593199 3.812218 0
M  V30 5 C 3.883381 -3.419261 2.452356 0
M  V30 6 C 3.103794 -2.373791 1.795915 0
M  V30 7 C 3.109327 -2.036570 0.451633 0
M  V30 8 C 2.200826 -1.001747 0.407491 0
M  V30 9 C 1.683491 -0.738651 1.655793 0
M  V30 10 C 0.691268 0.263644 2.094284 0
M  V30 11 N 0.904098 0.883660 3.233401 0
M  V30 12 O -0.152426 1.744519 3.390576 0
M  V30 13 C -1.272743 1.006517 2.793660 0
M  V30 14 C -1.457817 -0.133566 3.662435 0
M  V30 15 C -1.247015 0.080651 5.038378 0
M  V30 16 C -1.313532 -0.870169 6.059738 0
M  V30 17 C -1.615791 -2.159255 5.702772 0
M  V30 18 C -1.837306 -2.432499 4.347257 0
M  V30 19 C -1.748778 -1.422676 3.420973 0
M  V30 20 C -2.106417 -1.943057 2.116079 0
M  V30 21 C -1.613014 -3.082056 1.499252 0
M  V30 22 N -2.081169 -3.490196 0.305127 0
M  V30 23 C -3.056485 -2.818356 -0.365437 0
M  V30 24 N -3.593050 -1.695836 0.162504 0
M  V30 25 C -3.104209 -1.307245 1.365188 0
M  V30 26 N -0.551073 0.735355 1.526568 0
M  V30 27 C -0.694605 0.832940 0.138985 0
M  V30 28 C -0.656043 2.159657 -0.314960 0
M  V30 29 C -0.767930 2.518078 -1.625694 0
M  V30 30 C -0.928107 1.579463 -2.596219 0
M  V30 31 N -1.054204 1.776723 -4.011561 0
M  V30 32 C -1.360882 0.807303 -5.050527 0
M  V30 33 C -2.532819 1.276139 -5.880626 0
M  V30 34 N -3.134878 2.487740 -5.461978 0
M  V30 35 C -2.235524 3.533545 -5.095092 0
M  V30 36 C -0.872228 3.077311 -4.654368 0
M  V30 37 C -0.970151 0.255016 -2.182166 0
M  V30 38 C -0.856217 -0.103245 -0.857331 0
M  V30 39 O 2.271277 -1.603153 2.448076 0
M  V30 40 C 4.748690 -4.202263 1.716520 0
M  V30 41 C 5.507961 -5.209723 2.321779 0
M  V30 42 H 4.400368 -4.781191 5.504114 0
M  V30 43 H 3.054956 -2.991389 4.411235 0
M  V30 44 H 3.686090 -2.483965 -0.339556 0
M  V30 45 H 1.948929 -0.476851 -0.502034 0
M  V30 46 H -2.096770 1.701798 2.670374 0
M  V30 47 H -0.999583 1.097128 5.393435 0
M  V30 48 H -1.132409 -0.584117 7.080069 0
M  V30 49 H -1.659435 -2.869706 6.507816 0
M  V30 50 H -2.065037 -3.471167 4.184309 0
M  V30 51 H -0.832006 -3.604998 2.053116 0
M  V30 52 H -3.292162 -3.303914 -1.298790 0
M  V30 53 H -3.556761 -0.398926 1.764450 0
M  V30 54 H -0.533516 3.007958 0.344990 0
M  V30 55 H -0.738471 3.538779 -1.965540 0
M  V30 56 H -1.460195 -0.217710 -4.700781 0
M  V30 57 H -0.471952 0.819149 -5.748546 0
M  V30 58 H -3.316925 0.470598 -5.767793 0
M  V30 59 H -2.299778 1.302352 -6.966684 0
M  V30 60 H -4.031821 2.445036 -4.975808 0
M  V30 61 H -2.684821 4.096559 -4.239872 0
M  V30 62 H -2.109827 4.306164 -5.892050 0
M  V30 63 H -0.193765 2.986946 -5.554438 0
M  V30 64 H -0.463643 3.818010 -3.940042 0
M  V30 65 H -1.087946 -0.641870 -2.777063 0
M  V30 66 H -0.857244 -1.086391 -0.435335 0
M  V30 67 H 4.878296 -4.074889 0.652420 0
M  V30 68 H 6.183268 -5.824294 1.759031 0
M  V30 END ATOM
M  V30 BEGIN BOND
M  V30 1 1 1 2
M  V30 2 2 2 3
M  V30 3 1 3 4
M  V30 4 2 4 5
M  V30 5 1 5 6
M  V30 6 2 6 7
M  V30 7 1 7 8
M  V30 8 2 8 9
M  V30 9 1 9 10
M  V30 10 2 10 11
M  V30 11 1 11 12
M  V30 12 1 12 13
M  V30 13 1 13 14
M  V30 14 2 14 15
M  V30 15 1 15 16
M  V30 16 2 16 17
M  V30 17 1 17 18
M  V30 18 2 18 19
M  V30 19 1 19 20
M  V30 20 2 20 21
M  V30 21 1 21 22
M  V30 22 2 22 23
M  V30 23 1 23 24
M  V30 24 2 24 25
M  V30 25 1 13 26
M  V30 26 1 26 27
M  V30 27 2 27 28
M  V30 28 1 28 29
M  V30 29 2 29 30
M  V30 30 1 30 31
M  V30 31 1 31 32
M  V30 32 1 32 33
M  V30 33 1 33 34
M  V30 34 1 34 35
M  V30 35 1 35 36
M  V30 36 1 30 37
M  V30 37 2 37 38
M  V30 38 1 9 39
M  V30 39 1 5 40
M  V30 40 2 40 41
M  V30 41 1 41 2
M  V30 42 1 39 6
M  V30 43 1 26 10
M  V30 44 1 38 27
M  V30 45 1 19 14
M  V30 46 1 25 20
M  V30 47 1 36 31
M  V30 48 1 3 42
M  V30 49 1 4 43
M  V30 50 1 7 44
M  V30 51 1 8 45
M  V30 52 1 13 46
M  V30 53 1 15 47
M  V30 54 1 16 48
M  V30 55 1 17 49
M  V30 56 1 18 50
M  V30 57 1 21 51
M  V30 58 1 23 52
M  V30 59 1 25 53
M  V30 60 1 28 54
M  V30 61 1 29 55
M  V30 62 1 32 56
M  V30 63 1 32 57
M  V30 64 1 33 58
M  V30 65 1 33 59
M  V30 66 1 34 60
M  V30 67 1 35 61
M  V30 68 1 35 62
M  V30 69 1 36 63
M  V30 70 1 36 64
M  V30 71 1 37 65
M  V30 72 1 38 66
M  V30 73 1 40 67
M  V30 74 1 41 68
M  V30 END BOND
M  V30 END CTAB
M  END
>  <Dataset>  (590) 
ChEMBL_Kinases

>  <Ligand_Instance>  (590) 
nan

>  <PDB_ID>  (590) 
nan

>  <Standardized_SMILES>  (590) 
Fc1ccc(-c2ccc(C3=NOC(c4ccccc4-c4cncnc4)N3c3ccc(N4CCNCC4)cc3)o2)cc1

>  <Name>  (590) 
nan

>  <Pocket>  (590) 
nan

>  <ATP_Site>  (590) 
nan

>  <Peripheral>  (590) 
nan

>  <Num_H_Atoms_ProtBoundConf>  (590) 
nan

>  <Num_Resolved_Atoms>  (590) 
nan

>  <Num_Not_Resolved_Atoms>  (590) 
nan

$$$$
CHEMBL2036616
     RDKit          3D

  0  0  0  0  0  0  0  0  0  0999 V3000
M  V30 BEGIN CTAB
M  V30 COUNTS 69 75 0 0 0
M  V30 BEGIN ATOM
M  V30 1 N 9.456204 -5.287185 3.564173 0
M  V30 2 C 8.546242 -4.724838 3.109090 0
M  V30 3 C 7.422565 -4.035526 2.525381 0
M  V30 4 C 6.984690 -2.932915 3.231430 0
M  V30 5 C 5.906736 -2.196988 2.754813 0
M  V30 6 C 5.286520 -2.591489 1.565110 0
M  V30 7 C 4.143062 -1.820087 1.051117 0
M  V30 8 C 3.605728 -0.703245 1.651367 0
M  V30 9 C 2.566076 -0.321166 0.827943 0
M  V30 10 C 2.501105 -1.202068 -0.233213 0
M  V30 11 C 1.564366 -1.208524 -1.366414 0
M  V30 12 N 1.805159 -1.641759 -2.558950 0
M  V30 13 O 0.715702 -1.504849 -3.382411 0
M  V30 14 C -0.458987 -1.239596 -2.609392 0
M  V30 15 C -1.102198 -2.545136 -2.330193 0
M  V30 16 C -0.364560 -3.614956 -1.877235 0
M  V30 17 C -0.943866 -4.841724 -1.581666 0
M  V30 18 C -2.307008 -4.960628 -1.758273 0
M  V30 19 C -3.038107 -3.894302 -2.209701 0
M  V30 20 C -2.460715 -2.658162 -2.509090 0
M  V30 21 C -3.389850 -1.657013 -3.002586 0
M  V30 22 C -4.492300 -1.461047 -2.160351 0
M  V30 23 N -5.508508 -0.585397 -2.409262 0
M  V30 24 C -5.418011 0.124538 -3.549131 0
M  V30 25 N -4.372001 -0.031289 -4.393188 0
M  V30 26 C -3.377600 -0.889664 -4.148207 0
M  V30 27 N 0.218264 -0.746354 -1.385140 0
M  V30 28 C -0.405452 0.059639 -0.405935 0
M  V30 29 C -1.072287 -0.437234 0.703224 0
M  V30 30 C -1.661399 0.409587 1.622028 0
M  V30 31 C -1.623932 1.780308 1.495841 0
M  V30 32 N -2.229469 2.615114 2.443279 0
M  V30 33 C -2.947500 2.154655 3.610104 0
M  V30 34 C -3.978862 3.148377 4.079242 0
M  V30 35 N -4.569407 3.903635 3.021520 0
M  V30 36 C -3.660246 4.490486 2.091147 0
M  V30 37 C -2.253296 4.042648 2.441140 0
M  V30 38 C -0.967741 2.301066 0.403085 0
M  V30 39 C -0.378423 1.456938 -0.516041 0
M  V30 40 O 3.468558 -2.085063 -0.055438 0
M  V30 41 C 5.730083 -3.696408 0.863239 0
M  V30 42 C 6.815393 -4.432627 1.348355 0
M  V30 43 H 7.407072 -2.564533 4.153764 0
M  V30 44 H 5.529293 -1.330957 3.268033 0
M  V30 45 H 3.947609 -0.250552 2.567627 0
M  V30 46 H 1.915645 0.526960 0.991904 0
M  V30 47 H -1.105552 -0.476394 -3.024989 0
M  V30 48 H 0.694823 -3.565876 -1.726389 0
M  V30 49 H -0.379193 -5.694873 -1.224372 0
M  V30 50 H -2.776714 -5.906982 -1.533422 0
M  V30 51 H -4.105132 -4.071217 -2.321712 0
M  V30 52 H -4.632337 -1.999894 -1.221897 0
M  V30 53 H -6.203395 0.830487 -3.783997 0
M  V30 54 H -2.525079 -1.070585 -4.779615 0
M  V30 55 H -1.091916 -1.524099 0.787764 0
M  V30 56 H -2.137508 -0.103473 2.421576 0
M  V30 57 H -2.186526 2.083009 4.442609 0
M  V30 58 H -3.343127 1.152192 3.462030 0
M  V30 59 H -3.582862 3.796578 4.876593 0
M  V30 60 H -4.814395 2.533159 4.523024 0
M  V30 61 H -5.283873 4.542751 3.410828 0
M  V30 62 H -3.925935 4.227172 1.050103 0
M  V30 63 H -3.717053 5.604935 2.269970 0
M  V30 64 H -1.594614 4.528144 1.693386 0
M  V30 65 H -2.005457 4.513739 3.420224 0
M  V30 66 H -0.875916 3.351751 0.203990 0
M  V30 67 H 0.148290 1.853495 -1.392088 0
M  V30 68 H 5.272755 -4.027725 -0.059349 0
M  V30 69 H 7.225209 -5.302742 0.867916 0
M  V30 END ATOM
M  V30 BEGIN BOND
M  V30 1 3 1 2
M  V30 2 1 2 3
M  V30 3 2 3 4
M  V30 4 1 4 5
M  V30 5 2 5 6
M  V30 6 1 6 7
M  V30 7 2 7 8
M  V30 8 1 8 9
M  V30 9 2 9 10
M  V30 10 1 10 11
M  V30 11 2 11 12
M  V30 12 1 12 13
M  V30 13 1 13 14
M  V30 14 1 14 15
M  V30 15 2 15 16
M  V30 16 1 16 17
M  V30 17 2 17 18
M  V30 18 1 18 19
M  V30 19 2 19 20
M  V30 20 1 20 21
M  V30 21 2 21 22
M  V30 22 1 22 23
M  V30 23 2 23 24
M  V30 24 1 24 25
M  V30 25 2 25 26
M  V30 26 1 14 27
M  V30 27 1 27 28
M  V30 28 2 28 29
M  V30 29 1 29 30
M  V30 30 2 30 31
M  V30 31 1 31 32
M  V30 32 1 32 33
M  V30 33 1 33 34
M  V30 34 1 34 35
M  V30 35 1 35 36
M  V30 36 1 36 37
M  V30 37 1 31 38
M  V30 38 2 38 39
M  V30 39 1 10 40
M  V30 40 1 6 41
M  V30 41 2 41 42
M  V30 42 1 42 3
M  V30 43 1 40 7
M  V30 44 1 27 11
M  V30 45 1 39 28
M  V30 46 1 20 15
M  V30 47 1 26 21
M  V30 48 1 37 32
M  V30 49 1 4 43
M  V30 50 1 5 44
M  V30 51 1 8 45
M  V30 52 1 9 46
M  V30 53 1 14 47
M  V30 54 1 16 48
M  V30 55 1 17 49
M  V30 56 1 18 50
M  V30 57 1 19 51
M  V30 58 1 22 52
M  V30 59 1 24 53
M  V30 60 1 26 54
M  V30 61 1 29 55
M  V30 62 1 30 56
M  V30 63 1 33 57
M  V30 64 1 33 58
M  V30 65 1 34 59
M  V30 66 1 34 60
M  V30 67 1 35 61
M  V30 68 1 36 62
M  V30 69 1 36 63
M  V30 70 1 37 64
M  V30 71 1 37 65
M  V30 72 1 38 66
M  V30 73 1 39 67
M  V30 74 1 41 68
M  V30 75 1 42 69
M  V30 END BOND
M  V30 END CTAB
M  END
>  <Dataset>  (591) 
ChEMBL_Kinases

>  <Ligand_Instance>  (591) 
nan

>  <PDB_ID>  (591) 
nan

>  <Standardized_SMILES>  (591) 
N#Cc1ccc(-c2ccc(C3=NOC(c4ccccc4-c4cncnc4)N3c3ccc(N4CCNCC4)cc3)o2)cc1

>  <Name>  (591) 
nan

>  <Pocket>  (591) 
nan

>  <ATP_Site>  (591) 
nan

>  <Peripheral>  (591) 
nan

>  <Num_H_Atoms_ProtBoundConf>  (591) 
nan

>  <Num_Resolved_Atoms>  (591) 
nan

>  <Num_Not_Resolved_Atoms>  (591) 
nan

$$$$
CHEMBL203673
     RDKit          3D

  0  0  0  0  0  0  0  0  0  0999 V3000
M  V30 BEGIN CTAB
M  V30 COUNTS 46 48 0 0 0
M  V30 BEGIN ATOM
M  V30 1 N 0.583757 -5.506345 0.606969 0
M  V30 2 C -0.417881 -4.467182 0.586823 0 CFG=2
M  V30 3 C 0.165080 -3.101155 0.345460 0
M  V30 4 O 0.845991 -3.002713 -0.879055 0
M  V30 5 C 1.425820 -1.784614 -1.207585 0
M  V30 6 C 2.084474 -1.742603 -2.425520 0
M  V30 7 N 2.649401 -0.556954 -2.746317 0
M  V30 8 C 2.576345 0.512486 -1.934958 0
M  V30 9 C 1.934630 0.511884 -0.722967 0
M  V30 10 C 1.841380 1.655230 0.173097 0
M  V30 11 C 2.356722 2.843250 -0.052463 0
M  V30 12 C 2.286584 4.013332 0.816771 0
M  V30 13 C 2.860871 5.223010 0.493670 0
M  V30 14 C 2.770264 6.302354 1.344395 0
M  V30 15 N 2.129145 6.245532 2.519595 0
M  V30 16 C 1.548822 5.091610 2.889204 0
M  V30 17 C 1.641457 4.012805 2.034987 0
M  V30 18 C 1.351416 -0.686881 -0.375867 0
M  V30 19 C -1.169933 -4.461353 1.899115 0
M  V30 20 C -2.197253 -3.415204 1.911321 0
M  V30 21 C -2.109063 -2.096124 2.325604 0
M  V30 22 C -3.172968 -1.240752 2.270947 0
M  V30 23 C -4.400349 -1.653604 1.795278 0
M  V30 24 C -4.546983 -2.954668 1.369445 0
M  V30 25 C -3.456274 -3.798818 1.435144 0
M  V30 26 H 0.283709 -6.334744 1.136869 0
M  V30 27 H 1.540149 -5.157020 0.826207 0
M  V30 28 H -1.147068 -4.716705 -0.209849 0
M  V30 29 H 0.868284 -2.829270 1.158329 0
M  V30 30 H -0.654265 -2.359502 0.360707 0
M  V30 31 H 2.137646 -2.608459 -3.071113 0
M  V30 32 H 3.057259 1.419453 -2.272486 0
M  V30 33 H 1.310815 1.547566 1.107689 0
M  V30 34 H 2.893889 2.976430 -0.983404 0
M  V30 35 H 3.393284 5.334993 -0.441477 0
M  V30 36 H 3.233590 7.246894 1.063961 0
M  V30 37 H 1.024525 5.026605 3.838606 0
M  V30 38 H 1.154284 3.116207 2.390602 0
M  V30 39 H 0.815336 -0.798877 0.566405 0
M  V30 40 H -1.627776 -5.446935 2.096844 0
M  V30 41 H -0.454805 -4.216315 2.728207 0
M  V30 42 H -1.113215 -1.831621 2.690763 0
M  V30 43 H -3.018367 -0.242996 2.609671 0
M  V30 44 H -5.252433 -0.987722 1.745855 0
M  V30 45 H -5.498976 -3.304842 0.991660 0
M  V30 46 H -3.639023 -4.822135 1.080763 0
M  V30 END ATOM
M  V30 BEGIN BOND
M  V30 1 1 1 2
M  V30 2 1 2 3
M  V30 3 1 3 4
M  V30 4 1 4 5
M  V30 5 2 5 6
M  V30 6 1 6 7
M  V30 7 2 7 8
M  V30 8 1 8 9
M  V30 9 1 9 10
M  V30 10 2 10 11
M  V30 11 1 11 12
M  V30 12 2 12 13
M  V30 13 1 13 14
M  V30 14 2 14 15
M  V30 15 1 15 16
M  V30 16 2 16 17
M  V30 17 2 9 18
M  V30 18 1 2 19
M  V30 19 1 19 20
M  V30 20 2 20 21
M  V30 21 1 21 22
M  V30 22 2 22 23
M  V30 23 1 23 24
M  V30 24 2 24 25
M  V30 25 1 18 5
M  V30 26 1 25 20
M  V30 27 1 17 12
M  V30 28 1 1 26
M  V30 29 1 1 27
M  V30 30 1 2 28 CFG=3
M  V30 31 1 3 29
M  V30 32 1 3 30
M  V30 33 1 6 31
M  V30 34 1 8 32
M  V30 35 1 10 33
M  V30 36 1 11 34
M  V30 37 1 13 35
M  V30 38 1 14 36
M  V30 39 1 16 37
M  V30 40 1 17 38
M  V30 41 1 18 39
M  V30 42 1 19 40
M  V30 43 1 19 41
M  V30 44 1 21 42
M  V30 45 1 22 43
M  V30 46 1 23 44
M  V30 47 1 24 45
M  V30 48 1 25 46
M  V30 END BOND
M  V30 END CTAB
M  END
>  <Dataset>  (592) 
ChEMBL_Kinases

>  <Ligand_Instance>  (592) 
nan

>  <PDB_ID>  (592) 
nan

>  <Standardized_SMILES>  (592) 
N[C@H](COc1cncc(/C=C/c2ccncc2)c1)Cc1ccccc1

>  <Name>  (592) 
nan

>  <Pocket>  (592) 
nan

>  <ATP_Site>  (592) 
nan

>  <Peripheral>  (592) 
nan

>  <Num_H_Atoms_ProtBoundConf>  (592) 
nan

>  <Num_Resolved_Atoms>  (592) 
nan

>  <Num_Not_Resolved_Atoms>  (592) 
nan

$$$$
CHEMBL203721
     RDKit          3D

  0  0  0  0  0  0  0  0  0  0999 V3000
M  V30 BEGIN CTAB
M  V30 COUNTS 34 36 0 0 0
M  V30 BEGIN ATOM
M  V30 1 N 6.365048 -2.686685 0.868788 0
M  V30 2 C 5.478678 -2.641064 0.127198 0
M  V30 3 C 4.371791 -2.561957 -0.786208 0
M  V30 4 C 4.508407 -2.917283 -2.110653 0
M  V30 5 C 3.422630 -2.821316 -2.929823 0
M  V30 6 C 2.183371 -2.373007 -2.456707 0
M  V30 7 C 2.007074 -2.006479 -1.131704 0
M  V30 8 C 0.694046 -1.558937 -0.706887 0
M  V30 9 O -0.236303 -2.084070 -1.403353 0
M  V30 10 C 0.293502 -0.641670 0.346115 0
M  V30 11 C 1.022586 0.122881 1.229342 0
M  V30 12 N 0.126774 0.795068 1.980605 0
M  V30 13 N -1.099271 0.491359 1.614009 0
M  V30 14 C -2.243894 1.058236 2.241069 0
M  V30 15 C -2.658100 0.640539 3.491329 0
M  V30 16 C -3.786669 1.225711 4.066344 0
M  V30 17 C -4.414014 2.201383 3.317333 0
M  V30 18 F -5.519770 2.780339 3.871501 0
M  V30 19 C -4.049632 2.660285 2.067236 0
M  V30 20 C -2.911689 2.039926 1.537251 0
M  V30 21 C -1.031963 -0.409298 0.588641 0
M  V30 22 N -2.240859 -0.888785 0.021848 0
M  V30 23 C 3.139810 -2.127055 -0.360273 0
M  V30 24 H 5.474815 -3.258016 -2.443560 0
M  V30 25 H 3.550970 -3.105857 -3.968280 0
M  V30 26 H 1.399621 -2.344061 -3.215029 0
M  V30 27 H 2.088485 0.172171 1.296763 0
M  V30 28 H -2.134951 -0.122837 4.033439 0
M  V30 29 H -4.158914 0.944572 5.035005 0
M  V30 30 H -4.610639 3.427816 1.569893 0
M  V30 31 H -2.588310 2.365410 0.562210 0
M  V30 32 H -2.605571 -0.391458 -0.834689 0
M  V30 33 H -2.905322 -1.663716 0.256373 0
M  V30 34 H 3.066656 -1.865631 0.683119 0
M  V30 END ATOM
M  V30 BEGIN BOND
M  V30 1 3 1 2
M  V30 2 1 2 3
M  V30 3 2 3 4
M  V30 4 1 4 5
M  V30 5 2 5 6
M  V30 6 1 6 7
M  V30 7 1 7 8
M  V30 8 2 8 9
M  V30 9 1 8 10
M  V30 10 1 10 11
M  V30 11 2 11 12
M  V30 12 1 12 13
M  V30 13 1 13 14
M  V30 14 2 14 15
M  V30 15 1 15 16
M  V30 16 2 16 17
M  V30 17 1 17 18
M  V30 18 1 17 19
M  V30 19 2 19 20
M  V30 20 1 13 21
M  V30 21 1 21 22
M  V30 22 2 7 23
M  V30 23 1 23 3
M  V30 24 2 21 10
M  V30 25 1 20 14
M  V30 26 1 4 24
M  V30 27 1 5 25
M  V30 28 1 6 26
M  V30 29 1 11 27
M  V30 30 1 15 28
M  V30 31 1 16 29
M  V30 32 1 19 30
M  V30 33 1 20 31
M  V30 34 1 22 32
M  V30 35 1 22 33
M  V30 36 1 23 34
M  V30 END BOND
M  V30 END CTAB
M  END
>  <Dataset>  (593) 
ChEMBL_Kinases

>  <Ligand_Instance>  (593) 
nan

>  <PDB_ID>  (593) 
nan

>  <Standardized_SMILES>  (593) 
N#Cc1cccc(C(=O)c2cnn(-c3ccc(F)cc3)c2N)c1

>  <Name>  (593) 
nan

>  <Pocket>  (593) 
nan

>  <ATP_Site>  (593) 
nan

>  <Peripheral>  (593) 
nan

>  <Num_H_Atoms_ProtBoundConf>  (593) 
nan

>  <Num_Resolved_Atoms>  (593) 
nan

>  <Num_Not_Resolved_Atoms>  (593) 
nan

$$$$
CHEMBL2037017
     RDKit          3D

  0  0  0  0  0  0  0  0  0  0999 V3000
M  V30 BEGIN CTAB
M  V30 COUNTS 51 55 0 0 0
M  V30 BEGIN ATOM
M  V30 1 O -0.838728 2.221951 1.694178 0
M  V30 2 C -0.950554 1.057767 1.241474 0
M  V30 3 N -0.589504 0.952227 -0.146651 0
M  V30 4 C -0.205181 2.245890 -0.587107 0
M  V30 5 C -1.288624 2.976082 -1.024300 0
M  V30 6 C -1.082516 4.272083 -1.476791 0
M  V30 7 C 0.239459 4.730351 -1.446946 0
M  V30 8 C 1.272076 3.940059 -0.995480 0
M  V30 9 C 1.075958 2.668789 -0.551333 0
M  V30 10 N 2.212119 1.929661 -0.134342 0
M  V30 11 C 3.530095 2.505901 0.020728 0
M  V30 12 C 3.849846 2.754881 1.487131 0
M  V30 13 N 3.208329 1.672585 2.232205 0
M  V30 14 C 3.304357 0.471715 1.421171 0
M  V30 15 C 2.383460 0.536534 0.206593 0
M  V30 16 C -1.399802 -0.076589 2.034992 0
M  V30 17 C -1.736812 0.119395 3.392308 0
M  V30 18 S -2.237595 -1.618307 3.932618 0
M  V30 19 C -1.875162 -2.231355 2.180302 0
M  V30 20 C -2.113715 -3.720982 1.955871 0
M  V30 21 C -2.554927 -4.548064 2.938535 0
M  V30 22 C -2.724360 -5.888276 2.576660 0
M  V30 23 C -2.438173 -6.278645 1.269243 0
M  V30 24 C -1.989147 -5.393433 0.300627 0
M  V30 25 C -1.819949 -4.056381 0.661046 0
M  V30 26 C -1.785718 -6.142108 -0.968268 0
M  V30 27 C -1.684814 -7.571049 -0.475784 0
M  V30 28 O -2.523832 -7.536478 0.666656 0
M  V30 29 N -1.538719 -1.314334 1.634976 0
M  V30 30 H -0.659232 0.002654 -0.621172 0
M  V30 31 H -2.308392 2.619593 -1.046057 0
M  V30 32 H -1.916138 4.871144 -1.827087 0
M  V30 33 H 0.309913 5.759678 -1.820414 0
M  V30 34 H 2.173647 4.523464 -1.075489 0
M  V30 35 H 3.657174 3.452118 -0.526768 0
M  V30 36 H 4.305880 1.828371 -0.437425 0
M  V30 37 H 3.378925 3.708668 1.775828 0
M  V30 38 H 4.930331 2.781653 1.667117 0
M  V30 39 H 3.812445 1.483784 3.069864 0
M  V30 40 H 4.360616 0.415926 1.090502 0
M  V30 41 H 3.106645 -0.425883 2.038352 0
M  V30 42 H 1.480450 -0.043685 0.346201 0
M  V30 43 H 3.003950 0.108194 -0.636219 0
M  V30 44 H -1.693851 1.151589 3.988373 0
M  V30 45 H -2.752574 -4.179254 3.913457 0
M  V30 46 H -3.074277 -6.587655 3.324684 0
M  V30 47 H -1.475119 -3.396737 -0.097225 0
M  V30 48 H -0.791096 -5.850321 -1.382138 0
M  V30 49 H -2.615190 -5.994170 -1.679244 0
M  V30 50 H -2.043687 -8.302217 -1.228153 0
M  V30 51 H -0.640588 -7.733494 -0.152637 0
M  V30 END ATOM
M  V30 BEGIN BOND
M  V30 1 2 1 2
M  V30 2 1 2 3
M  V30 3 1 3 4
M  V30 4 2 4 5
M  V30 5 1 5 6
M  V30 6 2 6 7
M  V30 7 1 7 8
M  V30 8 2 8 9
M  V30 9 1 9 10
M  V30 10 1 10 11
M  V30 11 1 11 12
M  V30 12 1 12 13
M  V30 13 1 13 14
M  V30 14 1 14 15
M  V30 15 1 2 16
M  V30 16 2 16 17
M  V30 17 1 17 18
M  V30 18 1 18 19
M  V30 19 1 19 20
M  V30 20 2 20 21
M  V30 21 1 21 22
M  V30 22 2 22 23
M  V30 23 1 23 24
M  V30 24 2 24 25
M  V30 25 1 24 26
M  V30 26 1 26 27
M  V30 27 1 27 28
M  V30 28 2 19 29
M  V30 29 1 9 4
M  V30 30 1 15 10
M  V30 31 1 29 16
M  V30 32 1 25 20
M  V30 33 1 28 23
M  V30 34 1 3 30
M  V30 35 1 5 31
M  V30 36 1 6 32
M  V30 37 1 7 33
M  V30 38 1 8 34
M  V30 39 1 11 35
M  V30 40 1 11 36
M  V30 41 1 12 37
M  V30 42 1 12 38
M  V30 43 1 13 39
M  V30 44 1 14 40
M  V30 45 1 14 41
M  V30 46 1 15 42
M  V30 47 1 15 43
M  V30 48 1 17 44
M  V30 49 1 21 45
M  V30 50 1 22 46
M  V30 51 1 25 47
M  V30 52 1 26 48
M  V30 53 1 26 49
M  V30 54 1 27 50
M  V30 55 1 27 51
M  V30 END BOND
M  V30 END CTAB
M  END
>  <Dataset>  (594) 
ChEMBL_Kinases

>  <Ligand_Instance>  (594) 
nan

>  <PDB_ID>  (594) 
nan

>  <Standardized_SMILES>  (594) 
O=C(Nc1ccccc1N1CCNCC1)c1csc(-c2ccc3c(c2)CCO3)n1

>  <Name>  (594) 
nan

>  <Pocket>  (594) 
nan

>  <ATP_Site>  (594) 
nan

>  <Peripheral>  (594) 
nan

>  <Num_H_Atoms_ProtBoundConf>  (594) 
nan

>  <Num_Resolved_Atoms>  (594) 
nan

>  <Num_Not_Resolved_Atoms>  (594) 
nan

$$$$
CHEMBL2037111
     RDKit          3D

  0  0  0  0  0  0  0  0  0  0999 V3000
M  V30 BEGIN CTAB
M  V30 COUNTS 49 53 0 0 0
M  V30 BEGIN ATOM
M  V30 1 O 3.178209 -2.190381 0.968139 0
M  V30 2 C 1.935051 -2.117283 0.832956 0
M  V30 3 N 1.557229 -1.283243 -0.229886 0
M  V30 4 C 2.252323 -0.512496 -1.175712 0
M  V30 5 C 2.525823 -1.220916 -2.331346 0
M  V30 6 C 3.204643 -0.602958 -3.365483 0
M  V30 7 C 3.579522 0.712072 -3.184925 0
M  V30 8 C 3.288930 1.386372 -2.017344 0
M  V30 9 C 2.615687 0.795806 -0.974263 0
M  V30 10 N 2.351114 1.536354 0.199246 0
M  V30 11 C 2.716142 2.900569 0.395191 0
M  V30 12 C 1.442611 3.751994 0.541061 0
M  V30 13 N 0.654368 3.281468 1.663262 0
M  V30 14 C 1.282310 2.162472 2.327431 0
M  V30 15 C 1.678901 1.049215 1.386454 0
M  V30 16 C 0.957259 -2.799777 1.658006 0
M  V30 17 C 1.414132 -3.648140 2.741681 0
M  V30 18 S -0.222283 -4.265158 3.461740 0
M  V30 19 C -1.169722 -3.262865 2.167341 0
M  V30 20 C -2.625930 -3.358064 2.236880 0
M  V30 21 C -3.298188 -4.109362 3.159487 0
M  V30 22 C -4.676255 -4.068233 3.060206 0
M  V30 23 C -5.357252 -3.332773 2.110878 0
M  V30 24 O -6.639558 -3.188207 1.884681 0
M  V30 25 C -6.797857 -2.377282 0.858389 0
M  V30 26 C -5.562346 -1.962459 0.378765 0
M  V30 27 C -4.645041 -2.598688 1.211310 0
M  V30 28 C -3.256328 -2.606951 1.269589 0
M  V30 29 N -0.340831 -2.730781 1.526267 0
M  V30 30 H 0.528201 -1.145776 -0.466039 0
M  V30 31 H 2.248946 -2.248994 -2.508520 0
M  V30 32 H 3.430787 -1.136341 -4.280911 0
M  V30 33 H 4.115042 1.151289 -4.038101 0
M  V30 34 H 3.651073 2.383087 -2.054201 0
M  V30 35 H 3.273056 3.387411 -0.412372 0
M  V30 36 H 3.281589 2.980852 1.360506 0
M  V30 37 H 0.897624 3.687766 -0.411434 0
M  V30 38 H 1.795070 4.791852 0.677957 0
M  V30 39 H 0.644883 4.059748 2.380504 0
M  V30 40 H 2.146614 2.437358 2.941740 0
M  V30 41 H 0.531495 1.732995 3.038087 0
M  V30 42 H 0.761901 0.492949 1.176971 0
M  V30 43 H 2.462715 0.467128 1.936914 0
M  V30 44 H 2.587175 -3.813291 2.990122 0
M  V30 45 H -2.765200 -4.682831 3.899793 0
M  V30 46 H -5.270470 -4.646499 3.767689 0
M  V30 47 H -7.719058 -2.034044 0.394531 0
M  V30 48 H -5.313138 -1.303796 -0.441842 0
M  V30 49 H -2.738071 -2.008620 0.534203 0
M  V30 END ATOM
M  V30 BEGIN BOND
M  V30 1 2 1 2
M  V30 2 1 2 3
M  V30 3 1 3 4
M  V30 4 2 4 5
M  V30 5 1 5 6
M  V30 6 2 6 7
M  V30 7 1 7 8
M  V30 8 2 8 9
M  V30 9 1 9 10
M  V30 10 1 10 11
M  V30 11 1 11 12
M  V30 12 1 12 13
M  V30 13 1 13 14
M  V30 14 1 14 15
M  V30 15 1 2 16
M  V30 16 2 16 17
M  V30 17 1 17 18
M  V30 18 1 18 19
M  V30 19 1 19 20
M  V30 20 2 20 21
M  V30 21 1 21 22
M  V30 22 2 22 23
M  V30 23 1 23 24
M  V30 24 1 24 25
M  V30 25 2 25 26
M  V30 26 1 26 27
M  V30 27 2 27 28
M  V30 28 2 19 29
M  V30 29 1 9 4
M  V30 30 1 15 10
M  V30 31 1 29 16
M  V30 32 1 28 20
M  V30 33 1 27 23
M  V30 34 1 3 30
M  V30 35 1 5 31
M  V30 36 1 6 32
M  V30 37 1 7 33
M  V30 38 1 8 34
M  V30 39 1 11 35
M  V30 40 1 11 36
M  V30 41 1 12 37
M  V30 42 1 12 38
M  V30 43 1 13 39
M  V30 44 1 14 40
M  V30 45 1 14 41
M  V30 46 1 15 42
M  V30 47 1 15 43
M  V30 48 1 17 44
M  V30 49 1 21 45
M  V30 50 1 22 46
M  V30 51 1 25 47
M  V30 52 1 26 48
M  V30 53 1 28 49
M  V30 END BOND
M  V30 END CTAB
M  END
>  <Dataset>  (595) 
ChEMBL_Kinases

>  <Ligand_Instance>  (595) 
nan

>  <PDB_ID>  (595) 
nan

>  <Standardized_SMILES>  (595) 
O=C(Nc1ccccc1N1CCNCC1)c1csc(-c2ccc3occc3c2)n1

>  <Name>  (595) 
nan

>  <Pocket>  (595) 
nan

>  <ATP_Site>  (595) 
nan

>  <Peripheral>  (595) 
nan

>  <Num_H_Atoms_ProtBoundConf>  (595) 
nan

>  <Num_Resolved_Atoms>  (595) 
nan

>  <Num_Not_Resolved_Atoms>  (595) 
nan

$$$$
CHEMBL2037112
     RDKit          3D

  0  0  0  0  0  0  0  0  0  0999 V3000
M  V30 BEGIN CTAB
M  V30 COUNTS 50 54 0 0 0
M  V30 BEGIN ATOM
M  V30 1 O -0.244440 0.787835 -0.908911 0
M  V30 2 C 0.498810 -0.210854 -0.741460 0
M  V30 3 N 1.848914 0.128016 -1.024514 0
M  V30 4 C 2.476761 1.328787 -1.440815 0
M  V30 5 C 2.612997 1.438926 -2.807526 0
M  V30 6 C 3.205136 2.564631 -3.334337 0
M  V30 7 C 3.633842 3.530714 -2.449489 0
M  V30 8 C 3.472347 3.369194 -1.090502 0
M  V30 9 C 2.887166 2.263465 -0.521130 0
M  V30 10 N 2.748280 2.164646 0.886134 0
M  V30 11 C 3.121229 3.222512 1.797190 0
M  V30 12 C 1.969433 3.355130 2.806484 0
M  V30 13 N 2.231057 2.259781 3.759822 0
M  V30 14 C 2.795120 1.124608 3.055367 0
M  V30 15 C 2.235887 1.046242 1.628059 0
M  V30 16 C 0.155865 -1.575133 -0.320958 0
M  V30 17 C 1.105042 -2.603579 -0.175480 0
M  V30 18 S -0.013147 -3.979482 0.357888 0
M  V30 19 C -1.556666 -2.878424 0.276973 0
M  V30 20 C -2.823296 -3.482250 0.621005 0
M  V30 21 C -3.974311 -2.699526 0.571307 0
M  V30 22 C -5.184013 -3.255316 0.893945 0
M  V30 23 C -5.324673 -4.575031 1.272799 0
M  V30 24 N -6.340723 -5.395437 1.639854 0
M  V30 25 C -5.898163 -6.628498 1.912457 0
M  V30 26 C -4.514991 -6.667329 1.727018 0
M  V30 27 C -4.195340 -5.365883 1.327802 0
M  V30 28 C -2.983501 -4.792365 1.000029 0
M  V30 29 N -1.118226 -1.826005 -0.071885 0
M  V30 30 H 2.649943 -0.570200 -0.967867 0
M  V30 31 H 2.278238 0.684590 -3.498065 0
M  V30 32 H 3.321275 2.670340 -4.401729 0
M  V30 33 H 4.093022 4.395484 -2.922292 0
M  V30 34 H 3.867709 4.218077 -0.558764 0
M  V30 35 H 4.023730 2.950486 2.359622 0
M  V30 36 H 3.309676 4.201875 1.315775 0
M  V30 37 H 1.052275 3.096434 2.278522 0
M  V30 38 H 1.992861 4.326700 3.309571 0
M  V30 39 H 3.022084 2.636881 4.360195 0
M  V30 40 H 3.878944 1.059769 3.061872 0
M  V30 41 H 2.403308 0.196099 3.563788 0
M  V30 42 H 2.572346 0.078455 1.254939 0
M  V30 43 H 1.131873 1.091192 1.758328 0
M  V30 44 H 2.118742 -2.491667 -0.349731 0
M  V30 45 H -3.852336 -1.684614 0.278036 0
M  V30 46 H -6.087705 -2.642130 0.855193 0
M  V30 47 H -7.335336 -5.081428 1.695425 0
M  V30 48 H -6.420853 -7.515483 2.227711 0
M  V30 49 H -3.838253 -7.478823 1.851797 0
M  V30 50 H -2.106418 -5.432850 1.049811 0
M  V30 END ATOM
M  V30 BEGIN BOND
M  V30 1 2 1 2
M  V30 2 1 2 3
M  V30 3 1 3 4
M  V30 4 2 4 5
M  V30 5 1 5 6
M  V30 6 2 6 7
M  V30 7 1 7 8
M  V30 8 2 8 9
M  V30 9 1 9 10
M  V30 10 1 10 11
M  V30 11 1 11 12
M  V30 12 1 12 13
M  V30 13 1 13 14
M  V30 14 1 14 15
M  V30 15 1 2 16
M  V30 16 2 16 17
M  V30 17 1 17 18
M  V30 18 1 18 19
M  V30 19 1 19 20
M  V30 20 2 20 21
M  V30 21 1 21 22
M  V30 22 2 22 23
M  V30 23 1 23 24
M  V30 24 1 24 25
M  V30 25 2 25 26
M  V30 26 1 26 27
M  V30 27 2 27 28
M  V30 28 2 19 29
M  V30 29 1 9 4
M  V30 30 1 15 10
M  V30 31 1 29 16
M  V30 32 1 28 20
M  V30 33 1 27 23
M  V30 34 1 3 30
M  V30 35 1 5 31
M  V30 36 1 6 32
M  V30 37 1 7 33
M  V30 38 1 8 34
M  V30 39 1 11 35
M  V30 40 1 11 36
M  V30 41 1 12 37
M  V30 42 1 12 38
M  V30 43 1 13 39
M  V30 44 1 14 40
M  V30 45 1 14 41
M  V30 46 1 15 42
M  V30 47 1 15 43
M  V30 48 1 17 44
M  V30 49 1 21 45
M  V30 50 1 22 46
M  V30 51 1 24 47
M  V30 52 1 25 48
M  V30 53 1 26 49
M  V30 54 1 28 50
M  V30 END BOND
M  V30 END CTAB
M  END
>  <Dataset>  (596) 
ChEMBL_Kinases

>  <Ligand_Instance>  (596) 
nan

>  <PDB_ID>  (596) 
nan

>  <Standardized_SMILES>  (596) 
O=C(Nc1ccccc1N1CCNCC1)c1csc(-c2ccc3[nH]ccc3c2)n1

>  <Name>  (596) 
nan

>  <Pocket>  (596) 
nan

>  <ATP_Site>  (596) 
nan

>  <Peripheral>  (596) 
nan

>  <Num_H_Atoms_ProtBoundConf>  (596) 
nan

>  <Num_Resolved_Atoms>  (596) 
nan

>  <Num_Not_Resolved_Atoms>  (596) 
nan

$$$$
CHEMBL2037113
     RDKit          3D

  0  0  0  0  0  0  0  0  0  0999 V3000
M  V30 BEGIN CTAB
M  V30 COUNTS 49 53 0 0 0
M  V30 BEGIN ATOM
M  V30 1 O 2.994772 -2.741524 1.102518 0
M  V30 2 C 1.810137 -2.430947 0.904388 0
M  V30 3 N 1.590379 -1.527367 -0.169207 0
M  V30 4 C 2.270578 -0.797591 -1.168386 0
M  V30 5 C 2.396946 -1.520519 -2.352571 0
M  V30 6 C 3.036393 -0.944603 -3.429344 0
M  V30 7 C 3.530716 0.337087 -3.290374 0
M  V30 8 C 3.384941 1.018675 -2.100943 0
M  V30 9 C 2.753788 0.476893 -1.007197 0
M  V30 10 N 2.638628 1.218186 0.184571 0
M  V30 11 C 3.101759 2.566447 0.354522 0
M  V30 12 C 1.871660 3.437341 0.663510 0
M  V30 13 N 1.304940 3.064554 1.944480 0
M  V30 14 C 1.930990 1.862597 2.457889 0
M  V30 15 C 2.052666 0.767267 1.429076 0
M  V30 16 C 0.695064 -2.936394 1.695939 0
M  V30 17 C 1.054029 -3.785187 2.689383 0
M  V30 18 S -0.655950 -4.172186 3.424777 0
M  V30 19 C -1.462406 -3.085965 2.205708 0
M  V30 20 C -2.958969 -2.930594 2.240504 0
M  V30 21 C -3.639225 -3.615535 3.191524 0
M  V30 22 C -5.006851 -3.468040 3.216629 0
M  V30 23 C -5.525869 -2.612915 2.237140 0
M  V30 24 S -7.300406 -2.125572 1.903146 0
M  V30 25 C -6.915538 -1.030732 0.489696 0
M  V30 26 C -5.521896 -1.120680 0.389497 0
M  V30 27 C -4.811662 -1.903221 1.250275 0
M  V30 28 C -3.450673 -2.096139 1.282334 0
M  V30 29 N -0.582965 -2.652469 1.538092 0
M  V30 30 H 0.579692 -1.257824 -0.368878 0
M  V30 31 H 2.026039 -2.521968 -2.503141 0
M  V30 32 H 3.144888 -1.489572 -4.358792 0
M  V30 33 H 4.025559 0.735739 -4.177457 0
M  V30 34 H 3.821703 1.991909 -2.160258 0
M  V30 35 H 3.784722 2.596635 1.232683 0
M  V30 36 H 3.553740 3.042157 -0.519981 0
M  V30 37 H 1.117754 3.311251 -0.115846 0
M  V30 38 H 2.240078 4.481092 0.683271 0
M  V30 39 H 0.284090 2.907991 1.933466 0
M  V30 40 H 2.891873 2.014308 2.949083 0
M  V30 41 H 1.243956 1.440376 3.247408 0
M  V30 42 H 1.052246 0.315623 1.304979 0
M  V30 43 H 2.815964 0.061882 1.859485 0
M  V30 44 H 1.949789 -4.212626 3.082042 0
M  V30 45 H -3.231146 -4.264544 3.932839 0
M  V30 46 H -5.730706 -3.901826 3.863242 0
M  V30 47 H -7.646916 -0.480311 -0.080803 0
M  V30 48 H -5.120102 -0.523747 -0.410329 0
M  V30 49 H -2.796296 -1.604863 0.575009 0
M  V30 END ATOM
M  V30 BEGIN BOND
M  V30 1 2 1 2
M  V30 2 1 2 3
M  V30 3 1 3 4
M  V30 4 2 4 5
M  V30 5 1 5 6
M  V30 6 2 6 7
M  V30 7 1 7 8
M  V30 8 2 8 9
M  V30 9 1 9 10
M  V30 10 1 10 11
M  V30 11 1 11 12
M  V30 12 1 12 13
M  V30 13 1 13 14
M  V30 14 1 14 15
M  V30 15 1 2 16
M  V30 16 2 16 17
M  V30 17 1 17 18
M  V30 18 1 18 19
M  V30 19 1 19 20
M  V30 20 2 20 21
M  V30 21 1 21 22
M  V30 22 2 22 23
M  V30 23 1 23 24
M  V30 24 1 24 25
M  V30 25 2 25 26
M  V30 26 1 26 27
M  V30 27 2 27 28
M  V30 28 2 19 29
M  V30 29 1 9 4
M  V30 30 1 15 10
M  V30 31 1 29 16
M  V30 32 1 28 20
M  V30 33 1 27 23
M  V30 34 1 3 30
M  V30 35 1 5 31
M  V30 36 1 6 32
M  V30 37 1 7 33
M  V30 38 1 8 34
M  V30 39 1 11 35
M  V30 40 1 11 36
M  V30 41 1 12 37
M  V30 42 1 12 38
M  V30 43 1 13 39
M  V30 44 1 14 40
M  V30 45 1 14 41
M  V30 46 1 15 42
M  V30 47 1 15 43
M  V30 48 1 17 44
M  V30 49 1 21 45
M  V30 50 1 22 46
M  V30 51 1 25 47
M  V30 52 1 26 48
M  V30 53 1 28 49
M  V30 END BOND
M  V30 END CTAB
M  END
>  <Dataset>  (597) 
ChEMBL_Kinases

>  <Ligand_Instance>  (597) 
nan

>  <PDB_ID>  (597) 
nan

>  <Standardized_SMILES>  (597) 
O=C(Nc1ccccc1N1CCNCC1)c1csc(-c2ccc3sccc3c2)n1

>  <Name>  (597) 
nan

>  <Pocket>  (597) 
nan

>  <ATP_Site>  (597) 
nan

>  <Peripheral>  (597) 
nan

>  <Num_H_Atoms_ProtBoundConf>  (597) 
nan

>  <Num_Resolved_Atoms>  (597) 
nan

>  <Num_Not_Resolved_Atoms>  (597) 
nan

$$$$
CHEMBL2037114
     RDKit          3D

  0  0  0  0  0  0  0  0  0  0999 V3000
M  V30 BEGIN CTAB
M  V30 COUNTS 49 53 0 0 0
M  V30 BEGIN ATOM
M  V30 1 O 3.575591 -1.762982 1.589249 0
M  V30 2 C 2.359158 -1.820763 1.301108 0
M  V30 3 N 1.970705 -1.229253 0.074826 0
M  V30 4 C 2.640046 -0.552964 -0.964443 0
M  V30 5 C 3.079907 -1.402170 -1.959175 0
M  V30 6 C 3.749899 -0.875346 -3.044978 0
M  V30 7 C 3.947744 0.472908 -3.084217 0
M  V30 8 C 3.493108 1.287746 -2.070666 0
M  V30 9 C 2.821609 0.806042 -0.971463 0
M  V30 10 N 2.389823 1.698485 0.030642 0
M  V30 11 C 2.564013 3.121536 -0.008715 0
M  V30 12 C 1.172226 3.773164 -0.077140 0
M  V30 13 N 0.394065 3.412780 1.089176 0
M  V30 14 C 1.139856 2.544105 1.979455 0
M  V30 15 C 1.710626 1.358632 1.261145 0
M  V30 16 C 1.336185 -2.439859 2.121372 0
M  V30 17 C 1.772025 -3.050907 3.423335 0
M  V30 18 S 0.101398 -3.686982 4.057810 0
M  V30 19 C -0.741469 -3.091364 2.646493 0
M  V30 20 C -2.216988 -3.260513 2.465068 0
M  V30 21 C -2.965718 -2.853686 1.447018 0
M  V30 22 C -4.308952 -3.105207 1.464367 0
M  V30 23 C -5.283844 -2.781944 0.527442 0
M  V30 24 C -6.589660 -3.141876 0.761776 0
M  V30 25 C -7.045958 -3.813472 1.868769 0
M  V30 26 C -6.127548 -4.161631 2.833424 0
M  V30 27 C -4.814629 -3.784217 2.568674 0
M  V30 28 S -3.251796 -4.040821 3.580399 0
M  V30 29 N 0.041296 -2.537890 1.866884 0
M  V30 30 H 0.960057 -1.254509 -0.242502 0
M  V30 31 H 2.937279 -2.473436 -1.954282 0
M  V30 32 H 4.102941 -1.531113 -3.836868 0
M  V30 33 H 4.484327 0.832125 -3.969329 0
M  V30 34 H 3.738645 2.319987 -2.269630 0
M  V30 35 H 3.094564 3.528679 -0.868783 0
M  V30 36 H 3.073929 3.469310 0.938448 0
M  V30 37 H 1.250216 4.855763 -0.173740 0
M  V30 38 H 0.677647 3.338990 -0.969540 0
M  V30 39 H 0.082910 4.236037 1.655249 0
M  V30 40 H 1.930460 3.043416 2.543186 0
M  V30 41 H 0.352841 2.146131 2.691663 0
M  V30 42 H 0.877948 0.636205 1.125199 0
M  V30 43 H 2.520881 0.961904 1.936424 0
M  V30 44 H 2.883030 -3.047224 3.797832 0
M  V30 45 H -2.489949 -2.326644 0.618164 0
M  V30 46 H -5.067924 -2.254600 -0.390398 0
M  V30 47 H -7.348836 -2.876329 0.005744 0
M  V30 48 H -8.060007 -4.109082 2.081654 0
M  V30 49 H -6.320777 -4.684613 3.749474 0
M  V30 END ATOM
M  V30 BEGIN BOND
M  V30 1 2 1 2
M  V30 2 1 2 3
M  V30 3 1 3 4
M  V30 4 2 4 5
M  V30 5 1 5 6
M  V30 6 2 6 7
M  V30 7 1 7 8
M  V30 8 2 8 9
M  V30 9 1 9 10
M  V30 10 1 10 11
M  V30 11 1 11 12
M  V30 12 1 12 13
M  V30 13 1 13 14
M  V30 14 1 14 15
M  V30 15 1 2 16
M  V30 16 2 16 17
M  V30 17 1 17 18
M  V30 18 1 18 19
M  V30 19 1 19 20
M  V30 20 2 20 21
M  V30 21 1 21 22
M  V30 22 2 22 23
M  V30 23 1 23 24
M  V30 24 2 24 25
M  V30 25 1 25 26
M  V30 26 2 26 27
M  V30 27 1 27 28
M  V30 28 2 19 29
M  V30 29 1 9 4
M  V30 30 1 15 10
M  V30 31 1 29 16
M  V30 32 1 28 20
M  V30 33 1 27 22
M  V30 34 1 3 30
M  V30 35 1 5 31
M  V30 36 1 6 32
M  V30 37 1 7 33
M  V30 38 1 8 34
M  V30 39 1 11 35
M  V30 40 1 11 36
M  V30 41 1 12 37
M  V30 42 1 12 38
M  V30 43 1 13 39
M  V30 44 1 14 40
M  V30 45 1 14 41
M  V30 46 1 15 42
M  V30 47 1 15 43
M  V30 48 1 17 44
M  V30 49 1 21 45
M  V30 50 1 23 46
M  V30 51 1 24 47
M  V30 52 1 25 48
M  V30 53 1 26 49
M  V30 END BOND
M  V30 END CTAB
M  END
>  <Dataset>  (598) 
ChEMBL_Kinases

>  <Ligand_Instance>  (598) 
nan

>  <PDB_ID>  (598) 
nan

>  <Standardized_SMILES>  (598) 
O=C(Nc1ccccc1N1CCNCC1)c1csc(-c2cc3ccccc3s2)n1

>  <Name>  (598) 
nan

>  <Pocket>  (598) 
nan

>  <ATP_Site>  (598) 
nan

>  <Peripheral>  (598) 
nan

>  <Num_H_Atoms_ProtBoundConf>  (598) 
nan

>  <Num_Resolved_Atoms>  (598) 
nan

>  <Num_Not_Resolved_Atoms>  (598) 
nan

$$$$
CHEMBL2037133
     RDKit          3D

  0  0  0  0  0  0  0  0  0  0999 V3000
M  V30 BEGIN CTAB
M  V30 COUNTS 38 41 0 0 0
M  V30 BEGIN ATOM
M  V30 1 O -1.009586 -2.451685 -4.582662 0
M  V30 2 C -0.172085 -2.631879 -3.674913 0
M  V30 3 N 0.834202 -3.624604 -3.536148 0
M  V30 4 C 1.523926 -3.390353 -2.321034 0
M  V30 5 C 2.578230 -4.091017 -1.783846 0
M  V30 6 C 3.142994 -3.712833 -0.587819 0
M  V30 7 C 2.618957 -2.595251 0.072929 0
M  V30 8 C 1.563712 -1.921057 -0.496006 0
M  V30 9 C 1.004087 -2.291830 -1.674128 0
M  V30 10 C -0.071366 -1.782017 -2.496366 0
M  V30 11 C -0.743583 -0.708453 -2.158875 0
M  V30 12 C -0.682705 0.161701 -0.998036 0
M  V30 13 C -0.502952 1.524283 -1.330529 0
M  V30 14 C -0.457062 2.306374 -0.179219 0
M  V30 15 C -0.611996 1.379895 0.820047 0
M  V30 16 C -0.642810 1.630523 2.266197 0
M  V30 17 C -0.504786 2.914383 2.735118 0
M  V30 18 C -0.530774 3.169842 4.101030 0
M  V30 19 C -0.696764 2.131991 5.019072 0
M  V30 20 C -0.833268 0.845033 4.509350 0
M  V30 21 C -1.013562 -0.336668 5.375900 0
M  V30 22 O -1.141978 -1.531430 4.937921 0
M  V30 23 O -1.054111 -0.199707 6.774034 0
M  V30 24 C -0.810712 0.560713 3.143853 0
M  V30 25 O -0.728014 0.235170 0.276736 0
M  V30 26 H 0.947844 -4.358363 -4.281063 0
M  V30 27 H 2.977812 -4.946954 -2.292598 0
M  V30 28 H 3.962370 -4.287016 -0.206331 0
M  V30 29 H 3.143133 -2.383483 1.014315 0
M  V30 30 H 1.318017 -1.116033 0.122446 0
M  V30 31 H -1.497316 -0.451898 -2.923663 0
M  V30 32 H -0.397303 2.056521 -2.281210 0
M  V30 33 H -0.332952 3.362104 -0.066744 0
M  V30 34 H -0.371841 3.760322 2.063290 0
M  V30 35 H -0.427509 4.149867 4.527108 0
M  V30 36 H -0.727026 2.255155 6.096000 0
M  V30 37 H -1.262724 -1.018827 7.354269 0
M  V30 38 H -0.915782 -0.433650 2.743754 0
M  V30 END ATOM
M  V30 BEGIN BOND
M  V30 1 2 1 2
M  V30 2 1 2 3
M  V30 3 1 3 4
M  V30 4 2 4 5
M  V30 5 1 5 6
M  V30 6 2 6 7
M  V30 7 1 7 8
M  V30 8 2 8 9
M  V30 9 1 9 10
M  V30 10 2 10 11
M  V30 11 1 11 12
M  V30 12 2 12 13
M  V30 13 1 13 14
M  V30 14 2 14 15
M  V30 15 1 15 16
M  V30 16 2 16 17
M  V30 17 1 17 18
M  V30 18 2 18 19
M  V30 19 1 19 20
M  V30 20 1 20 21
M  V30 21 2 21 22
M  V30 22 1 21 23
M  V30 23 2 20 24
M  V30 24 1 15 25
M  V30 25 1 10 2
M  V30 26 1 25 12
M  V30 27 1 9 4
M  V30 28 1 24 16
M  V30 29 1 3 26
M  V30 30 1 5 27
M  V30 31 1 6 28
M  V30 32 1 7 29
M  V30 33 1 8 30
M  V30 34 1 11 31
M  V30 35 1 13 32
M  V30 36 1 14 33
M  V30 37 1 17 34
M  V30 38 1 18 35
M  V30 39 1 19 36
M  V30 40 1 23 37
M  V30 41 1 24 38
M  V30 END BOND
M  V30 END CTAB
M  END
>  <Dataset>  (599) 
ChEMBL_Kinases

>  <Ligand_Instance>  (599) 
nan

>  <PDB_ID>  (599) 
nan

>  <Standardized_SMILES>  (599) 
O=C1Nc2ccccc2/C1=C\c1ccc(-c2cccc(C(=O)O)c2)o1

>  <Name>  (599) 
nan

>  <Pocket>  (599) 
nan

>  <ATP_Site>  (599) 
nan

>  <Peripheral>  (599) 
nan

>  <Num_H_Atoms_ProtBoundConf>  (599) 
nan

>  <Num_Resolved_Atoms>  (599) 
nan

>  <Num_Not_Resolved_Atoms>  (599) 
nan

$$$$
CHEMBL2037135
     RDKit          3D

  0  0  0  0  0  0  0  0  0  0999 V3000
M  V30 BEGIN CTAB
M  V30 COUNTS 57 61 0 0 0
M  V30 BEGIN ATOM
M  V30 1 O 0.625254 4.785628 6.148450 0
M  V30 2 C 1.539244 3.925575 5.989615 0
M  V30 3 N 2.518836 3.347990 6.832902 0
M  V30 4 C 3.261700 2.425549 6.051013 0
M  V30 5 C 4.301338 1.626883 6.464778 0
M  V30 6 C 4.904778 0.766987 5.578591 0
M  V30 7 C 4.442779 0.724025 4.266496 0
M  V30 8 C 3.400278 1.534106 3.876261 0
M  V30 9 C 2.810102 2.381328 4.752625 0
M  V30 10 C 1.720106 3.321328 4.680248 0
M  V30 11 C 1.043541 3.488283 3.573328 0
M  V30 12 C 1.175508 2.929785 2.245010 0
M  V30 13 C 2.250671 3.388359 1.465651 0
M  V30 14 C 2.177706 2.730129 0.260003 0
M  V30 15 C 1.078924 1.910153 0.351452 0
M  V30 16 C 0.605795 1.005422 -0.718465 0
M  V30 17 C 1.291989 0.961040 -1.920051 0
M  V30 18 C 0.840609 0.117724 -2.911073 0
M  V30 19 C -0.277934 -0.650376 -2.668262 0
M  V30 20 C -0.987377 -0.634106 -1.485881 0
M  V30 21 C -2.173646 -1.438858 -1.214490 0
M  V30 22 O -2.741355 -1.385509 -0.069369 0
M  V30 23 N -2.782513 -2.318542 -2.155682 0
M  V30 24 C -3.918355 -2.950041 -1.566123 0
M  V30 25 C -4.672086 -3.902441 -2.421413 0
M  V30 26 N -4.016361 -5.020090 -2.932998 0
M  V30 27 C -3.574071 -6.049838 -2.079076 0
M  V30 28 C -2.221885 -6.520087 -2.578956 0
M  V30 29 C -1.952102 -5.719442 -3.835796 0
M  V30 30 C -3.234944 -4.951036 -4.096291 0
M  V30 31 C -0.525518 0.217125 -0.495566 0
M  V30 32 O 0.519358 2.060072 1.537438 0
M  V30 33 H 2.582101 3.634252 7.832993 0
M  V30 34 H 4.659359 1.658617 7.475773 0
M  V30 35 H 5.711686 0.158811 5.934766 0
M  V30 36 H 5.000784 -0.000328 3.651883 0
M  V30 37 H 3.182585 1.345987 2.868663 0
M  V30 38 H 0.196329 4.162019 3.549796 0
M  V30 39 H 3.048386 4.114725 1.662508 0
M  V30 40 H 2.831454 2.818604 -0.595732 0
M  V30 41 H 2.177459 1.563531 -2.123086 0
M  V30 42 H 1.350976 0.048690 -3.878697 0
M  V30 43 H -0.597518 -1.287777 -3.453377 0
M  V30 44 H -2.286620 -2.325653 -3.071656 0
M  V30 45 H -4.639620 -2.124721 -1.301260 0
M  V30 46 H -3.682735 -3.421679 -0.586259 0
M  V30 47 H -5.523267 -4.278344 -1.772527 0
M  V30 48 H -5.208189 -3.388795 -3.254057 0
M  V30 49 H -3.566058 -5.820252 -0.995533 0
M  V30 50 H -4.269854 -6.930573 -2.209662 0
M  V30 51 H -2.201034 -7.608655 -2.787402 0
M  V30 52 H -1.478866 -6.328142 -1.775004 0
M  V30 53 H -1.155125 -4.982024 -3.725804 0
M  V30 54 H -1.675931 -6.387008 -4.677630 0
M  V30 55 H -3.070395 -3.986357 -4.570130 0
M  V30 56 H -3.764071 -5.569797 -4.886296 0
M  V30 57 H -0.990191 0.313993 0.454452 0
M  V30 END ATOM
M  V30 BEGIN BOND
M  V30 1 2 1 2
M  V30 2 1 2 3
M  V30 3 1 3 4
M  V30 4 2 4 5
M  V30 5 1 5 6
M  V30 6 2 6 7
M  V30 7 1 7 8
M  V30 8 2 8 9
M  V30 9 1 9 10
M  V30 10 2 10 11
M  V30 11 1 11 12
M  V30 12 2 12 13
M  V30 13 1 13 14
M  V30 14 2 14 15
M  V30 15 1 15 16
M  V30 16 2 16 17
M  V30 17 1 17 18
M  V30 18 2 18 19
M  V30 19 1 19 20
M  V30 20 1 20 21
M  V30 21 2 21 22
M  V30 22 1 21 23
M  V30 23 1 23 24
M  V30 24 1 24 25
M  V30 25 1 25 26
M  V30 26 1 26 27
M  V30 27 1 27 28
M  V30 28 1 28 29
M  V30 29 1 29 30
M  V30 30 2 20 31
M  V30 31 1 15 32
M  V30 32 1 10 2
M  V30 33 1 32 12
M  V30 34 1 9 4
M  V30 35 1 31 16
M  V30 36 1 30 26
M  V30 37 1 3 33
M  V30 38 1 5 34
M  V30 39 1 6 35
M  V30 40 1 7 36
M  V30 41 1 8 37
M  V30 42 1 11 38
M  V30 43 1 13 39
M  V30 44 1 14 40
M  V30 45 1 17 41
M  V30 46 1 18 42
M  V30 47 1 19 43
M  V30 48 1 23 44
M  V30 49 1 24 45
M  V30 50 1 24 46
M  V30 51 1 25 47
M  V30 52 1 25 48
M  V30 53 1 27 49
M  V30 54 1 27 50
M  V30 55 1 28 51
M  V30 56 1 28 52
M  V30 57 1 29 53
M  V30 58 1 29 54
M  V30 59 1 30 55
M  V30 60 1 30 56
M  V30 61 1 31 57
M  V30 END BOND
M  V30 END CTAB
M  END
>  <Dataset>  (600) 
ChEMBL_Kinases

>  <Ligand_Instance>  (600) 
nan

>  <PDB_ID>  (600) 
nan

>  <Standardized_SMILES>  (600) 
O=C1Nc2ccccc2/C1=C\c1ccc(-c2cccc(C(=O)NCCN3CCCC3)c2)o1

>  <Name>  (600) 
nan

>  <Pocket>  (600) 
nan

>  <ATP_Site>  (600) 
nan

>  <Peripheral>  (600) 
nan

>  <Num_H_Atoms_ProtBoundConf>  (600) 
nan

>  <Num_Resolved_Atoms>  (600) 
nan

>  <Num_Not_Resolved_Atoms>  (600) 
nan

$$$$
CHEMBL2037208
     RDKit          3D

  0  0  0  0  0  0  0  0  0  0999 V3000
M  V30 BEGIN CTAB
M  V30 COUNTS 55 59 0 0 0
M  V30 BEGIN ATOM
M  V30 1 O -1.993083 -4.310861 -0.060371 0
M  V30 2 C -0.919764 -3.744724 -0.365964 0
M  V30 3 N -0.162646 -2.938226 0.524149 0
M  V30 4 C 0.986900 -2.477422 -0.190643 0
M  V30 5 C 2.065333 -1.660287 0.173794 0
M  V30 6 C 3.095473 -1.339587 -0.722101 0
M  V30 7 N 4.141179 -0.483484 -0.263283 0
M  V30 8 C 4.002916 0.482216 0.772310 0
M  V30 9 C 5.017248 0.902468 1.608248 0
M  V30 10 C 4.793149 1.860134 2.579961 0
M  V30 11 C 3.572535 2.444331 2.774478 0
M  V30 12 C 2.503722 2.067400 1.965110 0
M  V30 13 N 1.151924 2.571583 2.021122 0
M  V30 14 C 0.064501 2.069535 2.784382 0
M  V30 15 O 0.266545 1.067833 3.510653 0
M  V30 16 C -1.223485 2.731832 2.691762 0
M  V30 17 C -1.529316 3.817295 1.929390 0
M  V30 18 C -2.780743 4.391058 1.890489 0
M  V30 19 C -3.778676 3.844564 2.659030 0
M  V30 20 C -3.550878 2.735871 3.465351 0
M  V30 21 C -4.580318 2.091245 4.320834 0
M  V30 22 F -5.765081 2.774763 4.183430 0
M  V30 23 F -4.688981 0.771372 3.914211 0
M  V30 24 F -4.151436 2.121648 5.643392 0
M  V30 25 C -2.261030 2.205499 3.456033 0
M  V30 26 C 2.773172 1.108741 1.007616 0
M  V30 27 C 3.063285 -1.836153 -2.004933 0
M  V30 28 C 1.993662 -2.652714 -2.383633 0
M  V30 29 C 0.989171 -2.955778 -1.487763 0
M  V30 30 C -0.213262 -3.766556 -1.632528 0
M  V30 31 C -0.669593 -4.423221 -2.685124 0
M  V30 32 C -1.880190 -5.210925 -2.830346 0
M  V30 33 C -3.229465 -5.146370 -2.567486 0
M  V30 34 C -3.867300 -6.304472 -2.937301 0
M  V30 35 C -2.890351 -7.123632 -3.449868 0
M  V30 36 N -1.726599 -6.456112 -3.376418 0
M  V30 37 H -0.408001 -2.731328 1.504983 0
M  V30 38 H 2.011966 -1.328021 1.216410 0
M  V30 39 H 5.116804 -0.514795 -0.678223 0
M  V30 40 H 5.997154 0.445900 1.467028 0
M  V30 41 H 5.615544 2.180476 3.236426 0
M  V30 42 H 3.327713 3.194237 3.512601 0
M  V30 43 H 1.117951 3.393643 1.381230 0
M  V30 44 H -0.735628 4.236904 1.327797 0
M  V30 45 H -2.996447 5.257550 1.273756 0
M  V30 46 H -4.788050 4.268866 2.658294 0
M  V30 47 H -2.077381 1.331982 4.090021 0
M  V30 48 H 1.943925 0.810500 0.345087 0
M  V30 49 H 3.844591 -1.601523 -2.708985 0
M  V30 50 H 1.939183 -3.066705 -3.401969 0
M  V30 51 H 0.011109 -4.320553 -3.552044 0
M  V30 52 H -3.636115 -4.246434 -2.135876 0
M  V30 53 H -4.945580 -6.399168 -2.785125 0
M  V30 54 H -3.137099 -8.107455 -3.818141 0
M  V30 55 H -0.875073 -6.973872 -3.744005 0
M  V30 END ATOM
M  V30 BEGIN BOND
M  V30 1 2 1 2
M  V30 2 1 2 3
M  V30 3 1 3 4
M  V30 4 2 4 5
M  V30 5 1 5 6
M  V30 6 1 6 7
M  V30 7 1 7 8
M  V30 8 2 8 9
M  V30 9 1 9 10
M  V30 10 2 10 11
M  V30 11 1 11 12
M  V30 12 1 12 13
M  V30 13 1 13 14
M  V30 14 2 14 15
M  V30 15 1 14 16
M  V30 16 2 16 17
M  V30 17 1 17 18
M  V30 18 2 18 19
M  V30 19 1 19 20
M  V30 20 1 20 21
M  V30 21 1 21 22
M  V30 22 1 21 23
M  V30 23 1 21 24
M  V30 24 2 20 25
M  V30 25 2 12 26
M  V30 26 2 6 27
M  V30 27 1 27 28
M  V30 28 2 28 29
M  V30 29 1 29 30
M  V30 30 2 30 31
M  V30 31 1 31 32
M  V30 32 2 32 33
M  V30 33 1 33 34
M  V30 34 2 34 35
M  V30 35 1 35 36
M  V30 36 1 30 2
M  V30 37 1 36 32
M  V30 38 1 29 4
M  V30 39 1 26 8
M  V30 40 1 25 16
M  V30 41 1 3 37
M  V30 42 1 5 38
M  V30 43 1 7 39
M  V30 44 1 9 40
M  V30 45 1 10 41
M  V30 46 1 11 42
M  V30 47 1 13 43
M  V30 48 1 17 44
M  V30 49 1 18 45
M  V30 50 1 19 46
M  V30 51 1 25 47
M  V30 52 1 26 48
M  V30 53 1 27 49
M  V30 54 1 28 50
M  V30 55 1 31 51
M  V30 56 1 33 52
M  V30 57 1 34 53
M  V30 58 1 35 54
M  V30 59 1 36 55
M  V30 END BOND
M  V30 END CTAB
M  END
>  <Dataset>  (601) 
ChEMBL_Kinases

>  <Ligand_Instance>  (601) 
nan

>  <PDB_ID>  (601) 
nan

>  <Standardized_SMILES>  (601) 
O=C1Nc2cc(Nc3cccc(NC(=O)c4cccc(C(F)(F)F)c4)c3)ccc2/C1=C/c1ccc[nH]1

>  <Name>  (601) 
nan

>  <Pocket>  (601) 
nan

>  <ATP_Site>  (601) 
nan

>  <Peripheral>  (601) 
nan

>  <Num_H_Atoms_ProtBoundConf>  (601) 
nan

>  <Num_Resolved_Atoms>  (601) 
nan

>  <Num_Not_Resolved_Atoms>  (601) 
nan

$$$$
CHEMBL203685
     RDKit          3D

  0  0  0  0  0  0  0  0  0  0999 V3000
M  V30 BEGIN CTAB
M  V30 COUNTS 47 49 0 0 0
M  V30 BEGIN ATOM
M  V30 1 N 2.117704 -4.595096 1.392168 0
M  V30 2 C 0.739111 -4.487777 0.958181 0 CFG=2
M  V30 3 C 0.553105 -3.319774 0.012327 0
M  V30 4 O 0.907372 -2.093355 0.635781 0
M  V30 5 C 0.812968 -0.875987 -0.057604 0
M  V30 6 C 0.375231 -0.861761 -1.349840 0
M  V30 7 N 0.313114 0.332790 -1.940458 0
M  V30 8 C 0.660131 1.442758 -1.298905 0
M  V30 9 C 1.108594 1.496565 0.001611 0
M  V30 10 C 1.486980 2.723132 0.695439 0
M  V30 11 C 1.453662 3.921818 0.187695 0
M  V30 12 C 1.832482 5.144201 0.884335 0
M  V30 13 C 2.279739 5.184694 2.187483 0
M  V30 14 C 2.636397 6.349318 2.838203 0
M  V30 15 N 2.553531 7.526044 2.190527 0
M  V30 16 C 2.121812 7.537198 0.915461 0
M  V30 17 C 1.765132 6.374445 0.264028 0
M  V30 18 C 1.176509 0.267210 0.621135 0
M  V30 19 C -0.212570 -4.411367 2.126858 0
M  V30 20 C -1.629174 -4.300637 1.669267 0
M  V30 21 C -2.239251 -3.080470 1.441424 0
M  V30 22 C -3.559406 -3.000842 1.015443 0
M  V30 23 C -4.262614 -4.166125 0.820171 0
M  V30 24 C -3.689010 -5.406587 1.036825 0
M  V30 25 O -4.338160 -6.612110 0.859924 0
M  V30 26 C -2.376021 -5.444808 1.459420 0
M  V30 27 H 2.781687 -4.124151 0.736473 0
M  V30 28 H 2.240329 -4.099949 2.325164 0
M  V30 29 H 0.501777 -5.409685 0.391230 0
M  V30 30 H -0.471224 -3.241407 -0.345567 0
M  V30 31 H 1.216178 -3.414244 -0.870717 0
M  V30 32 H 0.106252 -1.789238 -1.824252 0
M  V30 33 H 0.573477 2.355453 -1.865590 0
M  V30 34 H 1.823604 2.628152 1.717961 0
M  V30 35 H 1.117519 4.012602 -0.832036 0
M  V30 36 H 2.366076 4.287910 2.749379 0
M  V30 37 H 2.983177 6.336767 3.863527 0
M  V30 38 H 2.064802 8.498423 0.417992 0
M  V30 39 H 1.429211 6.449595 -0.751057 0
M  V30 40 H 1.524830 0.224363 1.660095 0
M  V30 41 H 0.078700 -3.566316 2.783436 0
M  V30 42 H -0.178572 -5.327858 2.748894 0
M  V30 43 H -1.665996 -2.178461 1.601895 0
M  V30 44 H -3.990387 -2.033870 0.851776 0
M  V30 45 H -5.291950 -4.137217 0.488871 0
M  V30 46 H -5.331108 -6.657246 1.062060 0
M  V30 47 H -1.875664 -6.401370 1.645160 0
M  V30 END ATOM
M  V30 BEGIN BOND
M  V30 1 1 1 2
M  V30 2 1 2 3
M  V30 3 1 3 4
M  V30 4 1 4 5
M  V30 5 2 5 6
M  V30 6 1 6 7
M  V30 7 2 7 8
M  V30 8 1 8 9
M  V30 9 1 9 10
M  V30 10 2 10 11
M  V30 11 1 11 12
M  V30 12 2 12 13
M  V30 13 1 13 14
M  V30 14 2 14 15
M  V30 15 1 15 16
M  V30 16 2 16 17
M  V30 17 2 9 18
M  V30 18 1 2 19
M  V30 19 1 19 20
M  V30 20 2 20 21
M  V30 21 1 21 22
M  V30 22 2 22 23
M  V30 23 1 23 24
M  V30 24 1 24 25
M  V30 25 2 24 26
M  V30 26 1 18 5
M  V30 27 1 26 20
M  V30 28 1 17 12
M  V30 29 1 1 27
M  V30 30 1 1 28
M  V30 31 1 2 29 CFG=3
M  V30 32 1 3 30
M  V30 33 1 3 31
M  V30 34 1 6 32
M  V30 35 1 8 33
M  V30 36 1 10 34
M  V30 37 1 11 35
M  V30 38 1 13 36
M  V30 39 1 14 37
M  V30 40 1 16 38
M  V30 41 1 17 39
M  V30 42 1 18 40
M  V30 43 1 19 41
M  V30 44 1 19 42
M  V30 45 1 21 43
M  V30 46 1 22 44
M  V30 47 1 23 45
M  V30 48 1 25 46
M  V30 49 1 26 47
M  V30 END BOND
M  V30 END CTAB
M  END
>  <Dataset>  (602) 
ChEMBL_Kinases

>  <Ligand_Instance>  (602) 
nan

>  <PDB_ID>  (602) 
nan

>  <Standardized_SMILES>  (602) 
N[C@H](COc1cncc(/C=C/c2ccncc2)c1)Cc1cccc(O)c1

>  <Name>  (602) 
nan

>  <Pocket>  (602) 
nan

>  <ATP_Site>  (602) 
nan

>  <Peripheral>  (602) 
nan

>  <Num_H_Atoms_ProtBoundConf>  (602) 
nan

>  <Num_Resolved_Atoms>  (602) 
nan

>  <Num_Not_Resolved_Atoms>  (602) 
nan

$$$$
CHEMBL2048664
     RDKit          3D

  0  0  0  0  0  0  0  0  0  0999 V3000
M  V30 BEGIN CTAB
M  V30 COUNTS 43 46 0 0 0
M  V30 BEGIN ATOM
M  V30 1 O 1.866171 0.269348 2.290992 0
M  V30 2 C 0.780675 0.920614 2.095356 0
M  V30 3 N 0.605738 1.644201 0.880551 0
M  V30 4 C 1.806668 1.439899 0.102143 0
M  V30 5 C 1.642461 2.184995 -1.193823 0
M  V30 6 C 2.879939 1.973836 -1.998683 0
M  V30 7 C 4.014747 2.753727 -2.010268 0
M  V30 8 C 5.101701 2.473479 -2.781002 0
M  V30 9 C 5.077853 1.346220 -3.601285 0
M  V30 10 F 6.168472 1.057874 -4.379838 0
M  V30 11 N 3.996213 0.560544 -3.620972 0
M  V30 12 C 2.940913 0.865443 -2.849477 0
M  V30 13 C -0.025882 0.701347 3.291903 0
M  V30 14 C -0.124670 1.508583 4.422874 0
M  V30 15 C -0.962251 1.069562 5.431548 0
M  V30 16 N -1.666446 -0.065521 5.374825 0
M  V30 17 C -1.601465 -0.876216 4.299388 0
M  V30 18 N -2.187881 -2.062664 3.960102 0
M  V30 19 C -1.749240 -2.413312 2.739960 0
M  V30 20 C -2.059986 -3.573015 1.914885 0
M  V30 21 C -2.919733 -4.566289 2.326650 0
M  V30 22 C -3.207605 -5.647718 1.521094 0
M  V30 23 C -2.636071 -5.779085 0.252905 0
M  V30 24 F -2.807739 -6.760512 -0.644257 0
M  V30 25 C -1.781362 -4.795666 -0.161073 0
M  V30 26 C -1.495251 -3.710032 0.652147 0
M  V30 27 N -0.906183 -1.445397 2.351702 0
M  V30 28 C -0.777670 -0.477860 3.269286 0
M  V30 29 H -0.329028 2.100596 0.918458 0
M  V30 30 H 2.716767 1.717921 0.630567 0
M  V30 31 H 1.916369 0.356340 -0.189980 0
M  V30 32 H 1.535881 3.290405 -1.021066 0
M  V30 33 H 0.804885 1.822384 -1.800887 0
M  V30 34 H 3.987165 3.616856 -1.360529 0
M  V30 35 H 5.966933 3.118241 -2.758148 0
M  V30 36 H 2.125255 0.167632 -2.933698 0
M  V30 37 H 0.467309 2.387246 4.376674 0
M  V30 38 H -0.983716 1.757358 6.281211 0
M  V30 39 H -2.860219 -2.611646 4.537662 0
M  V30 40 H -3.386178 -4.520209 3.292391 0
M  V30 41 H -3.867766 -6.455810 1.786178 0
M  V30 42 H -1.276343 -4.788068 -1.123666 0
M  V30 43 H -0.814466 -2.935012 0.315992 0
M  V30 END ATOM
M  V30 BEGIN BOND
M  V30 1 2 1 2
M  V30 2 1 2 3
M  V30 3 1 3 4
M  V30 4 1 4 5
M  V30 5 1 5 6
M  V30 6 2 6 7
M  V30 7 1 7 8
M  V30 8 2 8 9
M  V30 9 1 9 10
M  V30 10 1 9 11
M  V30 11 2 11 12
M  V30 12 1 2 13
M  V30 13 2 13 14
M  V30 14 1 14 15
M  V30 15 2 15 16
M  V30 16 1 16 17
M  V30 17 1 17 18
M  V30 18 1 18 19
M  V30 19 1 19 20
M  V30 20 2 20 21
M  V30 21 1 21 22
M  V30 22 2 22 23
M  V30 23 1 23 24
M  V30 24 1 23 25
M  V30 25 2 25 26
M  V30 26 2 19 27
M  V30 27 1 27 28
M  V30 28 1 12 6
M  V30 29 1 28 13
M  V30 30 2 28 17
M  V30 31 1 26 20
M  V30 32 1 3 29
M  V30 33 1 4 30
M  V30 34 1 4 31
M  V30 35 1 5 32
M  V30 36 1 5 33
M  V30 37 1 7 34
M  V30 38 1 8 35
M  V30 39 1 12 36
M  V30 40 1 14 37
M  V30 41 1 15 38
M  V30 42 1 18 39
M  V30 43 1 21 40
M  V30 44 1 22 41
M  V30 45 1 25 42
M  V30 46 1 26 43
M  V30 END BOND
M  V30 END CTAB
M  END
>  <Dataset>  (603) 
ChEMBL_Kinases

>  <Ligand_Instance>  (603) 
nan

>  <PDB_ID>  (603) 
nan

>  <Standardized_SMILES>  (603) 
O=C(NCCc1ccc(F)nc1)c1ccnc2[nH]c(-c3ccc(F)cc3)nc12

>  <Name>  (603) 
nan

>  <Pocket>  (603) 
nan

>  <ATP_Site>  (603) 
nan

>  <Peripheral>  (603) 
nan

>  <Num_H_Atoms_ProtBoundConf>  (603) 
nan

>  <Num_Resolved_Atoms>  (603) 
nan

>  <Num_Not_Resolved_Atoms>  (603) 
nan

$$$$
CHEMBL2048663
     RDKit          3D

  0  0  0  0  0  0  0  0  0  0999 V3000
M  V30 BEGIN CTAB
M  V30 COUNTS 52 55 0 0 0
M  V30 BEGIN ATOM
M  V30 1 C 4.792167 -4.207365 0.791527 0
M  V30 2 C 5.432406 -3.133104 1.614211 0
M  V30 3 S 4.424907 -2.837585 3.065715 0
M  V30 4 O 4.299278 -4.150982 3.767432 0
M  V30 5 O 5.054761 -1.855704 3.990697 0
M  V30 6 N 2.866554 -2.342739 2.512648 0
M  V30 7 C 2.520428 -1.203613 1.740736 0
M  V30 8 C 3.038065 0.050963 2.028004 0
M  V30 9 C 2.644679 1.125483 1.225615 0
M  V30 10 C 1.781925 1.019887 0.174528 0
M  V30 11 C 1.435063 2.220908 -0.623616 0
M  V30 12 C 0.307245 2.956602 0.052754 0
M  V30 13 N -0.846719 2.134958 0.173347 0
M  V30 14 C -2.006137 2.650497 0.788200 0
M  V30 15 O -1.907646 3.855597 1.191996 0
M  V30 16 C -3.275268 1.974227 1.009349 0
M  V30 17 C -4.281604 2.546161 1.712137 0
M  V30 18 C -5.482402 1.912994 1.927315 0
M  V30 19 N -5.732404 0.665034 1.442993 0
M  V30 20 C -4.736588 0.084751 0.740631 0
M  V30 21 N -4.733210 -1.150131 0.156263 0
M  V30 22 C -3.528101 -1.295424 -0.428411 0
M  V30 23 C -3.087620 -2.468162 -1.169753 0
M  V30 24 C -3.837994 -3.596413 -1.383403 0
M  V30 25 C -3.085925 -4.498174 -2.129182 0
M  V30 26 O -1.926994 -3.915012 -2.346405 0
M  V30 27 C -1.888587 -2.720586 -1.798676 0
M  V30 28 N -2.828525 -0.174324 -0.198534 0
M  V30 29 C -3.531898 0.712663 0.521301 0
M  V30 30 C 1.295805 -0.237418 -0.074388 0
M  V30 31 C 1.639391 -1.333613 0.672739 0
M  V30 32 H 4.887650 -3.995637 -0.288832 0
M  V30 33 H 5.258148 -5.199383 1.003287 0
M  V30 34 H 3.726545 -4.318124 1.081313 0
M  V30 35 H 5.454686 -2.168017 1.068784 0
M  V30 36 H 6.448789 -3.398524 1.913527 0
M  V30 37 H 2.022193 -2.915300 2.742992 0
M  V30 38 H 3.736577 0.195669 2.861933 0
M  V30 39 H 3.076973 2.062069 1.497998 0
M  V30 40 H 2.308343 2.881510 -0.767461 0
M  V30 41 H 1.079276 1.894757 -1.632456 0
M  V30 42 H 0.092614 3.871768 -0.563426 0
M  V30 43 H 0.709509 3.257291 1.059016 0
M  V30 44 H -0.911723 1.166497 -0.160449 0
M  V30 45 H -4.182258 3.538492 2.139552 0
M  V30 46 H -6.292483 2.358856 2.487212 0
M  V30 47 H -5.508445 -1.870700 0.147789 0
M  V30 48 H -4.831615 -3.778000 -1.047325 0
M  V30 49 H -3.347634 -5.489516 -2.486092 0
M  V30 50 H -1.056378 -2.015095 -1.819360 0
M  V30 51 H 0.626337 -0.436667 -0.875036 0
M  V30 52 H 1.252186 -2.328867 0.472952 0
M  V30 END ATOM
M  V30 BEGIN BOND
M  V30 1 1 1 2
M  V30 2 1 2 3
M  V30 3 2 3 4
M  V30 4 2 3 5
M  V30 5 1 3 6
M  V30 6 1 6 7
M  V30 7 2 7 8
M  V30 8 1 8 9
M  V30 9 2 9 10
M  V30 10 1 10 11
M  V30 11 1 11 12
M  V30 12 1 12 13
M  V30 13 1 13 14
M  V30 14 2 14 15
M  V30 15 1 14 16
M  V30 16 2 16 17
M  V30 17 1 17 18
M  V30 18 2 18 19
M  V30 19 1 19 20
M  V30 20 1 20 21
M  V30 21 1 21 22
M  V30 22 1 22 23
M  V30 23 1 23 24
M  V30 24 2 24 25
M  V30 25 1 25 26
M  V30 26 1 26 27
M  V30 27 2 22 28
M  V30 28 1 28 29
M  V30 29 1 10 30
M  V30 30 2 30 31
M  V30 31 1 31 7
M  V30 32 1 29 16
M  V30 33 2 29 20
M  V30 34 2 27 23
M  V30 35 1 1 32
M  V30 36 1 1 33
M  V30 37 1 1 34
M  V30 38 1 2 35
M  V30 39 1 2 36
M  V30 40 1 6 37
M  V30 41 1 8 38
M  V30 42 1 9 39
M  V30 43 1 11 40
M  V30 44 1 11 41
M  V30 45 1 12 42
M  V30 46 1 12 43
M  V30 47 1 13 44
M  V30 48 1 17 45
M  V30 49 1 18 46
M  V30 50 1 21 47
M  V30 51 1 24 48
M  V30 52 1 25 49
M  V30 53 1 27 50
M  V30 54 1 30 51
M  V30 55 1 31 52
M  V30 END BOND
M  V30 END CTAB
M  END
>  <Dataset>  (604) 
ChEMBL_Kinases

>  <Ligand_Instance>  (604) 
nan

>  <PDB_ID>  (604) 
nan

>  <Standardized_SMILES>  (604) 
CCS(=O)(=O)Nc1ccc(CCNC(=O)c2ccnc3[nH]c(-c4ccoc4)nc23)cc1

>  <Name>  (604) 
nan

>  <Pocket>  (604) 
nan

>  <ATP_Site>  (604) 
nan

>  <Peripheral>  (604) 
nan

>  <Num_H_Atoms_ProtBoundConf>  (604) 
nan

>  <Num_Resolved_Atoms>  (604) 
nan

>  <Num_Not_Resolved_Atoms>  (604) 
nan

$$$$
CHEMBL2048662
     RDKit          3D

  0  0  0  0  0  0  0  0  0  0999 V3000
M  V30 BEGIN CTAB
M  V30 COUNTS 52 55 0 0 0
M  V30 BEGIN ATOM
M  V30 1 C 4.398425 -4.033694 0.643760 0
M  V30 2 C 4.952926 -2.992580 1.596589 0
M  V30 3 S 3.836828 -2.675659 2.938824 0
M  V30 4 O 3.696977 -3.893582 3.797602 0
M  V30 5 O 4.467615 -1.607091 3.782659 0
M  V30 6 N 2.321278 -2.098741 2.392571 0
M  V30 7 C 2.163383 -0.886916 1.671064 0
M  V30 8 C 2.716111 0.349080 1.931678 0
M  V30 9 C 2.449218 1.427080 1.125968 0
M  V30 10 C 1.617863 1.344465 0.013084 0
M  V30 11 C 1.341331 2.456714 -0.900503 0
M  V30 12 C 0.304136 3.399535 -0.440659 0
M  V30 13 N -0.999318 2.936026 -0.142412 0
M  V30 14 C -1.507544 2.083054 0.837717 0
M  V30 15 O -0.781539 1.555823 1.709388 0
M  V30 16 C -2.784998 1.539479 1.218261 0
M  V30 17 C -3.661097 2.227049 2.015237 0
M  V30 18 C -4.862781 1.595807 2.323401 0
M  V30 19 N -5.173734 0.361949 1.869684 0
M  V30 20 C -4.344188 -0.346713 1.086358 0
M  V30 21 N -4.291586 -1.535832 0.466776 0
M  V30 22 C -3.147939 -1.694674 -0.204371 0
M  V30 23 C -2.776604 -2.859995 -0.973117 0
M  V30 24 C -3.554547 -3.955372 -1.102206 0
M  V30 25 C -3.180087 -5.045312 -1.833890 0
M  V30 26 S -1.506262 -4.574171 -2.482434 0
M  V30 27 C -1.469837 -2.959593 -1.709286 0
M  V30 28 N -2.473324 -0.579263 0.001715 0
M  V30 29 C -3.156587 0.281045 0.783567 0
M  V30 30 C 1.062338 0.078893 -0.239784 0
M  V30 31 C 1.336871 -1.003494 0.578006 0
M  V30 32 H 4.648923 -3.713528 -0.379212 0
M  V30 33 H 3.288813 -4.098525 0.672602 0
M  V30 34 H 4.808644 -5.023816 0.882903 0
M  V30 35 H 5.168860 -2.066061 1.063241 0
M  V30 36 H 5.885358 -3.413891 2.029885 0
M  V30 37 H 1.469171 -2.689721 2.613478 0
M  V30 38 H 3.355426 0.374542 2.802245 0
M  V30 39 H 2.894015 2.369954 1.355675 0
M  V30 40 H 2.322395 2.997714 -1.064367 0
M  V30 41 H 1.072038 1.986504 -1.889008 0
M  V30 42 H 0.228032 4.205548 -1.230325 0
M  V30 43 H 0.734316 3.913204 0.475945 0
M  V30 44 H -1.831296 3.246002 -0.732426 0
M  V30 45 H -3.428192 3.226243 2.392480 0
M  V30 46 H -5.587458 2.117475 2.958758 0
M  V30 47 H -5.067421 -2.226257 0.525362 0
M  V30 48 H -4.519834 -4.091831 -0.660762 0
M  V30 49 H -3.578742 -6.004081 -2.094721 0
M  V30 50 H -0.735369 -2.004547 -1.628384 0
M  V30 51 H 0.412738 0.025927 -1.116033 0
M  V30 52 H 0.830596 -1.920714 0.251107 0
M  V30 END ATOM
M  V30 BEGIN BOND
M  V30 1 1 1 2
M  V30 2 1 2 3
M  V30 3 2 3 4
M  V30 4 2 3 5
M  V30 5 1 3 6
M  V30 6 1 6 7
M  V30 7 2 7 8
M  V30 8 1 8 9
M  V30 9 2 9 10
M  V30 10 1 10 11
M  V30 11 1 11 12
M  V30 12 1 12 13
M  V30 13 1 13 14
M  V30 14 2 14 15
M  V30 15 1 14 16
M  V30 16 2 16 17
M  V30 17 1 17 18
M  V30 18 2 18 19
M  V30 19 1 19 20
M  V30 20 1 20 21
M  V30 21 1 21 22
M  V30 22 1 22 23
M  V30 23 1 23 24
M  V30 24 2 24 25
M  V30 25 1 25 26
M  V30 26 1 26 27
M  V30 27 2 22 28
M  V30 28 1 28 29
M  V30 29 1 10 30
M  V30 30 2 30 31
M  V30 31 1 31 7
M  V30 32 1 29 16
M  V30 33 2 29 20
M  V30 34 2 27 23
M  V30 35 1 1 32
M  V30 36 1 1 33
M  V30 37 1 1 34
M  V30 38 1 2 35
M  V30 39 1 2 36
M  V30 40 1 6 37
M  V30 41 1 8 38
M  V30 42 1 9 39
M  V30 43 1 11 40
M  V30 44 1 11 41
M  V30 45 1 12 42
M  V30 46 1 12 43
M  V30 47 1 13 44
M  V30 48 1 17 45
M  V30 49 1 18 46
M  V30 50 1 21 47
M  V30 51 1 24 48
M  V30 52 1 25 49
M  V30 53 1 27 50
M  V30 54 1 30 51
M  V30 55 1 31 52
M  V30 END BOND
M  V30 END CTAB
M  END
>  <Dataset>  (605) 
ChEMBL_Kinases

>  <Ligand_Instance>  (605) 
nan

>  <PDB_ID>  (605) 
nan

>  <Standardized_SMILES>  (605) 
CCS(=O)(=O)Nc1ccc(CCNC(=O)c2ccnc3[nH]c(-c4ccsc4)nc23)cc1

>  <Name>  (605) 
nan

>  <Pocket>  (605) 
nan

>  <ATP_Site>  (605) 
nan

>  <Peripheral>  (605) 
nan

>  <Num_H_Atoms_ProtBoundConf>  (605) 
nan

>  <Num_Resolved_Atoms>  (605) 
nan

>  <Num_Not_Resolved_Atoms>  (605) 
nan

$$$$
CHEMBL2048661
     RDKit          3D

  0  0  0  0  0  0  0  0  0  0999 V3000
M  V30 BEGIN CTAB
M  V30 COUNTS 52 55 0 0 0
M  V30 BEGIN ATOM
M  V30 1 C 3.981324 -3.833455 0.538690 0
M  V30 2 C 4.670653 -2.902261 1.516930 0
M  V30 3 S 3.620303 -2.603512 2.930236 0
M  V30 4 O 3.366834 -3.831459 3.715033 0
M  V30 5 O 4.327060 -1.604592 3.794269 0
M  V30 6 N 2.130646 -1.892555 2.425423 0
M  V30 7 C 2.068524 -0.636226 1.777375 0
M  V30 8 C 2.627267 0.570140 2.132421 0
M  V30 9 C 2.408047 1.682011 1.347506 0
M  V30 10 C 1.637845 1.611124 0.209694 0
M  V30 11 C 1.387016 2.754205 -0.667848 0
M  V30 12 C 0.273084 3.629422 -0.248460 0
M  V30 13 N -1.022390 3.081712 -0.073653 0
M  V30 14 C -1.614871 2.176171 0.775675 0
M  V30 15 O -0.932302 1.624186 1.706224 0
M  V30 16 C -2.842406 1.510550 1.080570 0
M  V30 17 C -3.853164 2.133685 1.801548 0
M  V30 18 C -5.006585 1.432048 2.072987 0
M  V30 19 N -5.167848 0.180044 1.661033 0
M  V30 20 C -4.264288 -0.514035 0.963597 0
M  V30 21 N -4.163316 -1.752883 0.433936 0
M  V30 22 C -2.964041 -1.812678 -0.157120 0
M  V30 23 C -2.506154 -2.992066 -0.825375 0
M  V30 24 C -3.011013 -4.221391 -0.995734 0
M  V30 25 C -2.399635 -5.204970 -1.707968 0
M  V30 26 C -1.106896 -4.828894 -2.299369 0
M  V30 27 S -0.885674 -3.026073 -1.754321 0
M  V30 28 N -2.321117 -0.655690 -0.010928 0
M  V30 29 C -3.105931 0.211147 0.698439 0
M  V30 30 C 1.057840 0.402176 -0.179511 0
M  V30 31 C 1.285196 -0.713292 0.619325 0
M  V30 32 H 4.534004 -3.774747 -0.410425 0
M  V30 33 H 2.937842 -3.504270 0.335645 0
M  V30 34 H 3.986380 -4.863449 0.893698 0
M  V30 35 H 4.906370 -1.933381 1.064535 0
M  V30 36 H 5.574256 -3.394963 1.876620 0
M  V30 37 H 1.233880 -2.425748 2.613838 0
M  V30 38 H 3.212224 0.514179 3.041732 0
M  V30 39 H 2.861494 2.600914 1.661209 0
M  V30 40 H 1.274098 2.388089 -1.721752 0
M  V30 41 H 2.369156 3.327381 -0.699299 0
M  V30 42 H 0.233654 4.476790 -0.996096 0
M  V30 43 H 0.631854 4.165968 0.689855 0
M  V30 44 H -1.813233 3.381010 -0.715620 0
M  V30 45 H -3.675135 3.153274 2.116682 0
M  V30 46 H -5.764181 1.969308 2.640264 0
M  V30 47 H -4.890556 -2.493802 0.487014 0
M  V30 48 H -3.965809 -4.426991 -0.530587 0
M  V30 49 H -2.730758 -6.208237 -1.893357 0
M  V30 50 H -0.482282 -5.553282 -2.920323 0
M  V30 51 H 0.454509 0.353942 -1.082440 0
M  V30 52 H 0.802569 -1.621121 0.251869 0
M  V30 END ATOM
M  V30 BEGIN BOND
M  V30 1 1 1 2
M  V30 2 1 2 3
M  V30 3 2 3 4
M  V30 4 2 3 5
M  V30 5 1 3 6
M  V30 6 1 6 7
M  V30 7 2 7 8
M  V30 8 1 8 9
M  V30 9 2 9 10
M  V30 10 1 10 11
M  V30 11 1 11 12
M  V30 12 1 12 13
M  V30 13 1 13 14
M  V30 14 2 14 15
M  V30 15 1 14 16
M  V30 16 2 16 17
M  V30 17 1 17 18
M  V30 18 2 18 19
M  V30 19 1 19 20
M  V30 20 1 20 21
M  V30 21 1 21 22
M  V30 22 1 22 23
M  V30 23 2 23 24
M  V30 24 1 24 25
M  V30 25 2 25 26
M  V30 26 1 26 27
M  V30 27 2 22 28
M  V30 28 1 28 29
M  V30 29 1 10 30
M  V30 30 2 30 31
M  V30 31 1 31 7
M  V30 32 1 29 16
M  V30 33 2 29 20
M  V30 34 1 27 23
M  V30 35 1 1 32
M  V30 36 1 1 33
M  V30 37 1 1 34
M  V30 38 1 2 35
M  V30 39 1 2 36
M  V30 40 1 6 37
M  V30 41 1 8 38
M  V30 42 1 9 39
M  V30 43 1 11 40
M  V30 44 1 11 41
M  V30 45 1 12 42
M  V30 46 1 12 43
M  V30 47 1 13 44
M  V30 48 1 17 45
M  V30 49 1 18 46
M  V30 50 1 21 47
M  V30 51 1 24 48
M  V30 52 1 25 49
M  V30 53 1 26 50
M  V30 54 1 30 51
M  V30 55 1 31 52
M  V30 END BOND
M  V30 END CTAB
M  END
>  <Dataset>  (606) 
ChEMBL_Kinases

>  <Ligand_Instance>  (606) 
nan

>  <PDB_ID>  (606) 
nan

>  <Standardized_SMILES>  (606) 
CCS(=O)(=O)Nc1ccc(CCNC(=O)c2ccnc3[nH]c(-c4cccs4)nc23)cc1

>  <Name>  (606) 
nan

>  <Pocket>  (606) 
nan

>  <ATP_Site>  (606) 
nan

>  <Peripheral>  (606) 
nan

>  <Num_H_Atoms_ProtBoundConf>  (606) 
nan

>  <Num_Resolved_Atoms>  (606) 
nan

>  <Num_Not_Resolved_Atoms>  (606) 
nan

$$$$
CHEMBL2048660
     RDKit          3D

  0  0  0  0  0  0  0  0  0  0999 V3000
M  V30 BEGIN CTAB
M  V30 COUNTS 55 58 0 0 0
M  V30 BEGIN ATOM
M  V30 1 C 5.837053 -0.384236 2.625397 0
M  V30 2 C 5.275231 0.702770 3.519251 0
M  V30 3 S 5.851471 2.315838 2.975032 0
M  V30 4 O 7.350226 2.265203 3.079773 0
M  V30 5 O 5.265320 3.356674 3.865669 0
M  V30 6 N 5.355968 2.639626 1.358054 0
M  V30 7 C 4.015638 2.717186 0.957266 0
M  V30 8 C 3.078981 3.408066 1.696571 0
M  V30 9 C 1.781260 3.429288 1.221991 0
M  V30 10 C 1.339969 2.808719 0.055185 0
M  V30 11 C -0.076736 2.898081 -0.362375 0
M  V30 12 C -0.944255 1.795151 0.188905 0
M  V30 13 N -0.428243 0.531045 -0.278255 0
M  V30 14 C -1.211043 -0.550658 0.213283 0
M  V30 15 O -2.237012 -0.453141 0.967613 0
M  V30 16 C -0.979304 -1.967151 -0.057988 0
M  V30 17 C 0.343008 -2.355477 -0.106352 0
M  V30 18 C 0.544720 -3.710685 -0.368728 0
M  V30 19 N -0.431368 -4.619656 -0.568400 0
M  V30 20 C -1.713559 -4.215686 -0.516102 0
M  V30 21 N -2.906847 -4.797561 -0.656034 0
M  V30 22 C -3.923092 -3.929631 -0.506762 0
M  V30 23 C -5.369517 -4.099393 -0.571225 0
M  V30 24 C -6.245449 -3.034577 -0.377773 0
M  V30 25 C -7.606343 -3.226138 -0.445841 0
M  V30 26 C -8.177192 -4.461420 -0.705133 0
M  V30 27 F -9.514657 -4.647888 -0.772015 0
M  V30 28 C -7.308384 -5.516873 -0.896738 0
M  V30 29 C -5.941927 -5.325137 -0.828488 0
M  V30 30 F -5.205445 -6.428479 -1.032683 0
M  V30 31 N -3.331145 -2.739094 -0.259840 0
M  V30 32 C -1.994013 -2.878041 -0.258776 0
M  V30 33 C 2.330011 2.136973 -0.632924 0
M  V30 34 C 3.646309 2.079082 -0.208976 0
M  V30 35 H 6.725809 0.009084 2.086151 0
M  V30 36 H 5.129335 -0.728647 1.851823 0
M  V30 37 H 6.124480 -1.259894 3.233402 0
M  V30 38 H 4.188318 0.673305 3.586075 0
M  V30 39 H 5.739307 0.548888 4.528763 0
M  V30 40 H 6.075778 2.792892 0.603925 0
M  V30 41 H 3.346730 3.914546 2.612668 0
M  V30 42 H 1.074143 3.983749 1.830599 0
M  V30 43 H -0.495423 3.910297 -0.190881 0
M  V30 44 H -0.066687 2.758477 -1.477998 0
M  V30 45 H -1.967424 1.980907 -0.201838 0
M  V30 46 H -1.029070 1.832551 1.294253 0
M  V30 47 H 0.329419 0.160909 -0.856610 0
M  V30 48 H 1.180020 -1.691416 0.041944 0
M  V30 49 H 1.570805 -4.053942 -0.415249 0
M  V30 50 H -3.022796 -5.798017 -0.855588 0
M  V30 51 H -5.849640 -2.032375 -0.168357 0
M  V30 52 H -8.281407 -2.390989 -0.293415 0
M  V30 53 H -7.763003 -6.471601 -1.096802 0
M  V30 54 H 2.073158 1.637438 -1.537824 0
M  V30 55 H 4.393597 1.540121 -0.780376 0
M  V30 END ATOM
M  V30 BEGIN BOND
M  V30 1 1 1 2
M  V30 2 1 2 3
M  V30 3 2 3 4
M  V30 4 2 3 5
M  V30 5 1 3 6
M  V30 6 1 6 7
M  V30 7 2 7 8
M  V30 8 1 8 9
M  V30 9 2 9 10
M  V30 10 1 10 11
M  V30 11 1 11 12
M  V30 12 1 12 13
M  V30 13 1 13 14
M  V30 14 2 14 15
M  V30 15 1 14 16
M  V30 16 2 16 17
M  V30 17 1 17 18
M  V30 18 2 18 19
M  V30 19 1 19 20
M  V30 20 1 20 21
M  V30 21 1 21 22
M  V30 22 1 22 23
M  V30 23 2 23 24
M  V30 24 1 24 25
M  V30 25 2 25 26
M  V30 26 1 26 27
M  V30 27 1 26 28
M  V30 28 2 28 29
M  V30 29 1 29 30
M  V30 30 2 22 31
M  V30 31 1 31 32
M  V30 32 1 10 33
M  V30 33 2 33 34
M  V30 34 1 34 7
M  V30 35 1 32 16
M  V30 36 2 32 20
M  V30 37 1 29 23
M  V30 38 1 1 35
M  V30 39 1 1 36
M  V30 40 1 1 37
M  V30 41 1 2 38
M  V30 42 1 2 39
M  V30 43 1 6 40
M  V30 44 1 8 41
M  V30 45 1 9 42
M  V30 46 1 11 43
M  V30 47 1 11 44
M  V30 48 1 12 45
M  V30 49 1 12 46
M  V30 50 1 13 47
M  V30 51 1 17 48
M  V30 52 1 18 49
M  V30 53 1 21 50
M  V30 54 1 24 51
M  V30 55 1 25 52
M  V30 56 1 28 53
M  V30 57 1 33 54
M  V30 58 1 34 55
M  V30 END BOND
M  V30 END CTAB
M  END
>  <Dataset>  (607) 
ChEMBL_Kinases

>  <Ligand_Instance>  (607) 
nan

>  <PDB_ID>  (607) 
nan

>  <Standardized_SMILES>  (607) 
CCS(=O)(=O)Nc1ccc(CCNC(=O)c2ccnc3[nH]c(-c4ccc(F)cc4F)nc23)cc1

>  <Name>  (607) 
nan

>  <Pocket>  (607) 
nan

>  <ATP_Site>  (607) 
nan

>  <Peripheral>  (607) 
nan

>  <Num_H_Atoms_ProtBoundConf>  (607) 
nan

>  <Num_Resolved_Atoms>  (607) 
nan

>  <Num_Not_Resolved_Atoms>  (607) 
nan

$$$$
CHEMBL2048659
     RDKit          3D

  0  0  0  0  0  0  0  0  0  0999 V3000
M  V30 BEGIN CTAB
M  V30 COUNTS 55 58 0 0 0
M  V30 BEGIN ATOM
M  V30 1 C 3.684791 -2.544948 4.082242 0
M  V30 2 C 3.346693 -3.616481 3.053357 0
M  V30 3 S 4.147241 -3.158263 1.529741 0
M  V30 4 O 3.809694 -4.304900 0.568525 0
M  V30 5 O 5.643829 -3.210531 1.760202 0
M  V30 6 N 3.638889 -1.693095 0.940960 0
M  V30 7 C 3.213591 -0.434090 0.459670 0
M  V30 8 C 3.649675 0.855621 0.599820 0
M  V30 9 C 2.931640 1.807434 -0.082249 0
M  V30 10 C 1.820314 1.513938 -0.879588 0
M  V30 11 C 1.276278 2.741455 -1.480315 0
M  V30 12 C 0.122562 3.313457 -0.694459 0
M  V30 13 N -1.018415 2.424279 -0.746523 0
M  V30 14 C -2.228013 2.818874 -0.055174 0
M  V30 15 O -2.233270 3.925104 0.595458 0
M  V30 16 C -3.470037 2.016779 -0.062704 0
M  V30 17 C -4.606648 2.796154 -0.209713 0
M  V30 18 C -5.812842 2.083668 -0.267303 0
M  V30 19 N -5.866734 0.740353 -0.185805 0
M  V30 20 C -4.761074 -0.001975 -0.043241 0
M  V30 21 N -4.395410 -1.290397 0.064354 0
M  V30 22 C -3.080533 -1.501161 0.185105 0
M  V30 23 C -2.402277 -2.785006 0.300608 0
M  V30 24 C -1.031686 -2.729358 0.452463 0
M  V30 25 C -0.376780 -3.960453 0.548464 0
M  V30 26 C -1.051745 -5.163486 0.495442 0
M  V30 27 F -0.416272 -6.358177 0.587848 0
M  V30 28 C -2.423940 -5.101282 0.342087 0
M  V30 29 C -3.162160 -3.935198 0.238040 0
M  V30 30 N -2.548251 -0.248478 0.155443 0
M  V30 31 C -3.531185 0.644926 0.020631 0
M  V30 32 C 1.373160 0.225375 -1.027179 0
M  V30 33 C 2.100903 -0.756424 -0.331779 0
M  V30 34 H 2.878723 -1.787505 4.197412 0
M  V30 35 H 3.932523 -2.944980 5.072861 0
M  V30 36 H 4.585747 -1.957215 3.749823 0
M  V30 37 H 3.599769 -4.623994 3.373944 0
M  V30 38 H 2.256460 -3.561500 2.887322 0
M  V30 39 H 3.963660 -1.248665 1.863931 0
M  V30 40 H 4.509070 0.901920 1.237503 0
M  V30 41 H 3.353477 2.808336 0.088337 0
M  V30 42 H 0.839748 2.528990 -2.501696 0
M  V30 43 H 2.056577 3.514199 -1.553974 0
M  V30 44 H -0.129842 4.314362 -1.119830 0
M  V30 45 H 0.487441 3.452330 0.350599 0
M  V30 46 H -1.219339 1.515382 -1.187721 0
M  V30 47 H -4.741772 3.848724 -0.291378 0
M  V30 48 H -6.770806 2.575427 -0.381943 0
M  V30 49 H -5.126504 -2.058746 0.048415 0
M  V30 50 H -0.520926 -1.787895 0.497692 0
M  V30 51 H 0.683170 -3.934722 0.665515 0
M  V30 52 H -2.946613 -6.064018 0.301859 0
M  V30 53 H -4.226368 -3.916503 0.117035 0
M  V30 54 H 0.524353 0.084477 -1.666802 0
M  V30 55 H 1.614543 -1.713051 -0.556085 0
M  V30 END ATOM
M  V30 BEGIN BOND
M  V30 1 1 1 2
M  V30 2 1 2 3
M  V30 3 2 3 4
M  V30 4 2 3 5
M  V30 5 1 3 6
M  V30 6 1 6 7
M  V30 7 2 7 8
M  V30 8 1 8 9
M  V30 9 2 9 10
M  V30 10 1 10 11
M  V30 11 1 11 12
M  V30 12 1 12 13
M  V30 13 1 13 14
M  V30 14 2 14 15
M  V30 15 1 14 16
M  V30 16 2 16 17
M  V30 17 1 17 18
M  V30 18 2 18 19
M  V30 19 1 19 20
M  V30 20 1 20 21
M  V30 21 1 21 22
M  V30 22 1 22 23
M  V30 23 2 23 24
M  V30 24 1 24 25
M  V30 25 2 25 26
M  V30 26 1 26 27
M  V30 27 1 26 28
M  V30 28 2 28 29
M  V30 29 2 22 30
M  V30 30 1 30 31
M  V30 31 1 10 32
M  V30 32 2 32 33
M  V30 33 1 33 7
M  V30 34 1 31 16
M  V30 35 2 31 20
M  V30 36 1 29 23
M  V30 37 1 1 34
M  V30 38 1 1 35
M  V30 39 1 1 36
M  V30 40 1 2 37
M  V30 41 1 2 38
M  V30 42 1 6 39
M  V30 43 1 8 40
M  V30 44 1 9 41
M  V30 45 1 11 42
M  V30 46 1 11 43
M  V30 47 1 12 44
M  V30 48 1 12 45
M  V30 49 1 13 46
M  V30 50 1 17 47
M  V30 51 1 18 48
M  V30 52 1 21 49
M  V30 53 1 24 50
M  V30 54 1 25 51
M  V30 55 1 28 52
M  V30 56 1 29 53
M  V30 57 1 32 54
M  V30 58 1 33 55
M  V30 END BOND
M  V30 END CTAB
M  END
>  <Dataset>  (608) 
ChEMBL_Kinases

>  <Ligand_Instance>  (608) 
nan

>  <PDB_ID>  (608) 
nan

>  <Standardized_SMILES>  (608) 
CCS(=O)(=O)Nc1ccc(CCNC(=O)c2ccnc3[nH]c(-c4ccc(F)cc4)nc23)cc1

>  <Name>  (608) 
nan

>  <Pocket>  (608) 
nan

>  <ATP_Site>  (608) 
nan

>  <Peripheral>  (608) 
nan

>  <Num_H_Atoms_ProtBoundConf>  (608) 
nan

>  <Num_Resolved_Atoms>  (608) 
nan

>  <Num_Not_Resolved_Atoms>  (608) 
nan

$$$$
CHEMBL2048658
     RDKit          3D

  0  0  0  0  0  0  0  0  0  0999 V3000
M  V30 BEGIN CTAB
M  V30 COUNTS 55 58 0 0 0
M  V30 BEGIN ATOM
M  V30 1 C 1.377516 -3.032729 3.618771 0
M  V30 2 C 2.650686 -3.132554 2.840117 0
M  V30 3 S 3.769171 -1.802403 3.194077 0
M  V30 4 O 5.000253 -2.031238 2.336846 0
M  V30 5 O 4.221834 -1.805717 4.605354 0
M  V30 6 N 3.109917 -0.253523 2.830140 0
M  V30 7 C 2.665811 0.342812 1.644827 0
M  V30 8 C 3.059145 1.648242 1.321911 0
M  V30 9 C 2.694308 2.342297 0.192756 0
M  V30 10 C 1.867867 1.719726 -0.719375 0
M  V30 11 C 1.402704 2.270810 -1.997773 0
M  V30 12 C 0.218413 3.159700 -1.824918 0
M  V30 13 N -0.933050 2.620661 -1.191528 0
M  V30 14 C -1.179642 2.212082 0.124660 0
M  V30 15 O -0.392631 2.264744 1.078656 0
M  V30 16 C -2.288639 1.635725 0.843969 0
M  V30 17 C -3.143586 2.184953 1.762042 0
M  V30 18 C -4.157876 1.472358 2.372500 0
M  V30 19 N -4.310434 0.168051 2.043764 0
M  V30 20 C -3.472026 -0.405328 1.131359 0
M  V30 21 N -3.555180 -1.704908 0.750747 0
M  V30 22 C -2.528088 -1.793422 -0.150256 0
M  V30 23 C -2.168995 -3.006855 -0.875625 0
M  V30 24 C -1.138098 -3.074211 -1.786607 0
M  V30 25 C -0.799998 -4.245207 -2.473175 0
M  V30 26 C -1.561442 -5.371675 -2.197763 0
M  V30 27 C -2.604737 -5.366129 -1.296841 0
M  V30 28 C -2.878779 -4.179356 -0.659882 0
M  V30 29 N -1.886365 -0.621127 -0.285364 0
M  V30 30 C -2.456287 0.296496 0.516333 0
M  V30 31 C 1.436729 0.404939 -0.454239 0
M  V30 32 C 1.841821 -0.228898 0.697695 0
M  V30 33 H 0.531563 -2.754767 2.948841 0
M  V30 34 H 1.459871 -2.278768 4.446220 0
M  V30 35 H 1.121618 -4.021716 4.060913 0
M  V30 36 H 2.455170 -3.203305 1.756667 0
M  V30 37 H 3.186397 -4.065450 3.180591 0
M  V30 38 H 2.984278 0.441957 3.626590 0
M  V30 39 H 3.706573 2.217522 1.977468 0
M  V30 40 H 3.003232 3.334640 -0.035625 0
M  V30 41 H 1.157597 1.435561 -2.703205 0
M  V30 42 H 2.223973 2.900475 -2.447541 0
M  V30 43 H 0.578308 3.985156 -1.106170 0
M  V30 44 H -0.045570 3.714353 -2.755509 0
M  V30 45 H -1.823363 2.462780 -1.751952 0
M  V30 46 H -2.909681 3.242440 1.931757 0
M  V30 47 H -4.773112 2.016062 3.085266 0
M  V30 48 H -4.202815 -2.446630 1.042238 0
M  V30 49 H -0.577662 -2.181336 -1.968845 0
M  V30 50 H 0.012040 -4.278751 -3.183827 0
M  V30 51 H -1.367388 -6.329271 -2.687432 0
M  V30 52 H -3.200327 -6.259549 -1.085277 0
M  V30 53 H -3.713797 -4.203764 0.051004 0
M  V30 54 H 0.784725 -0.129636 -1.139959 0
M  V30 55 H 1.493129 -1.227254 0.871855 0
M  V30 END ATOM
M  V30 BEGIN BOND
M  V30 1 1 1 2
M  V30 2 1 2 3
M  V30 3 2 3 4
M  V30 4 2 3 5
M  V30 5 1 3 6
M  V30 6 1 6 7
M  V30 7 2 7 8
M  V30 8 1 8 9
M  V30 9 2 9 10
M  V30 10 1 10 11
M  V30 11 1 11 12
M  V30 12 1 12 13
M  V30 13 1 13 14
M  V30 14 2 14 15
M  V30 15 1 14 16
M  V30 16 2 16 17
M  V30 17 1 17 18
M  V30 18 2 18 19
M  V30 19 1 19 20
M  V30 20 1 20 21
M  V30 21 1 21 22
M  V30 22 1 22 23
M  V30 23 2 23 24
M  V30 24 1 24 25
M  V30 25 2 25 26
M  V30 26 1 26 27
M  V30 27 2 27 28
M  V30 28 2 22 29
M  V30 29 1 29 30
M  V30 30 1 10 31
M  V30 31 2 31 32
M  V30 32 1 32 7
M  V30 33 1 30 16
M  V30 34 2 30 20
M  V30 35 1 28 23
M  V30 36 1 1 33
M  V30 37 1 1 34
M  V30 38 1 1 35
M  V30 39 1 2 36
M  V30 40 1 2 37
M  V30 41 1 6 38
M  V30 42 1 8 39
M  V30 43 1 9 40
M  V30 44 1 11 41
M  V30 45 1 11 42
M  V30 46 1 12 43
M  V30 47 1 12 44
M  V30 48 1 13 45
M  V30 49 1 17 46
M  V30 50 1 18 47
M  V30 51 1 21 48
M  V30 52 1 24 49
M  V30 53 1 25 50
M  V30 54 1 26 51
M  V30 55 1 27 52
M  V30 56 1 28 53
M  V30 57 1 31 54
M  V30 58 1 32 55
M  V30 END BOND
M  V30 END CTAB
M  END
>  <Dataset>  (609) 
ChEMBL_Kinases

>  <Ligand_Instance>  (609) 
nan

>  <PDB_ID>  (609) 
nan

>  <Standardized_SMILES>  (609) 
CCS(=O)(=O)Nc1ccc(CCNC(=O)c2ccnc3[nH]c(-c4ccccc4)nc23)cc1

>  <Name>  (609) 
nan

>  <Pocket>  (609) 
nan

>  <ATP_Site>  (609) 
nan

>  <Peripheral>  (609) 
nan

>  <Num_H_Atoms_ProtBoundConf>  (609) 
nan

>  <Num_Resolved_Atoms>  (609) 
nan

>  <Num_Not_Resolved_Atoms>  (609) 
nan

$$$$
CHEMBL2048657
     RDKit          3D

  0  0  0  0  0  0  0  0  0  0999 V3000
M  V30 BEGIN CTAB
M  V30 COUNTS 57 60 0 0 0
M  V30 BEGIN ATOM
M  V30 1 C 1.733610 -0.682465 3.103540 0
M  V30 2 C 2.254697 -2.102463 3.275459 0
M  V30 3 S 3.813407 -2.282134 2.467007 0
M  V30 4 O 4.469790 -3.576811 2.751668 0
M  V30 5 O 4.726674 -1.195500 3.022288 0
M  V30 6 N 3.695495 -1.965573 0.776821 0
M  V30 7 C 3.303778 -0.736633 0.187203 0
M  V30 8 C 3.722668 0.542744 0.542449 0
M  V30 9 C 3.224134 1.615306 -0.161320 0
M  V30 10 C 2.329932 1.527915 -1.205414 0
M  V30 11 C 1.848516 2.661202 -1.966117 0
M  V30 12 C 0.690948 3.441948 -1.485161 0
M  V30 13 N -0.554123 2.795972 -1.292197 0
M  V30 14 C -1.046786 1.780881 -0.437249 0
M  V30 15 O -0.270588 1.289198 0.388205 0
M  V30 16 C -2.402957 1.252554 -0.440647 0
M  V30 17 C -3.425439 2.125518 -0.744972 0
M  V30 18 C -4.688884 1.547405 -0.743132 0
M  V30 19 C -4.941157 0.220621 -0.466064 0
M  V30 20 O -6.206925 -0.315226 -0.474147 0
M  V30 21 C -3.851137 -0.569282 -0.173377 0
M  V30 22 N -3.765989 -1.895283 0.139368 0
M  V30 23 C -2.472260 -2.202492 0.344028 0
M  V30 24 C -2.002915 -3.535832 0.697021 0
M  V30 25 C -2.937384 -4.551132 0.798354 0
M  V30 26 C -2.557735 -5.832163 1.135661 0
M  V30 27 C -1.210085 -6.093162 1.375293 0
M  V30 28 C -0.241975 -5.105533 1.284801 0
M  V30 29 C -0.682767 -3.827442 0.939612 0
M  V30 30 N -1.721568 -1.087767 0.165748 0
M  V30 31 C -2.555465 -0.095221 -0.148215 0
M  V30 32 C 1.930210 0.226607 -1.535144 0
M  V30 33 C 2.402879 -0.874491 -0.859151 0
M  V30 34 H 1.245912 -0.573467 2.122678 0
M  V30 35 H 2.613826 0.021632 3.154628 0
M  V30 36 H 1.060289 -0.381540 3.939353 0
M  V30 37 H 2.326708 -2.388141 4.334225 0
M  V30 38 H 1.534014 -2.791602 2.800980 0
M  V30 39 H 3.943225 -2.773428 0.132773 0
M  V30 40 H 4.412387 0.556864 1.353223 0
M  V30 41 H 3.560755 2.578671 0.130541 0
M  V30 42 H 1.699539 2.288101 -3.026347 0
M  V30 43 H 2.698389 3.410930 -2.102469 0
M  V30 44 H 0.992521 4.008734 -0.536940 0
M  V30 45 H 0.548862 4.298503 -2.208355 0
M  V30 46 H -1.364066 3.109989 -1.920321 0
M  V30 47 H -3.227571 3.154123 -0.959289 0
M  V30 48 H -5.545018 2.162714 -0.971983 0
M  V30 49 H -6.460645 -0.885634 -1.287483 0
M  V30 50 H -4.579170 -2.515002 0.196916 0
M  V30 51 H -4.013737 -4.426677 0.624154 0
M  V30 52 H -3.203221 -6.696314 1.241435 0
M  V30 53 H -0.875497 -7.105572 1.647328 0
M  V30 54 H 0.795438 -5.331305 1.475839 0
M  V30 55 H 0.056838 -3.056601 0.866397 0
M  V30 56 H 1.217622 0.138505 -2.363454 0
M  V30 57 H 2.014013 -1.818499 -1.214957 0
M  V30 END ATOM
M  V30 BEGIN BOND
M  V30 1 1 1 2
M  V30 2 1 2 3
M  V30 3 2 3 4
M  V30 4 2 3 5
M  V30 5 1 3 6
M  V30 6 1 6 7
M  V30 7 2 7 8
M  V30 8 1 8 9
M  V30 9 2 9 10
M  V30 10 1 10 11
M  V30 11 1 11 12
M  V30 12 1 12 13
M  V30 13 1 13 14
M  V30 14 2 14 15
M  V30 15 1 14 16
M  V30 16 2 16 17
M  V30 17 1 17 18
M  V30 18 2 18 19
M  V30 19 1 19 20
M  V30 20 1 19 21
M  V30 21 1 21 22
M  V30 22 1 22 23
M  V30 23 1 23 24
M  V30 24 2 24 25
M  V30 25 1 25 26
M  V30 26 2 26 27
M  V30 27 1 27 28
M  V30 28 2 28 29
M  V30 29 2 23 30
M  V30 30 1 30 31
M  V30 31 1 10 32
M  V30 32 2 32 33
M  V30 33 1 33 7
M  V30 34 1 31 16
M  V30 35 2 31 21
M  V30 36 1 29 24
M  V30 37 1 1 34
M  V30 38 1 1 35
M  V30 39 1 1 36
M  V30 40 1 2 37
M  V30 41 1 2 38
M  V30 42 1 6 39
M  V30 43 1 8 40
M  V30 44 1 9 41
M  V30 45 1 11 42
M  V30 46 1 11 43
M  V30 47 1 12 44
M  V30 48 1 12 45
M  V30 49 1 13 46
M  V30 50 1 17 47
M  V30 51 1 18 48
M  V30 52 1 20 49
M  V30 53 1 22 50
M  V30 54 1 25 51
M  V30 55 1 26 52
M  V30 56 1 27 53
M  V30 57 1 28 54
M  V30 58 1 29 55
M  V30 59 1 32 56
M  V30 60 1 33 57
M  V30 END BOND
M  V30 END CTAB
M  END
>  <Dataset>  (610) 
ChEMBL_Kinases

>  <Ligand_Instance>  (610) 
nan

>  <PDB_ID>  (610) 
nan

>  <Standardized_SMILES>  (610) 
CCS(=O)(=O)Nc1ccc(CCNC(=O)c2ccc(O)c3[nH]c(-c4ccccc4)nc23)cc1

>  <Name>  (610) 
nan

>  <Pocket>  (610) 
nan

>  <ATP_Site>  (610) 
nan

>  <Peripheral>  (610) 
nan

>  <Num_H_Atoms_ProtBoundConf>  (610) 
nan

>  <Num_Resolved_Atoms>  (610) 
nan

>  <Num_Not_Resolved_Atoms>  (610) 
nan

$$$$
CHEMBL204838
     RDKit          3D

  0  0  0  0  0  0  0  0  0  0999 V3000
M  V30 BEGIN CTAB
M  V30 COUNTS 37 40 0 0 0
M  V30 BEGIN ATOM
M  V30 1 Cl 4.566142 -5.859319 -0.073186 0
M  V30 2 C 3.649396 -4.476701 0.487849 0
M  V30 3 C 3.296817 -4.273634 1.818900 0
M  V30 4 C 2.572542 -3.148778 2.152655 0
M  V30 5 C 2.164509 -2.193077 1.248723 0
M  V30 6 C 1.403709 -1.053629 1.745749 0
M  V30 7 C 0.937759 -0.031302 0.954785 0
M  V30 8 C 0.221854 1.015404 1.514996 0
M  V30 9 C -0.288075 2.117664 0.700935 0
M  V30 10 C 0.097301 3.441904 0.836500 0
M  V30 11 N -0.622711 4.074566 -0.108056 0
M  V30 12 N -1.399257 3.250982 -0.791647 0
M  V30 13 C -1.229680 1.980684 -0.319739 0
M  V30 14 C -1.826187 0.703825 -0.701025 0
M  V30 15 C -2.606535 -0.061560 0.138903 0
M  V30 16 C -3.148754 -1.262216 -0.267480 0
M  V30 17 C -2.873241 -1.665153 -1.560426 0
M  V30 18 C -2.084527 -0.886005 -2.401103 0
M  V30 19 N -1.560047 0.296783 -1.976357 0
M  V30 20 C -0.041865 1.062353 2.868492 0
M  V30 21 C 0.447293 0.009808 3.628511 0
M  V30 22 N 1.137610 -0.987985 3.049440 0
M  V30 23 C 2.502321 -2.373222 -0.075624 0
M  V30 24 C 3.229182 -3.501728 -0.412166 0
M  V30 25 H 3.622233 -5.027786 2.512691 0
M  V30 26 H 2.345199 -3.081280 3.225403 0
M  V30 27 H 1.136470 -0.054800 -0.104550 0
M  V30 28 H 0.805999 3.872060 1.531819 0
M  V30 29 H -0.538769 5.115233 -0.246153 0
M  V30 30 H -2.780895 0.313242 1.134995 0
M  V30 31 H -3.763247 -1.856764 0.405799 0
M  V30 32 H -3.283910 -2.614483 -1.927014 0
M  V30 33 H -1.914234 -1.258177 -3.382175 0
M  V30 34 H -0.584483 1.826529 3.392604 0
M  V30 35 H 0.299612 -0.055372 4.697494 0
M  V30 36 H 2.198932 -1.648342 -0.799037 0
M  V30 37 H 3.509188 -3.666148 -1.458531 0
M  V30 END ATOM
M  V30 BEGIN BOND
M  V30 1 1 1 2
M  V30 2 2 2 3
M  V30 3 1 3 4
M  V30 4 2 4 5
M  V30 5 1 5 6
M  V30 6 2 6 7
M  V30 7 1 7 8
M  V30 8 1 8 9
M  V30 9 2 9 10
M  V30 10 1 10 11
M  V30 11 1 11 12
M  V30 12 2 12 13
M  V30 13 1 13 14
M  V30 14 2 14 15
M  V30 15 1 15 16
M  V30 16 2 16 17
M  V30 17 1 17 18
M  V30 18 2 18 19
M  V30 19 2 8 20
M  V30 20 1 20 21
M  V30 21 2 21 22
M  V30 22 1 5 23
M  V30 23 2 23 24
M  V30 24 1 24 2
M  V30 25 1 22 6
M  V30 26 1 13 9
M  V30 27 1 19 14
M  V30 28 1 3 25
M  V30 29 1 4 26
M  V30 30 1 7 27
M  V30 31 1 10 28
M  V30 32 1 11 29
M  V30 33 1 15 30
M  V30 34 1 16 31
M  V30 35 1 17 32
M  V30 36 1 18 33
M  V30 37 1 20 34
M  V30 38 1 21 35
M  V30 39 1 23 36
M  V30 40 1 24 37
M  V30 END BOND
M  V30 END CTAB
M  END
>  <Dataset>  (611) 
ChEMBL_Kinases

>  <Ligand_Instance>  (611) 
nan

>  <PDB_ID>  (611) 
nan

>  <Standardized_SMILES>  (611) 
Clc1ccc(-c2cc(-c3c[nH]nc3-c3ccccn3)ccn2)cc1

>  <Name>  (611) 
nan

>  <Pocket>  (611) 
nan

>  <ATP_Site>  (611) 
nan

>  <Peripheral>  (611) 
nan

>  <Num_H_Atoms_ProtBoundConf>  (611) 
nan

>  <Num_Resolved_Atoms>  (611) 
nan

>  <Num_Not_Resolved_Atoms>  (611) 
nan

$$$$
CHEMBL2047959
     RDKit          3D

  0  0  0  0  0  0  0  0  0  0999 V3000
M  V30 BEGIN CTAB
M  V30 COUNTS 67 71 0 0 0
M  V30 BEGIN ATOM
M  V30 1 C 2.676118 -2.992592 3.926590 0
M  V30 2 O 1.810965 -3.072718 2.805292 0
M  V30 3 C 1.473634 -1.849686 2.207104 0
M  V30 4 C 1.927772 -0.613684 2.640125 0
M  V30 5 C 1.516624 0.510865 1.958252 0
M  V30 6 N 1.968609 1.808370 2.363221 0
M  V30 7 C 3.099666 2.144688 3.225189 0
M  V30 8 C 4.099800 2.916494 2.399423 0
M  V30 9 N 3.583293 4.062129 1.733990 0
M  V30 10 S 4.632758 4.340469 0.358318 0
M  V30 11 C 4.600818 2.967982 -0.742386 0
M  V30 12 O 4.134660 5.556504 -0.407910 0
M  V30 13 O 6.037256 4.606697 0.762247 0
M  V30 14 C 2.242968 4.016384 1.280689 0
M  V30 15 C 1.351164 3.050739 1.990898 0
M  V30 16 C 0.676683 0.458648 0.868243 0
M  V30 17 C 0.261115 -0.800099 0.488222 0
M  V30 18 C 0.616666 -1.979379 1.105276 0
M  V30 19 N 0.115688 -3.223652 0.628878 0
M  V30 20 C -0.707876 -3.250130 -0.533303 0
M  V30 21 N -2.025224 -3.094416 -0.715033 0
M  V30 22 C -2.557435 -3.175436 -1.940763 0
M  V30 23 N -3.958163 -2.998225 -2.094117 0
M  V30 24 C -4.984339 -2.724931 -1.123599 0
M  V30 25 C -5.156553 -3.725345 -0.044302 0
M  V30 26 C -4.438498 -3.530186 1.227984 0
M  V30 27 C -4.092133 -2.156474 1.645503 0
M  V30 28 C -4.121973 -1.087839 0.611028 0
M  V30 29 C -4.985745 -1.348158 -0.558660 0
M  V30 30 C -1.730562 -3.421705 -3.016004 0
M  V30 31 N -1.985374 -3.549849 -4.320221 0
M  V30 32 C -0.855117 -3.788028 -5.007277 0
M  V30 33 N 0.126328 -3.806488 -4.089142 0
M  V30 34 C -0.373223 -3.585711 -2.858648 0
M  V30 35 N 0.104106 -3.491142 -1.582456 0
M  V30 36 H 3.607478 -2.453747 3.722488 0
M  V30 37 H 2.153221 -2.425111 4.750396 0
M  V30 38 H 2.907176 -4.003140 4.336883 0
M  V30 39 H 2.585910 -0.586903 3.495086 0
M  V30 40 H 2.757718 2.730745 4.093814 0
M  V30 41 H 3.580500 1.188254 3.510392 0
M  V30 42 H 5.008710 3.148326 2.999356 0
M  V30 43 H 4.424471 2.202878 1.592044 0
M  V30 44 H 3.899694 2.175409 -0.373812 0
M  V30 45 H 4.201544 3.236589 -1.752376 0
M  V30 46 H 5.581717 2.496215 -0.790562 0
M  V30 47 H 2.233328 3.877723 0.174318 0
M  V30 48 H 1.827095 5.064937 1.407395 0
M  V30 49 H 1.037775 3.553645 2.956921 0
M  V30 50 H 0.392810 2.897882 1.441430 0
M  V30 51 H 0.305696 1.274165 0.274960 0
M  V30 52 H -0.410072 -0.903176 -0.374900 0
M  V30 53 H 0.387105 -4.078444 1.174426 0
M  V30 54 H -4.268116 -3.088459 -3.115574 0
M  V30 55 H -5.970405 -2.771987 -1.715297 0
M  V30 56 H -6.266369 -3.777591 0.199025 0
M  V30 57 H -4.862106 -4.718769 -0.463734 0
M  V30 58 H -3.553772 -4.240009 1.282371 0
M  V30 59 H -5.092822 -3.954495 2.060397 0
M  V30 60 H -4.656899 -1.839143 2.569473 0
M  V30 61 H -3.023764 -2.185764 2.018566 0
M  V30 62 H -3.121855 -0.733702 0.262904 0
M  V30 63 H -4.545741 -0.158025 1.105595 0
M  V30 64 H -4.690895 -0.654734 -1.385493 0
M  V30 65 H -6.038144 -1.042090 -0.317854 0
M  V30 66 H -0.619146 -3.950117 -6.055335 0
M  V30 67 H 1.154443 -3.955672 -4.171177 0
M  V30 END ATOM
M  V30 BEGIN BOND
M  V30 1 1 1 2
M  V30 2 1 2 3
M  V30 3 2 3 4
M  V30 4 1 4 5
M  V30 5 1 5 6
M  V30 6 1 6 7
M  V30 7 1 7 8
M  V30 8 1 8 9
M  V30 9 1 9 10
M  V30 10 1 10 11
M  V30 11 2 10 12
M  V30 12 2 10 13
M  V30 13 1 9 14
M  V30 14 1 14 15
M  V30 15 2 5 16
M  V30 16 1 16 17
M  V30 17 2 17 18
M  V30 18 1 18 19
M  V30 19 1 19 20
M  V30 20 2 20 21
M  V30 21 1 21 22
M  V30 22 1 22 23
M  V30 23 1 23 24
M  V30 24 1 24 25
M  V30 25 1 25 26
M  V30 26 1 26 27
M  V30 27 1 27 28
M  V30 28 1 28 29
M  V30 29 2 22 30
M  V30 30 1 30 31
M  V30 31 2 31 32
M  V30 32 1 32 33
M  V30 33 1 33 34
M  V30 34 2 34 35
M  V30 35 1 18 3
M  V30 36 1 35 20
M  V30 37 1 15 6
M  V30 38 1 29 24
M  V30 39 1 34 30
M  V30 40 1 1 36
M  V30 41 1 1 37
M  V30 42 1 1 38
M  V30 43 1 4 39
M  V30 44 1 7 40
M  V30 45 1 7 41
M  V30 46 1 8 42
M  V30 47 1 8 43
M  V30 48 1 11 44
M  V30 49 1 11 45
M  V30 50 1 11 46
M  V30 51 1 14 47
M  V30 52 1 14 48
M  V30 53 1 15 49
M  V30 54 1 15 50
M  V30 55 1 16 51
M  V30 56 1 17 52
M  V30 57 1 19 53
M  V30 58 1 23 54
M  V30 59 1 24 55
M  V30 60 1 25 56
M  V30 61 1 25 57
M  V30 62 1 26 58
M  V30 63 1 26 59
M  V30 64 1 27 60
M  V30 65 1 27 61
M  V30 66 1 28 62
M  V30 67 1 28 63
M  V30 68 1 29 64
M  V30 69 1 29 65
M  V30 70 1 32 66
M  V30 71 1 33 67
M  V30 END BOND
M  V30 END CTAB
M  END
>  <Dataset>  (612) 
ChEMBL_Kinases

>  <Ligand_Instance>  (612) 
nan

>  <PDB_ID>  (612) 
nan

>  <Standardized_SMILES>  (612) 
COc1cc(N2CCN(S(C)(=O)=O)CC2)ccc1Nc1nc(NC2CCCCC2)c2nc[nH]c2n1

>  <Name>  (612) 
nan

>  <Pocket>  (612) 
nan

>  <ATP_Site>  (612) 
nan

>  <Peripheral>  (612) 
nan

>  <Num_H_Atoms_ProtBoundConf>  (612) 
nan

>  <Num_Resolved_Atoms>  (612) 
nan

>  <Num_Not_Resolved_Atoms>  (612) 
nan

$$$$
CHEMBL2047943
     RDKit          3D

  0  0  0  0  0  0  0  0  0  0999 V3000
M  V30 BEGIN CTAB
M  V30 COUNTS 59 63 0 0 0
M  V30 BEGIN ATOM
M  V30 1 C -0.420125 3.819436 -0.963342 0
M  V30 2 C 0.513538 2.817433 -0.410052 0
M  V30 3 C 1.847496 2.859864 -0.759678 0
M  V30 4 C 2.783199 1.964062 -0.291263 0
M  V30 5 N 4.160721 1.990061 -0.640646 0
M  V30 6 C 5.204640 1.170299 -0.051767 0
M  V30 7 C 5.701769 0.255450 -1.169194 0
M  V30 8 O 6.232650 1.061039 -2.174809 0
M  V30 9 C 5.293913 1.908867 -2.723171 0
M  V30 10 C 4.721248 2.858910 -1.660754 0
M  V30 11 C 2.346225 0.963986 0.583041 0
M  V30 12 C 1.006540 0.950209 0.911995 0
M  V30 13 C 0.049872 1.834648 0.457828 0
M  V30 14 N -1.313467 1.752983 0.860506 0
M  V30 15 C -1.705217 0.697186 1.726719 0
M  V30 16 N -2.191200 -0.349526 1.056954 0
M  V30 17 C -2.635357 -1.489974 1.567277 0
M  V30 18 N -3.172138 -2.571113 0.784950 0
M  V30 19 C -3.623014 -3.864179 1.236304 0
M  V30 20 C -4.258525 -4.600032 0.095311 0
M  V30 21 C -3.280457 -4.786913 -1.023754 0
M  V30 22 C -2.050509 -5.453965 -0.527035 0
M  V30 23 C -2.097146 -5.827976 0.934875 0
M  V30 24 C -2.448099 -4.640821 1.804129 0
M  V30 25 C -2.561585 -1.542946 2.964827 0
M  V30 26 N -2.900029 -2.479767 3.865543 0
M  V30 27 C -2.627165 -2.023282 5.092506 0
M  V30 28 N -2.108945 -0.788770 5.027075 0
M  V30 29 C -2.077299 -0.512467 3.713328 0
M  V30 30 N -1.653575 0.598202 3.088067 0
M  V30 31 H -0.005216 4.335176 -1.854450 0
M  V30 32 H -1.301786 3.263317 -1.336187 0
M  V30 33 H -0.751285 4.548787 -0.205728 0
M  V30 34 H 2.146889 3.646209 -1.435592 0
M  V30 35 H 4.901223 0.616529 0.845788 0
M  V30 36 H 6.103000 1.813890 0.186914 0
M  V30 37 H 4.909428 -0.381257 -1.590474 0
M  V30 38 H 6.515024 -0.423567 -0.832765 0
M  V30 39 H 5.748008 2.462211 -3.556454 0
M  V30 40 H 4.425180 1.345646 -3.174734 0
M  V30 41 H 5.589873 3.412079 -1.244430 0
M  V30 42 H 4.004568 3.491338 -2.177301 0
M  V30 43 H 2.943561 0.205113 1.024124 0
M  V30 44 H 0.616216 0.194310 1.587831 0
M  V30 45 H -1.957494 2.486105 0.489070 0
M  V30 46 H -3.217896 -2.315111 -0.214361 0
M  V30 47 H -4.384934 -3.669185 2.040045 0
M  V30 48 H -5.158231 -4.020062 -0.221777 0
M  V30 49 H -4.582898 -5.615145 0.485284 0
M  V30 50 H -3.038407 -3.798095 -1.466593 0
M  V30 51 H -3.749569 -5.450925 -1.806794 0
M  V30 52 H -1.878690 -6.385150 -1.102244 0
M  V30 53 H -1.152121 -4.817070 -0.748575 0
M  V30 54 H -2.794266 -6.657951 1.129418 0
M  V30 55 H -1.082939 -6.166402 1.227474 0
M  V30 56 H -2.765119 -5.040790 2.785315 0
M  V30 57 H -1.580797 -3.983667 1.974062 0
M  V30 58 H -2.787436 -2.545939 6.030679 0
M  V30 59 H -1.782973 -0.136233 5.796231 0
M  V30 END ATOM
M  V30 BEGIN BOND
M  V30 1 1 1 2
M  V30 2 2 2 3
M  V30 3 1 3 4
M  V30 4 1 4 5
M  V30 5 1 5 6
M  V30 6 1 6 7
M  V30 7 1 7 8
M  V30 8 1 8 9
M  V30 9 1 9 10
M  V30 10 2 4 11
M  V30 11 1 11 12
M  V30 12 2 12 13
M  V30 13 1 13 14
M  V30 14 1 14 15
M  V30 15 2 15 16
M  V30 16 1 16 17
M  V30 17 1 17 18
M  V30 18 1 18 19
M  V30 19 1 19 20
M  V30 20 1 20 21
M  V30 21 1 21 22
M  V30 22 1 22 23
M  V30 23 1 23 24
M  V30 24 2 17 25
M  V30 25 1 25 26
M  V30 26 2 26 27
M  V30 27 1 27 28
M  V30 28 1 28 29
M  V30 29 2 29 30
M  V30 30 1 13 2
M  V30 31 1 30 15
M  V30 32 1 10 5
M  V30 33 1 24 19
M  V30 34 1 29 25
M  V30 35 1 1 31
M  V30 36 1 1 32
M  V30 37 1 1 33
M  V30 38 1 3 34
M  V30 39 1 6 35
M  V30 40 1 6 36
M  V30 41 1 7 37
M  V30 42 1 7 38
M  V30 43 1 9 39
M  V30 44 1 9 40
M  V30 45 1 10 41
M  V30 46 1 10 42
M  V30 47 1 11 43
M  V30 48 1 12 44
M  V30 49 1 14 45
M  V30 50 1 18 46
M  V30 51 1 19 47
M  V30 52 1 20 48
M  V30 53 1 20 49
M  V30 54 1 21 50
M  V30 55 1 21 51
M  V30 56 1 22 52
M  V30 57 1 22 53
M  V30 58 1 23 54
M  V30 59 1 23 55
M  V30 60 1 24 56
M  V30 61 1 24 57
M  V30 62 1 27 58
M  V30 63 1 28 59
M  V30 END BOND
M  V30 END CTAB
M  END
>  <Dataset>  (613) 
ChEMBL_Kinases

>  <Ligand_Instance>  (613) 
nan

>  <PDB_ID>  (613) 
nan

>  <Standardized_SMILES>  (613) 
Cc1cc(N2CCOCC2)ccc1Nc1nc(NC2CCCCC2)c2nc[nH]c2n1

>  <Name>  (613) 
nan

>  <Pocket>  (613) 
nan

>  <ATP_Site>  (613) 
nan

>  <Peripheral>  (613) 
nan

>  <Num_H_Atoms_ProtBoundConf>  (613) 
nan

>  <Num_Resolved_Atoms>  (613) 
nan

>  <Num_Not_Resolved_Atoms>  (613) 
nan

$$$$
CHEMBL2046883
     RDKit          3D

  0  0  0  0  0  0  0  0  0  0999 V3000
M  V30 BEGIN CTAB
M  V30 COUNTS 64 68 0 0 0
M  V30 BEGIN ATOM
M  V30 1 C 8.889442 -0.459118 2.854335 0
M  V30 2 C 8.128613 0.739160 2.403380 0
M  V30 3 C 8.098075 1.155926 1.067511 0
M  V30 4 C 7.369534 2.285499 0.698122 0
M  V30 5 C 6.680369 2.984732 1.668863 0
M  V30 6 N 5.944111 4.144030 1.229055 0
M  V30 7 C 4.569543 4.042022 0.804712 0
M  V30 8 O 4.161674 2.856023 0.881325 0
M  V30 9 N 3.851100 5.181492 0.373980 0
M  V30 10 C 2.493152 4.805639 0.003884 0
M  V30 11 N 1.815338 4.448398 -0.886538 0
M  V30 12 N 0.550541 4.199083 -0.808471 0
M  V30 13 C -0.125159 4.276724 0.112170 0
M  V30 14 S -1.803785 4.070835 0.731743 0
M  V30 15 C -2.043984 2.387361 1.317438 0
M  V30 16 N -1.793734 1.997419 2.582905 0
M  V30 17 C -1.984301 0.727780 2.992232 0
M  V30 18 N -2.444763 -0.206969 2.111830 0
M  V30 19 C -2.689017 0.196710 0.856652 0
M  V30 20 C -3.152657 -0.783025 0.008076 0
M  V30 21 C -3.460035 -0.565940 -1.310739 0
M  V30 22 O -3.919572 -1.322476 -2.330029 0
M  V30 23 C -4.271274 -2.657153 -2.393014 0
M  V30 24 C -5.412150 -2.954466 -1.484893 0
M  V30 25 C -5.833448 -4.402035 -1.507696 0
M  V30 26 N -4.826849 -5.339189 -1.119853 0
M  V30 27 C -5.341624 -6.655571 -1.182923 0
M  V30 28 C -4.916807 -7.561110 -0.069310 0
M  V30 29 O -4.978661 -6.808841 1.116934 0
M  V30 30 C -3.861612 -5.987902 1.069620 0
M  V30 31 C -4.019741 -4.982195 -0.022976 0
M  V30 32 C -3.275417 0.729195 -1.765858 0
M  V30 33 C -2.805922 1.764995 -0.945535 0
M  V30 34 C -2.510782 1.478714 0.391085 0
M  V30 35 S 1.198105 4.855450 1.355620 0
M  V30 36 C 6.688234 2.600254 3.003869 0
M  V30 37 C 7.420247 1.477720 3.330266 0
M  V30 38 H 8.917053 -1.262766 2.090567 0
M  V30 39 H 9.940631 -0.178412 3.118495 0
M  V30 40 H 8.366226 -0.860890 3.751665 0
M  V30 41 H 8.656948 0.568683 0.353184 0
M  V30 42 H 7.345991 2.608240 -0.336115 0
M  V30 43 H 6.423901 5.090089 1.217915 0
M  V30 44 H 4.288139 6.124582 0.349119 0
M  V30 45 H -1.772093 0.453413 4.016445 0
M  V30 46 H -3.299650 -1.801563 0.314232 0
M  V30 47 H -3.416297 -3.359925 -2.278805 0
M  V30 48 H -4.636824 -2.869841 -3.444524 0
M  V30 49 H -6.299381 -2.409385 -1.946433 0
M  V30 50 H -5.363851 -2.521511 -0.472724 0
M  V30 51 H -6.739938 -4.499485 -0.897912 0
M  V30 52 H -6.125087 -4.629259 -2.556121 0
M  V30 53 H -6.468996 -6.609044 -1.113969 0
M  V30 54 H -5.149194 -7.164784 -2.148210 0
M  V30 55 H -3.851126 -7.821078 -0.223319 0
M  V30 56 H -5.555390 -8.434735 0.059067 0
M  V30 57 H -3.655799 -5.523952 2.053268 0
M  V30 58 H -2.983392 -6.658475 0.860572 0
M  V30 59 H -4.312470 -4.035507 0.474384 0
M  V30 60 H -2.973407 -4.785422 -0.403670 0
M  V30 61 H -3.444215 1.150295 -2.755450 0
M  V30 62 H -2.633588 2.782486 -1.202996 0
M  V30 63 H 6.136447 3.169012 3.748270 0
M  V30 64 H 7.429044 1.174680 4.369006 0
M  V30 END ATOM
M  V30 BEGIN BOND
M  V30 1 1 1 2
M  V30 2 2 2 3
M  V30 3 1 3 4
M  V30 4 2 4 5
M  V30 5 1 5 6
M  V30 6 1 6 7
M  V30 7 2 7 8
M  V30 8 1 7 9
M  V30 9 1 9 10
M  V30 10 2 10 11
M  V30 11 1 11 12
M  V30 12 2 12 13
M  V30 13 1 13 14
M  V30 14 1 14 15
M  V30 15 2 15 16
M  V30 16 1 16 17
M  V30 17 2 17 18
M  V30 18 1 18 19
M  V30 19 2 19 20
M  V30 20 1 20 21
M  V30 21 1 21 22
M  V30 22 1 22 23
M  V30 23 1 23 24
M  V30 24 1 24 25
M  V30 25 1 25 26
M  V30 26 1 26 27
M  V30 27 1 27 28
M  V30 28 1 28 29
M  V30 29 1 29 30
M  V30 30 1 30 31
M  V30 31 2 21 32
M  V30 32 1 32 33
M  V30 33 2 33 34
M  V30 34 1 13 35
M  V30 35 1 5 36
M  V30 36 2 36 37
M  V30 37 1 37 2
M  V30 38 1 35 10
M  V30 39 1 34 15
M  V30 40 1 34 19
M  V30 41 1 31 26
M  V30 42 1 1 38
M  V30 43 1 1 39
M  V30 44 1 1 40
M  V30 45 1 3 41
M  V30 46 1 4 42
M  V30 47 1 6 43
M  V30 48 1 9 44
M  V30 49 1 17 45
M  V30 50 1 20 46
M  V30 51 1 23 47
M  V30 52 1 23 48
M  V30 53 1 24 49
M  V30 54 1 24 50
M  V30 55 1 25 51
M  V30 56 1 25 52
M  V30 57 1 27 53
M  V30 58 1 27 54
M  V30 59 1 28 55
M  V30 60 1 28 56
M  V30 61 1 30 57
M  V30 62 1 30 58
M  V30 63 1 31 59
M  V30 64 1 31 60
M  V30 65 1 32 61
M  V30 66 1 33 62
M  V30 67 1 36 63
M  V30 68 1 37 64
M  V30 END BOND
M  V30 END CTAB
M  END
>  <Dataset>  (614) 
ChEMBL_Kinases

>  <Ligand_Instance>  (614) 
nan

>  <PDB_ID>  (614) 
nan

>  <Standardized_SMILES>  (614) 
Cc1ccc(NC(=O)Nc2nnc(Sc3ncnc4cc(OCCCN5CCOCC5)ccc34)s2)cc1

>  <Name>  (614) 
nan

>  <Pocket>  (614) 
nan

>  <ATP_Site>  (614) 
nan

>  <Peripheral>  (614) 
nan

>  <Num_H_Atoms_ProtBoundConf>  (614) 
nan

>  <Num_Resolved_Atoms>  (614) 
nan

>  <Num_Not_Resolved_Atoms>  (614) 
nan

$$$$
CHEMBL2046466
     RDKit          3D

  0  0  0  0  0  0  0  0  0  0999 V3000
M  V30 BEGIN CTAB
M  V30 COUNTS 46 49 0 0 0
M  V30 BEGIN ATOM
M  V30 1 O 2.442552 0.643019 2.154530 0
M  V30 2 C 1.740097 -0.326826 1.767004 0
M  V30 3 N 1.125309 -0.007587 0.538676 0
M  V30 4 C 0.773572 0.745515 -0.608257 0
M  V30 5 C 1.921662 1.096480 -1.478516 0
M  V30 6 C 2.961928 1.998453 -0.931065 0
M  V30 7 C 2.274086 3.305130 -0.620600 0
M  V30 8 C 1.674119 3.775830 0.514396 0
M  V30 9 C 1.106371 5.029469 0.496450 0
M  V30 10 C 1.081307 5.881426 -0.580643 0
M  V30 11 Cl 0.325963 7.455250 -0.485839 0
M  V30 12 N 1.679697 5.401756 -1.697999 0
M  V30 13 C 2.248317 4.175675 -1.718672 0
M  V30 14 C 1.661315 -1.540889 2.563131 0
M  V30 15 C 2.685929 -1.763838 3.433497 0
M  V30 16 C 2.605682 -2.934405 4.184046 0
M  V30 17 N 1.589949 -3.831475 4.091794 0
M  V30 18 C 0.565130 -3.629031 3.236150 0
M  V30 19 N -0.557032 -4.294892 2.912107 0
M  V30 20 C -1.213084 -3.595965 1.972161 0
M  V30 21 C -2.467503 -3.834942 1.267924 0
M  V30 22 C -2.967596 -2.964945 0.294784 0
M  V30 23 C -4.159324 -3.194976 -0.358292 0
M  V30 24 C -4.898373 -4.318643 -0.053278 0
M  V30 25 F -6.078808 -4.504031 -0.728117 0
M  V30 26 C -4.441939 -5.220001 0.911670 0
M  V30 27 C -3.232086 -4.963774 1.558154 0
M  V30 28 N -0.474033 -2.503178 1.734648 0
M  V30 29 C 0.637654 -2.458401 2.479760 0
M  V30 30 H 0.596614 -0.942190 0.390045 0
M  V30 31 H 0.015238 0.212589 -1.212118 0
M  V30 32 H 0.208142 1.697106 -0.310087 0
M  V30 33 H 1.490811 1.604827 -2.397804 0
M  V30 34 H 2.428337 0.166954 -1.851143 0
M  V30 35 H 3.487643 1.688885 -0.034268 0
M  V30 36 H 3.773148 2.184216 -1.691646 0
M  V30 37 H 1.712604 3.093265 1.325766 0
M  V30 38 H 0.649521 5.340856 1.422062 0
M  V30 39 H 2.666406 3.989868 -2.701218 0
M  V30 40 H 3.498993 -1.070077 3.523175 0
M  V30 41 H 3.407757 -3.126854 4.878420 0
M  V30 42 H -0.892661 -5.197098 3.299889 0
M  V30 43 H -2.374128 -2.068826 0.049520 0
M  V30 44 H -4.440537 -2.441821 -1.098279 0
M  V30 45 H -5.033613 -6.104866 1.144639 0
M  V30 46 H -2.916841 -5.693505 2.301341 0
M  V30 END ATOM
M  V30 BEGIN BOND
M  V30 1 2 1 2
M  V30 2 1 2 3
M  V30 3 1 3 4
M  V30 4 1 4 5
M  V30 5 1 5 6
M  V30 6 1 6 7
M  V30 7 2 7 8
M  V30 8 1 8 9
M  V30 9 2 9 10
M  V30 10 1 10 11
M  V30 11 1 10 12
M  V30 12 2 12 13
M  V30 13 1 2 14
M  V30 14 2 14 15
M  V30 15 1 15 16
M  V30 16 2 16 17
M  V30 17 1 17 18
M  V30 18 1 18 19
M  V30 19 1 19 20
M  V30 20 1 20 21
M  V30 21 2 21 22
M  V30 22 1 22 23
M  V30 23 2 23 24
M  V30 24 1 24 25
M  V30 25 1 24 26
M  V30 26 2 26 27
M  V30 27 2 20 28
M  V30 28 1 28 29
M  V30 29 1 13 7
M  V30 30 1 29 14
M  V30 31 2 29 18
M  V30 32 1 27 21
M  V30 33 1 3 30
M  V30 34 1 4 31
M  V30 35 1 4 32
M  V30 36 1 5 33
M  V30 37 1 5 34
M  V30 38 1 6 35
M  V30 39 1 6 36
M  V30 40 1 8 37
M  V30 41 1 9 38
M  V30 42 1 13 39
M  V30 43 1 15 40
M  V30 44 1 16 41
M  V30 45 1 19 42
M  V30 46 1 22 43
M  V30 47 1 23 44
M  V30 48 1 26 45
M  V30 49 1 27 46
M  V30 END BOND
M  V30 END CTAB
M  END
>  <Dataset>  (615) 
ChEMBL_Kinases

>  <Ligand_Instance>  (615) 
nan

>  <PDB_ID>  (615) 
nan

>  <Standardized_SMILES>  (615) 
O=C(NCCCc1ccc(Cl)nc1)c1ccnc2[nH]c(-c3ccc(F)cc3)nc12

>  <Name>  (615) 
nan

>  <Pocket>  (615) 
nan

>  <ATP_Site>  (615) 
nan

>  <Peripheral>  (615) 
nan

>  <Num_H_Atoms_ProtBoundConf>  (615) 
nan

>  <Num_Resolved_Atoms>  (615) 
nan

>  <Num_Not_Resolved_Atoms>  (615) 
nan

$$$$
CHEMBL204600
     RDKit          3D

  0  0  0  0  0  0  0  0  0  0999 V3000
M  V30 BEGIN CTAB
M  V30 COUNTS 51 54 0 0 0
M  V30 BEGIN ATOM
M  V30 1 N -4.307097 -3.864590 0.735298 0
M  V30 2 C -2.893233 -3.976605 0.797308 0
M  V30 3 C -1.900196 -3.049695 0.622289 0
M  V30 4 C -2.127433 -1.655209 0.298134 0
M  V30 5 O -3.364574 -1.363449 0.128372 0
M  V30 6 C -1.230764 -0.538182 0.129195 0
M  V30 7 C -1.649979 0.471542 -0.742634 0
M  V30 8 C -0.855131 1.601261 -0.976867 0
M  V30 9 C 0.360279 1.712855 -0.333233 0
M  V30 10 C 1.174521 2.871117 -0.583127 0
M  V30 11 C 1.867543 3.853124 -0.794352 0
M  V30 12 C 2.727987 5.032054 -1.062572 0
M  V30 13 N 3.770174 5.136910 -0.053983 0
M  V30 14 C 3.197220 5.481956 1.242499 0
M  V30 15 C 4.320342 5.604735 2.241199 0
M  V30 16 O 5.560384 5.268138 1.744531 0
M  V30 17 C 5.617818 4.074331 1.062337 0
M  V30 18 C 4.440489 3.860838 0.139027 0
M  V30 19 C 0.826792 0.748453 0.538987 0
M  V30 20 C -0.007313 -0.335987 0.722280 0
M  V30 21 C -0.694971 -3.689374 0.793786 0
M  V30 22 N -0.953261 -5.000457 1.072082 0
M  V30 23 N -2.263290 -5.159030 1.071224 0
M  V30 24 C -2.884085 -6.411575 1.324708 0
M  V30 25 C -3.713534 -6.807101 2.353603 0
M  V30 26 C -4.204221 -8.081584 2.400430 0
M  V30 27 C -3.868904 -8.983092 1.411667 0
M  V30 28 F -4.363332 -10.236305 1.474729 0
M  V30 29 C -3.038549 -8.643431 0.351362 0
M  V30 30 C -2.548856 -7.333457 0.324961 0
M  V30 31 H -5.049527 -4.009292 1.458001 0
M  V30 32 H -4.577488 -3.580630 -0.249851 0
M  V30 33 H -2.579484 0.417047 -1.254551 0
M  V30 34 H -1.179833 2.375541 -1.646317 0
M  V30 35 H 2.080971 5.905977 -1.007336 0
M  V30 36 H 3.216604 4.889476 -2.036579 0
M  V30 37 H 2.672986 6.468410 1.101120 0
M  V30 38 H 2.482332 4.701315 1.584288 0
M  V30 39 H 4.077904 5.032714 3.180750 0
M  V30 40 H 4.402372 6.696168 2.523988 0
M  V30 41 H 5.744958 3.222214 1.761705 0
M  V30 42 H 6.535834 4.123784 0.426125 0
M  V30 43 H 4.721755 3.357506 -0.798197 0
M  V30 44 H 3.737468 3.177593 0.685582 0
M  V30 45 H 1.772308 0.802890 1.060408 0
M  V30 46 H 0.336714 -1.089550 1.404249 0
M  V30 47 H 0.317284 -3.332764 0.738247 0
M  V30 48 H -3.896587 -6.005954 3.060834 0
M  V30 49 H -4.849667 -8.336693 3.229681 0
M  V30 50 H -2.802519 -9.379979 -0.400383 0
M  V30 51 H -1.911509 -7.150671 -0.530343 0
M  V30 END ATOM
M  V30 BEGIN BOND
M  V30 1 1 1 2
M  V30 2 2 2 3
M  V30 3 1 3 4
M  V30 4 2 4 5
M  V30 5 1 4 6
M  V30 6 2 6 7
M  V30 7 1 7 8
M  V30 8 2 8 9
M  V30 9 1 9 10
M  V30 10 3 10 11
M  V30 11 1 11 12
M  V30 12 1 12 13
M  V30 13 1 13 14
M  V30 14 1 14 15
M  V30 15 1 15 16
M  V30 16 1 16 17
M  V30 17 1 17 18
M  V30 18 1 9 19
M  V30 19 2 19 20
M  V30 20 1 3 21
M  V30 21 2 21 22
M  V30 22 1 22 23
M  V30 23 1 23 24
M  V30 24 2 24 25
M  V30 25 1 25 26
M  V30 26 2 26 27
M  V30 27 1 27 28
M  V30 28 1 27 29
M  V30 29 2 29 30
M  V30 30 1 23 2
M  V30 31 1 30 24
M  V30 32 1 20 6
M  V30 33 1 18 13
M  V30 34 1 1 31
M  V30 35 1 1 32
M  V30 36 1 7 33
M  V30 37 1 8 34
M  V30 38 1 12 35
M  V30 39 1 12 36
M  V30 40 1 14 37
M  V30 41 1 14 38
M  V30 42 1 15 39
M  V30 43 1 15 40
M  V30 44 1 17 41
M  V30 45 1 17 42
M  V30 46 1 18 43
M  V30 47 1 18 44
M  V30 48 1 19 45
M  V30 49 1 20 46
M  V30 50 1 21 47
M  V30 51 1 25 48
M  V30 52 1 26 49
M  V30 53 1 29 50
M  V30 54 1 30 51
M  V30 END BOND
M  V30 END CTAB
M  END
>  <Dataset>  (616) 
ChEMBL_Kinases

>  <Ligand_Instance>  (616) 
nan

>  <PDB_ID>  (616) 
nan

>  <Standardized_SMILES>  (616) 
Nc1c(C(=O)c2ccc(C#CCN3CCOCC3)cc2)cnn1-c1ccc(F)cc1

>  <Name>  (616) 
nan

>  <Pocket>  (616) 
nan

>  <ATP_Site>  (616) 
nan

>  <Peripheral>  (616) 
nan

>  <Num_H_Atoms_ProtBoundConf>  (616) 
nan

>  <Num_Resolved_Atoms>  (616) 
nan

>  <Num_Not_Resolved_Atoms>  (616) 
nan

$$$$
CHEMBL204575
     RDKit          3D

  0  0  0  0  0  0  0  0  0  0999 V3000
M  V30 BEGIN CTAB
M  V30 COUNTS 44 47 0 0 0
M  V30 BEGIN ATOM
M  V30 1 Cl -2.434700 -7.128752 3.132690 0
M  V30 2 C -2.388696 -5.731763 2.003306 0
M  V30 3 C -1.662687 -6.187268 0.782831 0
M  V30 4 O -1.517099 -5.256743 -0.223749 0
M  V30 5 C -0.875226 -4.071817 -0.213682 0
M  V30 6 C -0.149553 -3.343482 0.695112 0
M  V30 7 C 0.412387 -2.125109 0.445746 0
M  V30 8 C 0.270818 -1.538913 -0.793770 0
M  V30 9 C 0.867917 -0.238059 -1.067424 0
M  V30 10 C 1.586818 0.496184 -0.183799 0
M  V30 11 C 2.147634 1.727649 -0.454269 0
M  V30 12 C 2.916900 2.472335 0.549837 0
M  V30 13 C 4.237220 2.914194 0.654339 0
M  V30 14 N 4.353792 3.556170 1.830823 0
M  V30 15 N 3.203463 3.555169 2.483114 0
M  V30 16 C 2.301421 2.889591 1.707680 0
M  V30 17 C 0.948026 2.722084 2.153418 0
M  V30 18 C 0.635737 2.034729 3.309934 0
M  V30 19 C -0.654035 1.849677 3.776176 0
M  V30 20 C -1.657119 2.411610 2.992315 0
M  V30 21 C -1.329973 3.097917 1.835584 0
M  V30 22 N -0.056102 3.249294 1.426096 0
M  V30 23 C 1.967644 2.264354 -1.725416 0
M  V30 24 C 1.233674 1.503487 -2.611244 0
M  V30 25 N 0.705321 0.306965 -2.303490 0
M  V30 26 C -0.440923 -2.213718 -1.744241 0
M  V30 27 C -1.007642 -3.461797 -1.463925 0
M  V30 28 H -3.436778 -5.439482 1.770951 0
M  V30 29 H -1.919036 -4.910500 2.555842 0
M  V30 30 H -0.697249 -6.629380 1.133727 0
M  V30 31 H -2.209486 -7.073617 0.342703 0
M  V30 32 H -0.060486 -3.849266 1.643815 0
M  V30 33 H 0.955466 -1.673309 1.263016 0
M  V30 34 H 1.751690 0.132451 0.794452 0
M  V30 35 H 4.916461 2.694298 -0.157692 0
M  V30 36 H 5.272352 3.973224 2.115544 0
M  V30 37 H 1.446827 1.599893 3.911707 0
M  V30 38 H -0.861870 1.304299 4.688746 0
M  V30 39 H -2.685273 2.316292 3.279143 0
M  V30 40 H -2.094684 3.543268 1.210466 0
M  V30 41 H 2.380621 3.228798 -2.008650 0
M  V30 42 H 1.076259 1.904827 -3.623743 0
M  V30 43 H -0.521554 -1.708373 -2.700537 0
M  V30 44 H -1.530394 -3.838228 -2.335896 0
M  V30 END ATOM
M  V30 BEGIN BOND
M  V30 1 1 1 2
M  V30 2 1 2 3
M  V30 3 1 3 4
M  V30 4 1 4 5
M  V30 5 2 5 6
M  V30 6 1 6 7
M  V30 7 2 7 8
M  V30 8 1 8 9
M  V30 9 2 9 10
M  V30 10 1 10 11
M  V30 11 1 11 12
M  V30 12 2 12 13
M  V30 13 1 13 14
M  V30 14 1 14 15
M  V30 15 2 15 16
M  V30 16 1 16 17
M  V30 17 2 17 18
M  V30 18 1 18 19
M  V30 19 2 19 20
M  V30 20 1 20 21
M  V30 21 2 21 22
M  V30 22 2 11 23
M  V30 23 1 23 24
M  V30 24 2 24 25
M  V30 25 1 8 26
M  V30 26 2 26 27
M  V30 27 1 27 5
M  V30 28 1 25 9
M  V30 29 1 16 12
M  V30 30 1 22 17
M  V30 31 1 2 28
M  V30 32 1 2 29
M  V30 33 1 3 30
M  V30 34 1 3 31
M  V30 35 1 6 32
M  V30 36 1 7 33
M  V30 37 1 10 34
M  V30 38 1 13 35
M  V30 39 1 14 36
M  V30 40 1 18 37
M  V30 41 1 19 38
M  V30 42 1 20 39
M  V30 43 1 21 40
M  V30 44 1 23 41
M  V30 45 1 24 42
M  V30 46 1 26 43
M  V30 47 1 27 44
M  V30 END BOND
M  V30 END CTAB
M  END
>  <Dataset>  (617) 
ChEMBL_Kinases

>  <Ligand_Instance>  (617) 
nan

>  <PDB_ID>  (617) 
nan

>  <Standardized_SMILES>  (617) 
ClCCOc1ccc(-c2cc(-c3c[nH]nc3-c3ccccn3)ccn2)cc1

>  <Name>  (617) 
nan

>  <Pocket>  (617) 
nan

>  <ATP_Site>  (617) 
nan

>  <Peripheral>  (617) 
nan

>  <Num_H_Atoms_ProtBoundConf>  (617) 
nan

>  <Num_Resolved_Atoms>  (617) 
nan

>  <Num_Not_Resolved_Atoms>  (617) 
nan

$$$$
CHEMBL204012
     RDKit          3D

  0  0  0  0  0  0  0  0  0  0999 V3000
M  V30 BEGIN CTAB
M  V30 COUNTS 53 56 0 0 0
M  V30 BEGIN ATOM
M  V30 1 C -1.574844 -1.425595 4.054694 0
M  V30 2 N -0.561422 -1.690121 3.053287 0
M  V30 3 C 0.649911 -1.146209 3.025754 0
M  V30 4 C 1.310830 -1.646761 1.924697 0
M  V30 5 C 2.647472 -1.452926 1.349377 0
M  V30 6 C 3.609890 -0.618214 2.060561 0 CFG=2
M  V30 7 N 3.911267 -1.093767 3.411246 0
M  V30 8 C 3.582044 0.856144 1.963629 0
M  V30 9 O 3.327451 1.432583 0.761928 0
M  V30 10 C 2.401004 1.571682 -0.164304 0
M  V30 11 C 3.004560 2.353467 -1.171877 0
M  V30 12 N 2.384413 2.743566 -2.336323 0
M  V30 13 C 1.089612 2.336788 -2.517451 0
M  V30 14 C 0.434341 1.574463 -1.581078 0
M  V30 15 C -0.943892 1.133685 -1.739862 0
M  V30 16 C -1.657882 0.432931 -0.881813 0
M  V30 17 C -3.038154 0.011364 -1.080233 0
M  V30 18 C -3.803764 0.249632 -2.201313 0
M  V30 19 C -5.096423 -0.131598 -2.386036 0
M  V30 20 N -5.708318 -0.813799 -1.380068 0
M  V30 21 C -5.005349 -1.073919 -0.260785 0
M  V30 22 C -3.696696 -0.685855 -0.078248 0
M  V30 23 C 1.095392 1.209043 -0.432533 0
M  V30 24 C 0.440469 -2.525287 1.278708 0
M  V30 25 C 0.481824 -3.334137 0.150909 0
M  V30 26 C -0.569223 -4.122707 -0.255625 0
M  V30 27 C -1.740313 -4.134622 0.471873 0
M  V30 28 C -1.786770 -3.333518 1.592241 0
M  V30 29 C -0.723406 -2.527035 2.015009 0
M  V30 30 H -1.643732 -0.328509 4.234656 0
M  V30 31 H -2.595349 -1.741186 3.730139 0
M  V30 32 H -1.372614 -1.926096 5.022325 0
M  V30 33 H 1.121388 -0.446178 3.680941 0
M  V30 34 H 3.112113 -2.493317 1.267011 0
M  V30 35 H 2.544949 -1.138921 0.301729 0
M  V30 36 H 4.613548 -0.878855 1.544768 0
M  V30 37 H 3.721607 -0.423378 4.154783 0
M  V30 38 H 3.523198 -2.047152 3.513995 0
M  V30 39 H 4.619717 1.201618 2.320023 0
M  V30 40 H 2.873686 1.324457 2.712420 0
M  V30 41 H 4.003938 2.789755 -1.257345 0
M  V30 42 H 0.499487 2.574260 -3.379758 0
M  V30 43 H -1.437033 1.412107 -2.664600 0
M  V30 44 H -1.174005 0.158619 0.029078 0
M  V30 45 H -3.337870 0.790589 -3.016473 0
M  V30 46 H -5.626241 0.098187 -3.300584 0
M  V30 47 H -5.483434 -1.624213 0.560462 0
M  V30 48 H -3.205911 -0.929833 0.844450 0
M  V30 49 H 0.737551 0.638154 0.383633 0
M  V30 50 H 1.384310 -3.344354 -0.436349 0
M  V30 51 H -0.460301 -4.730806 -1.152412 0
M  V30 52 H -2.589045 -4.744951 0.178703 0
M  V30 53 H -2.707918 -3.353255 2.149647 0
M  V30 END ATOM
M  V30 BEGIN BOND
M  V30 1 1 1 2
M  V30 2 1 2 3
M  V30 3 2 3 4
M  V30 4 1 4 5
M  V30 5 1 5 6
M  V30 6 1 6 7
M  V30 7 1 6 8
M  V30 8 1 8 9
M  V30 9 1 9 10
M  V30 10 2 10 11
M  V30 11 1 11 12
M  V30 12 2 12 13
M  V30 13 1 13 14
M  V30 14 1 14 15
M  V30 15 2 15 16
M  V30 16 1 16 17
M  V30 17 2 17 18
M  V30 18 1 18 19
M  V30 19 2 19 20
M  V30 20 1 20 21
M  V30 21 2 21 22
M  V30 22 2 14 23
M  V30 23 1 4 24
M  V30 24 2 24 25
M  V30 25 1 25 26
M  V30 26 2 26 27
M  V30 27 1 27 28
M  V30 28 2 28 29
M  V30 29 1 29 2
M  V30 30 1 23 10
M  V30 31 1 29 24
M  V30 32 1 22 17
M  V30 33 1 1 30
M  V30 34 1 1 31
M  V30 35 1 1 32
M  V30 36 1 3 33
M  V30 37 1 5 34
M  V30 38 1 5 35
M  V30 39 1 6 36 CFG=3
M  V30 40 1 7 37
M  V30 41 1 7 38
M  V30 42 1 8 39
M  V30 43 1 8 40
M  V30 44 1 11 41
M  V30 45 1 13 42
M  V30 46 1 15 43
M  V30 47 1 16 44
M  V30 48 1 18 45
M  V30 49 1 19 46
M  V30 50 1 21 47
M  V30 51 1 22 48
M  V30 52 1 23 49
M  V30 53 1 25 50
M  V30 54 1 26 51
M  V30 55 1 27 52
M  V30 56 1 28 53
M  V30 END BOND
M  V30 END CTAB
M  END
>  <Dataset>  (618) 
ChEMBL_Kinases

>  <Ligand_Instance>  (618) 
nan

>  <PDB_ID>  (618) 
nan

>  <Standardized_SMILES>  (618) 
Cn1cc(C[C@H](N)COc2cncc(/C=C/c3ccncc3)c2)c2ccccc21

>  <Name>  (618) 
nan

>  <Pocket>  (618) 
nan

>  <ATP_Site>  (618) 
nan

>  <Peripheral>  (618) 
nan

>  <Num_H_Atoms_ProtBoundConf>  (618) 
nan

>  <Num_Resolved_Atoms>  (618) 
nan

>  <Num_Not_Resolved_Atoms>  (618) 
nan

$$$$
CHEMBL204054
     RDKit          3D

  0  0  0  0  0  0  0  0  0  0999 V3000
M  V30 BEGIN CTAB
M  V30 COUNTS 38 41 0 0 0
M  V30 BEGIN ATOM
M  V30 1 Br 2.850480 -2.507883 5.369874 0
M  V30 2 C 1.670319 -3.209727 4.045893 0
M  V30 3 C 1.117577 -4.443805 4.308799 0
M  V30 4 C 0.270247 -4.898162 3.303754 0
M  V30 5 C 0.008378 -4.169723 2.142009 0
M  V30 6 C 0.623823 -2.924029 1.974532 0
M  V30 7 C 0.328034 -2.212988 0.737597 0
M  V30 8 C 0.842722 -0.985381 0.395163 0
M  V30 9 C 0.567290 -0.322515 -0.781390 0
M  V30 10 N 1.089877 0.937464 -1.125733 0
M  V30 11 C 0.775804 2.344464 -1.166940 0
M  V30 12 C 0.384747 2.900788 0.146366 0
M  V30 13 C -0.974886 2.816956 0.374711 0
M  V30 14 C -1.574009 3.271718 1.525354 0
M  V30 15 N -0.772185 3.829616 2.475986 0
M  V30 16 C 0.550889 3.930622 2.295963 0
M  V30 17 C 1.140034 3.471525 1.139727 0
M  V30 18 N -0.284244 -1.010701 -1.600649 0
M  V30 19 N -0.690009 -0.555685 -2.799887 0
M  V30 20 C -1.521642 -1.462637 -3.357546 0
M  V30 21 C -1.607394 -2.492661 -2.446718 0
M  V30 22 C -0.830923 -2.207926 -1.346402 0
M  V30 23 N -0.488571 -2.749059 -0.172749 0
M  V30 24 C 1.474041 -2.419263 2.935631 0
M  V30 25 H 1.338707 -4.985315 5.214843 0
M  V30 26 H -0.210394 -5.878923 3.438630 0
M  V30 27 H -0.654473 -4.555288 1.384584 0
M  V30 28 H 1.516139 -0.490003 1.091173 0
M  V30 29 H 2.041802 0.606122 -1.448600 0
M  V30 30 H 1.684452 2.933717 -1.479467 0
M  V30 31 H 0.018854 2.605906 -1.957344 0
M  V30 32 H -1.710935 2.386942 -0.320701 0
M  V30 33 H -2.616542 3.246993 1.783200 0
M  V30 34 H 1.217181 4.367624 3.030166 0
M  V30 35 H 2.207449 3.501920 0.881686 0
M  V30 36 H -2.096978 -1.588159 -4.263188 0
M  V30 37 H -2.160853 -3.437960 -2.462115 0
M  V30 38 H 1.949914 -1.465717 2.815969 0
M  V30 END ATOM
M  V30 BEGIN BOND
M  V30 1 1 1 2
M  V30 2 2 2 3
M  V30 3 1 3 4
M  V30 4 2 4 5
M  V30 5 1 5 6
M  V30 6 1 6 7
M  V30 7 1 7 8
M  V30 8 2 8 9
M  V30 9 1 9 10
M  V30 10 1 10 11
M  V30 11 1 11 12
M  V30 12 2 12 13
M  V30 13 1 13 14
M  V30 14 2 14 15
M  V30 15 1 15 16
M  V30 16 2 16 17
M  V30 17 1 9 18
M  V30 18 1 18 19
M  V30 19 2 19 20
M  V30 20 1 20 21
M  V30 21 2 21 22
M  V30 22 1 22 23
M  V30 23 2 6 24
M  V30 24 1 24 2
M  V30 25 2 23 7
M  V30 26 1 17 12
M  V30 27 1 22 18
M  V30 28 1 3 25
M  V30 29 1 4 26
M  V30 30 1 5 27
M  V30 31 1 8 28
M  V30 32 1 10 29
M  V30 33 1 11 30
M  V30 34 1 11 31
M  V30 35 1 13 32
M  V30 36 1 14 33
M  V30 37 1 16 34
M  V30 38 1 17 35
M  V30 39 1 20 36
M  V30 40 1 21 37
M  V30 41 1 24 38
M  V30 END BOND
M  V30 END CTAB
M  END
>  <Dataset>  (619) 
ChEMBL_Kinases

>  <Ligand_Instance>  (619) 
nan

>  <PDB_ID>  (619) 
nan

>  <Standardized_SMILES>  (619) 
Brc1cccc(-c2cc(NCc3ccncc3)n3nccc3n2)c1

>  <Name>  (619) 
nan

>  <Pocket>  (619) 
nan

>  <ATP_Site>  (619) 
nan

>  <Peripheral>  (619) 
nan

>  <Num_H_Atoms_ProtBoundConf>  (619) 
nan

>  <Num_Resolved_Atoms>  (619) 
nan

>  <Num_Not_Resolved_Atoms>  (619) 
nan

$$$$
CHEMBL204059
     RDKit          3D

  0  0  0  0  0  0  0  0  0  0999 V3000
M  V30 BEGIN CTAB
M  V30 COUNTS 42 43 0 0 0
M  V30 BEGIN ATOM
M  V30 1 C -2.832840 -3.298521 -0.231224 0
M  V30 2 C -1.436110 -3.751404 -0.600826 0
M  V30 3 C -0.823247 -4.424732 0.575068 0
M  V30 4 C -0.619656 -2.608111 -1.147344 0 CFG=2
M  V30 5 N -1.320484 -2.115200 -2.344146 0
M  V30 6 C 0.783731 -2.980055 -1.455679 0
M  V30 7 O 1.548384 -1.949069 -1.941933 0
M  V30 8 C 1.915815 -0.750606 -1.391852 0
M  V30 9 C 2.694645 -0.102453 -2.368471 0
M  V30 10 N 3.244495 1.136231 -2.172138 0
M  V30 11 C 3.046554 1.779348 -1.007748 0
M  V30 12 C 2.283765 1.167202 -0.025028 0
M  V30 13 C 2.023544 1.798949 1.263476 0
M  V30 14 C 1.336401 1.370547 2.287679 0
M  V30 15 C 1.126029 2.071748 3.545432 0
M  V30 16 C 1.622040 3.303281 3.853077 0
M  V30 17 C 1.385937 3.916283 5.067052 0
M  V30 18 N 0.647372 3.311162 6.002758 0
M  V30 19 C 0.127320 2.079359 5.747603 0
M  V30 20 C 0.370613 1.481930 4.535508 0
M  V30 21 C 1.727640 -0.077060 -0.213399 0
M  V30 22 H -3.289894 -4.068084 0.437446 0
M  V30 23 H -2.729874 -2.360450 0.333586 0
M  V30 24 H -3.487831 -3.135405 -1.108707 0
M  V30 25 H -1.571550 -4.526542 -1.403954 0
M  V30 26 H -0.508218 -5.484667 0.353235 0
M  V30 27 H 0.034810 -3.922556 1.034869 0
M  V30 28 H -1.565210 -4.556129 1.410933 0
M  V30 29 H -0.714027 -1.786733 -0.420462 0
M  V30 30 H -1.533217 -1.115412 -2.312354 0
M  V30 31 H -2.049555 -2.756068 -2.667185 0
M  V30 32 H 0.751825 -3.775454 -2.233204 0
M  V30 33 H 1.258409 -3.341133 -0.517043 0
M  V30 34 H 2.996454 -0.412683 -3.383612 0
M  V30 35 H 3.444437 2.757217 -0.773580 0
M  V30 36 H 2.475566 2.794955 1.399798 0
M  V30 37 H 0.896781 0.394049 2.146112 0
M  V30 38 H 2.223936 3.827528 3.125830 0
M  V30 39 H 1.783206 4.902098 5.312825 0
M  V30 40 H -0.474388 1.583390 6.506530 0
M  V30 41 H -0.066408 0.489066 4.369044 0
M  V30 42 H 1.137696 -0.658363 0.443741 0
M  V30 END ATOM
M  V30 BEGIN BOND
M  V30 1 1 1 2
M  V30 2 1 2 3
M  V30 3 1 2 4
M  V30 4 1 4 5
M  V30 5 1 4 6
M  V30 6 1 6 7
M  V30 7 1 7 8
M  V30 8 2 8 9
M  V30 9 1 9 10
M  V30 10 2 10 11
M  V30 11 1 11 12
M  V30 12 1 12 13
M  V30 13 2 13 14
M  V30 14 1 14 15
M  V30 15 2 15 16
M  V30 16 1 16 17
M  V30 17 2 17 18
M  V30 18 1 18 19
M  V30 19 2 19 20
M  V30 20 2 12 21
M  V30 21 1 21 8
M  V30 22 1 20 15
M  V30 23 1 1 22
M  V30 24 1 1 23
M  V30 25 1 1 24
M  V30 26 1 2 25
M  V30 27 1 3 26
M  V30 28 1 3 27
M  V30 29 1 3 28
M  V30 30 1 4 29 CFG=1
M  V30 31 1 5 30
M  V30 32 1 5 31
M  V30 33 1 6 32
M  V30 34 1 6 33
M  V30 35 1 9 34
M  V30 36 1 11 35
M  V30 37 1 13 36
M  V30 38 1 14 37
M  V30 39 1 16 38
M  V30 40 1 17 39
M  V30 41 1 19 40
M  V30 42 1 20 41
M  V30 43 1 21 42
M  V30 END BOND
M  V30 END CTAB
M  END
>  <Dataset>  (620) 
ChEMBL_Kinases

>  <Ligand_Instance>  (620) 
nan

>  <PDB_ID>  (620) 
nan

>  <Standardized_SMILES>  (620) 
CC(C)[C@H](N)COc1cncc(/C=C/c2ccncc2)c1

>  <Name>  (620) 
nan

>  <Pocket>  (620) 
nan

>  <ATP_Site>  (620) 
nan

>  <Peripheral>  (620) 
nan

>  <Num_H_Atoms_ProtBoundConf>  (620) 
nan

>  <Num_Resolved_Atoms>  (620) 
nan

>  <Num_Not_Resolved_Atoms>  (620) 
nan

$$$$
CHEMBL204063
     RDKit          3D

  0  0  0  0  0  0  0  0  0  0999 V3000
M  V30 BEGIN CTAB
M  V30 COUNTS 51 55 0 0 0
M  V30 BEGIN ATOM
M  V30 1 C -0.269752 -5.180060 3.076829 0
M  V30 2 C 0.620923 -4.332035 2.244154 0
M  V30 3 C 1.944922 -4.149005 2.656152 0
M  V30 4 C 2.747402 -3.355939 1.861595 0
M  V30 5 C 2.253358 -2.774898 0.713730 0
M  V30 6 C 0.941533 -2.977212 0.337622 0
M  V30 7 C 0.517510 -2.317936 -0.893543 0
M  V30 8 N 0.084835 -2.895459 -2.044414 0
M  V30 9 N -0.211239 -1.989684 -2.942359 0
M  V30 10 C 0.013460 -0.763111 -2.423453 0
M  V30 11 C 0.472549 -0.942597 -1.134966 0
M  V30 12 C 0.848110 0.085015 -0.180753 0
M  V30 13 C 1.908120 0.883000 -0.598541 0
M  V30 14 C 2.358885 1.908524 0.239298 0
M  V30 15 C 1.764275 2.126002 1.457480 0
M  V30 16 N 1.902785 2.959211 2.495124 0
M  V30 17 C 0.995222 2.674319 3.447934 0
M  V30 18 N 0.220433 1.620353 3.046287 0
M  V30 19 C -0.813660 1.202089 3.934500 0
M  V30 20 C -2.111511 1.944760 3.808818 0
M  V30 21 C -2.688230 1.774132 2.438441 0
M  V30 22 O -2.962497 0.456533 2.157753 0
M  V30 23 C 0.718524 1.323970 1.846695 0
M  V30 24 C 0.253160 0.305179 1.042079 0
M  V30 25 C -0.336835 0.249179 -3.481471 0
M  V30 26 C -1.430525 -0.536864 -4.211586 0
M  V30 27 C -0.702612 -1.881227 -4.314521 0
M  V30 28 N 0.180114 -3.758922 1.136314 0
M  V30 29 H -0.579993 -4.687583 4.017655 0
M  V30 30 H 0.184527 -6.183841 3.261322 0
M  V30 31 H -1.203378 -5.376323 2.511465 0
M  V30 32 H 2.331849 -4.605424 3.557180 0
M  V30 33 H 3.790223 -3.175858 2.131382 0
M  V30 34 H 2.937377 -2.154982 0.122473 0
M  V30 35 H 2.439850 0.792351 -1.535049 0
M  V30 36 H 3.173570 2.588778 0.017755 0
M  V30 37 H 1.042141 3.315346 4.337409 0
M  V30 38 H -1.065495 0.117169 3.726824 0
M  V30 39 H -0.443097 1.178698 4.987800 0
M  V30 40 H -1.961853 3.046311 4.010819 0
M  V30 41 H -2.784688 1.508798 4.601834 0
M  V30 42 H -3.600521 2.432447 2.352212 0
M  V30 43 H -1.901730 2.160369 1.727303 0
M  V30 44 H -3.495576 0.312870 1.358619 0
M  V30 45 H -0.545214 -0.342459 1.306106 0
M  V30 46 H -0.676267 1.192562 -3.065620 0
M  V30 47 H 0.542586 0.295352 -4.126486 0
M  V30 48 H -1.675241 -0.122882 -5.193364 0
M  V30 49 H -2.312839 -0.654258 -3.540479 0
M  V30 50 H 0.185662 -1.716752 -4.951808 0
M  V30 51 H -1.353450 -2.704713 -4.605891 0
M  V30 END ATOM
M  V30 BEGIN BOND
M  V30 1 1 1 2
M  V30 2 2 2 3
M  V30 3 1 3 4
M  V30 4 2 4 5
M  V30 5 1 5 6
M  V30 6 1 6 7
M  V30 7 2 7 8
M  V30 8 1 8 9
M  V30 9 1 9 10
M  V30 10 2 10 11
M  V30 11 1 11 12
M  V30 12 2 12 13
M  V30 13 1 13 14
M  V30 14 2 14 15
M  V30 15 1 15 16
M  V30 16 2 16 17
M  V30 17 1 17 18
M  V30 18 1 18 19
M  V30 19 1 19 20
M  V30 20 1 20 21
M  V30 21 1 21 22
M  V30 22 1 18 23
M  V30 23 2 23 24
M  V30 24 1 10 25
M  V30 25 1 25 26
M  V30 26 1 26 27
M  V30 27 2 6 28
M  V30 28 1 28 2
M  V30 29 1 11 7
M  V30 30 1 24 12
M  V30 31 1 27 9
M  V30 32 1 23 15
M  V30 33 1 1 29
M  V30 34 1 1 30
M  V30 35 1 1 31
M  V30 36 1 3 32
M  V30 37 1 4 33
M  V30 38 1 5 34
M  V30 39 1 13 35
M  V30 40 1 14 36
M  V30 41 1 17 37
M  V30 42 1 19 38
M  V30 43 1 19 39
M  V30 44 1 20 40
M  V30 45 1 20 41
M  V30 46 1 21 42
M  V30 47 1 21 43
M  V30 48 1 22 44
M  V30 49 1 24 45
M  V30 50 1 25 46
M  V30 51 1 25 47
M  V30 52 1 26 48
M  V30 53 1 26 49
M  V30 54 1 27 50
M  V30 55 1 27 51
M  V30 END BOND
M  V30 END CTAB
M  END
>  <Dataset>  (621) 
ChEMBL_Kinases

>  <Ligand_Instance>  (621) 
nan

>  <PDB_ID>  (621) 
nan

>  <Standardized_SMILES>  (621) 
Cc1cccc(-c2nn3c(c2-c2ccc4ncn(CCCO)c4c2)CCC3)n1

>  <Name>  (621) 
nan

>  <Pocket>  (621) 
nan

>  <ATP_Site>  (621) 
nan

>  <Peripheral>  (621) 
nan

>  <Num_H_Atoms_ProtBoundConf>  (621) 
nan

>  <Num_Resolved_Atoms>  (621) 
nan

>  <Num_Not_Resolved_Atoms>  (621) 
nan

$$$$
CHEMBL204134
     RDKit          3D

  0  0  0  0  0  0  0  0  0  0999 V3000
M  V30 BEGIN CTAB
M  V30 COUNTS 66 66 0 0 0
M  V30 BEGIN ATOM
M  V30 1 C 1.260654 -3.274197 6.643142 0
M  V30 2 C 0.845919 -2.088886 5.755813 0
M  V30 3 C 0.978635 -0.872729 6.611988 0
M  V30 4 C 1.648016 -2.147297 4.540502 0
M  V30 5 C 1.514158 -1.164267 3.465366 0
M  V30 6 C 2.550325 -1.599452 2.387487 0
M  V30 7 C 2.548457 -0.713100 1.236657 0
M  V30 8 C 2.367003 -0.884280 -0.063602 0
M  V30 9 C 2.358739 -0.008192 -1.244185 0
M  V30 10 C 1.580691 -0.791159 -2.274924 0
M  V30 11 C 0.305177 -0.156839 -2.654070 0
M  V30 12 C 0.336994 1.096211 -3.027871 0
M  V30 13 C -0.925877 1.754160 -3.412300 0
M  V30 14 O -0.954506 2.972474 -3.784480 0
M  V30 15 O -2.129253 1.104364 -3.393006 0
M  V30 16 C -3.379963 1.625201 -3.734217 0
M  V30 17 C -3.804544 2.798572 -2.898998 0
M  V30 18 C -4.388992 0.511577 -3.420419 0
M  V30 19 C -3.544055 1.973106 -5.182775 0
M  V30 20 C 2.379089 -0.945829 -3.569262 0
M  V30 21 O 1.611215 -1.752105 -4.419500 0
M  V30 22 O 1.402913 -2.104654 -1.760534 0
M  V30 23 C 2.120569 -2.236082 -0.553539 0
M  V30 24 O 2.475044 -3.315566 -0.012567 0
M  V30 25 C 0.241439 -0.803319 2.858010 0
M  V30 26 C -0.623490 -1.744259 2.153406 0
M  V30 27 C -1.151732 -2.891009 2.956505 0
M  V30 28 C -1.900249 -0.994995 1.695974 0
M  V30 29 H 2.008422 -2.967871 7.403765 0
M  V30 30 H 1.757078 -4.068112 6.046013 0
M  V30 31 H 0.402403 -3.742951 7.140135 0
M  V30 32 H -0.224025 -2.242347 5.574435 0
M  V30 33 H 0.639890 -1.075902 7.650141 0
M  V30 34 H 2.000904 -0.465283 6.703004 0
M  V30 35 H 0.340859 -0.042280 6.241439 0
M  V30 36 H 1.698706 -3.173680 4.121475 0
M  V30 37 H 2.757212 -2.027842 4.881316 0
M  V30 38 H 1.985570 -0.167804 3.797192 0
M  V30 39 H 2.363178 -2.628078 2.121965 0
M  V30 40 H 3.571668 -1.556917 2.828681 0
M  V30 41 H 2.743220 0.333259 1.528508 0
M  V30 42 H 1.943203 0.990205 -1.056903 0
M  V30 43 H 3.393910 0.122024 -1.605203 0
M  V30 44 H -0.622882 -0.712357 -2.622708 0
M  V30 45 H 1.239666 1.695816 -3.076250 0
M  V30 46 H -4.882178 2.993464 -3.138334 0
M  V30 47 H -3.275092 3.731887 -3.117084 0
M  V30 48 H -3.803242 2.529434 -1.823337 0
M  V30 49 H -5.422298 0.862636 -3.537811 0
M  V30 50 H -4.137087 -0.368930 -4.067201 0
M  V30 51 H -4.142264 0.206033 -2.378363 0
M  V30 52 H -3.245217 3.006001 -5.448489 0
M  V30 53 H -4.629401 1.821058 -5.441243 0
M  V30 54 H -2.984459 1.271948 -5.859371 0
M  V30 55 H 2.577161 0.052407 -4.030336 0
M  V30 56 H 3.295738 -1.490970 -3.343242 0
M  V30 57 H 1.037277 -2.378847 -3.919397 0
M  V30 58 H -0.390097 -0.287698 3.640259 0
M  V30 59 H 0.449498 0.063839 2.150133 0
M  V30 60 H -0.118736 -2.166872 1.245495 0
M  V30 61 H -1.761957 -2.471002 3.809829 0
M  V30 62 H -0.410243 -3.564282 3.353589 0
M  V30 63 H -1.844364 -3.535258 2.347588 0
M  V30 64 H -2.478070 -1.718155 1.111143 0
M  V30 65 H -1.623357 -0.080185 1.142912 0
M  V30 66 H -2.376187 -0.668136 2.644892 0
M  V30 END ATOM
M  V30 BEGIN BOND
M  V30 1 1 1 2
M  V30 2 1 2 3
M  V30 3 1 2 4
M  V30 4 1 4 5
M  V30 5 1 5 6
M  V30 6 1 6 7
M  V30 7 2 7 8
M  V30 8 1 8 9
M  V30 9 1 9 10
M  V30 10 1 10 11
M  V30 11 2 11 12
M  V30 12 1 12 13
M  V30 13 2 13 14
M  V30 14 1 13 15
M  V30 15 1 15 16
M  V30 16 1 16 17
M  V30 17 1 16 18
M  V30 18 1 16 19
M  V30 19 1 10 20
M  V30 20 1 20 21
M  V30 21 1 10 22
M  V30 22 1 22 23
M  V30 23 2 23 24
M  V30 24 1 5 25
M  V30 25 1 25 26
M  V30 26 1 26 27
M  V30 27 1 26 28
M  V30 28 1 23 8
M  V30 29 1 1 29
M  V30 30 1 1 30
M  V30 31 1 1 31
M  V30 32 1 2 32
M  V30 33 1 3 33
M  V30 34 1 3 34
M  V30 35 1 3 35
M  V30 36 1 4 36
M  V30 37 1 4 37
M  V30 38 1 5 38
M  V30 39 1 6 39
M  V30 40 1 6 40
M  V30 41 1 7 41
M  V30 42 1 9 42
M  V30 43 1 9 43
M  V30 44 1 11 44
M  V30 45 1 12 45
M  V30 46 1 17 46
M  V30 47 1 17 47
M  V30 48 1 17 48
M  V30 49 1 18 49
M  V30 50 1 18 50
M  V30 51 1 18 51
M  V30 52 1 19 52
M  V30 53 1 19 53
M  V30 54 1 19 54
M  V30 55 1 20 55
M  V30 56 1 20 56
M  V30 57 1 21 57
M  V30 58 1 25 58
M  V30 59 1 25 59
M  V30 60 1 26 60
M  V30 61 1 27 61
M  V30 62 1 27 62
M  V30 63 1 27 63
M  V30 64 1 28 64
M  V30 65 1 28 65
M  V30 66 1 28 66
M  V30 END BOND
M  V30 END CTAB
M  END
>  <Dataset>  (622) 
ChEMBL_Kinases

>  <Ligand_Instance>  (622) 
nan

>  <PDB_ID>  (622) 
nan

>  <Standardized_SMILES>  (622) 
CC(C)CC(C/C=C1/CC(/C=C/C(=O)OC(C)(C)C)(CO)OC1=O)CC(C)C

>  <Name>  (622) 
nan

>  <Pocket>  (622) 
nan

>  <ATP_Site>  (622) 
nan

>  <Peripheral>  (622) 
nan

>  <Num_H_Atoms_ProtBoundConf>  (622) 
nan

>  <Num_Resolved_Atoms>  (622) 
nan

>  <Num_Not_Resolved_Atoms>  (622) 
nan

$$$$
CHEMBL204139
     RDKit          3D

  0  0  0  0  0  0  0  0  0  0999 V3000
M  V30 BEGIN CTAB
M  V30 COUNTS 38 42 0 0 0
M  V30 BEGIN ATOM
M  V30 1 C -3.765252 -2.389351 1.456552 0
M  V30 2 C -3.020001 -2.485831 0.276080 0
M  V30 3 C -1.654861 -2.301907 0.391134 0
M  V30 4 C -1.041352 -2.036235 1.597423 0
M  V30 5 C 0.406768 -1.868369 1.549351 0
M  V30 6 N 1.286465 -2.669640 2.185042 0
M  V30 7 N 2.510005 -2.262620 1.949656 0
M  V30 8 C 2.437106 -1.194406 1.159923 0
M  V30 9 C 1.114180 -0.904864 0.877634 0
M  V30 10 C 0.476508 0.125517 0.085400 0
M  V30 11 C 0.623046 0.358256 -1.273544 0
M  V30 12 C -0.067649 1.394744 -1.873032 0
M  V30 13 C -0.906030 2.209053 -1.144372 0
M  V30 14 N -1.683613 3.265497 -1.458493 0
M  V30 15 C -2.323525 3.724106 -0.366849 0
M  V30 16 N -1.936862 2.929433 0.673884 0
M  V30 17 C -1.073658 1.998249 0.228860 0
M  V30 18 C -0.371824 0.951749 0.816029 0
M  V30 19 C 3.795561 -0.675856 0.848572 0
M  V30 20 C 4.570891 -1.209078 2.044881 0
M  V30 21 C 3.896561 -2.557164 2.237874 0
M  V30 22 N -1.809116 -1.950878 2.724144 0
M  V30 23 C -3.136805 -2.119578 2.677777 0
M  V30 24 H -4.834163 -2.529525 1.387903 0
M  V30 25 H -3.537491 -2.695544 -0.648816 0
M  V30 26 H -1.105768 -2.385276 -0.557477 0
M  V30 27 H 1.287694 -0.310164 -1.778413 0
M  V30 28 H 0.060817 1.558821 -2.934099 0
M  V30 29 H -1.809098 3.710842 -2.412679 0
M  V30 30 H -3.016201 4.548646 -0.260513 0
M  V30 31 H -0.553841 0.853310 1.877543 0
M  V30 32 H 4.222543 -1.205808 -0.044395 0
M  V30 33 H 3.837298 0.409004 0.768911 0
M  V30 34 H 4.356057 -0.567977 2.938598 0
M  V30 35 H 5.640363 -1.305151 1.863182 0
M  V30 36 H 4.079863 -2.983120 3.225896 0
M  V30 37 H 4.242805 -3.202858 1.404658 0
M  V30 38 H -3.722704 -2.047161 3.587954 0
M  V30 END ATOM
M  V30 BEGIN BOND
M  V30 1 2 1 2
M  V30 2 1 2 3
M  V30 3 2 3 4
M  V30 4 1 4 5
M  V30 5 2 5 6
M  V30 6 1 6 7
M  V30 7 1 7 8
M  V30 8 2 8 9
M  V30 9 1 9 10
M  V30 10 2 10 11
M  V30 11 1 11 12
M  V30 12 2 12 13
M  V30 13 1 13 14
M  V30 14 1 14 15
M  V30 15 2 15 16
M  V30 16 1 16 17
M  V30 17 2 17 18
M  V30 18 1 8 19
M  V30 19 1 19 20
M  V30 20 1 20 21
M  V30 21 1 4 22
M  V30 22 2 22 23
M  V30 23 1 23 1
M  V30 24 1 9 5
M  V30 25 1 18 10
M  V30 26 1 21 7
M  V30 27 1 17 13
M  V30 28 1 1 24
M  V30 29 1 2 25
M  V30 30 1 3 26
M  V30 31 1 11 27
M  V30 32 1 12 28
M  V30 33 1 14 29
M  V30 34 1 15 30
M  V30 35 1 18 31
M  V30 36 1 19 32
M  V30 37 1 19 33
M  V30 38 1 20 34
M  V30 39 1 20 35
M  V30 40 1 21 36
M  V30 41 1 21 37
M  V30 42 1 23 38
M  V30 END BOND
M  V30 END CTAB
M  END
>  <Dataset>  (623) 
ChEMBL_Kinases

>  <Ligand_Instance>  (623) 
nan

>  <PDB_ID>  (623) 
nan

>  <Standardized_SMILES>  (623) 
c1ccc(-c2nn3c(c2-c2ccc4[nH]cnc4c2)CCC3)nc1

>  <Name>  (623) 
nan

>  <Pocket>  (623) 
nan

>  <ATP_Site>  (623) 
nan

>  <Peripheral>  (623) 
nan

>  <Num_H_Atoms_ProtBoundConf>  (623) 
nan

>  <Num_Resolved_Atoms>  (623) 
nan

>  <Num_Not_Resolved_Atoms>  (623) 
nan

$$$$
CHEMBL204158
     RDKit          3D

  0  0  0  0  0  0  0  0  0  0999 V3000
M  V30 BEGIN CTAB
M  V30 COUNTS 62 67 0 0 0
M  V30 BEGIN ATOM
M  V30 1 C 1.310081 -0.276327 5.864404 0
M  V30 2 C 1.495060 -1.580534 5.398276 0
M  V30 3 C 2.121147 -1.738743 4.166738 0
M  V30 4 C 2.569982 -0.707346 3.376852 0
M  V30 5 C 3.187190 -1.114574 2.144912 0
M  V30 6 N 4.284318 -1.860161 2.180677 0
M  V30 7 N 4.716886 -2.141495 0.949411 0
M  V30 8 C 3.879672 -1.563994 0.084724 0
M  V30 9 C 2.907374 -0.910951 0.814528 0
M  V30 10 C 1.757689 -0.124662 0.378847 0
M  V30 11 C 0.692936 -0.621396 -0.375400 0
M  V30 12 C -0.358084 0.193847 -0.748218 0
M  V30 13 C -0.333755 1.514441 -0.357832 0
M  V30 14 C 0.700380 2.041677 0.386834 0
M  V30 15 C 1.742482 1.208877 0.749518 0
M  V30 16 N 0.349957 3.333018 0.544242 0
M  V30 17 C -0.823872 3.568886 -0.067969 0
M  V30 18 N -1.281593 2.418970 -0.652230 0
M  V30 19 C -2.552005 2.458542 -1.339870 0
M  V30 20 C -3.746078 2.269702 -0.490103 0
M  V30 21 C -3.777071 0.944311 0.208865 0
M  V30 22 O -3.808432 -0.110454 -0.681306 0
M  V30 23 C -3.885140 -1.337014 -0.009582 0
M  V30 24 C -5.146504 -2.069732 -0.405413 0
M  V30 25 C -4.883902 -3.549402 -0.644360 0
M  V30 26 C -3.850101 -3.694510 -1.773857 0
M  V30 27 C -2.852630 -2.541115 -1.666531 0
M  V30 28 O -2.796932 -2.123854 -0.316638 0
M  V30 29 C 4.296691 -1.832410 -1.324697 0
M  V30 30 C 5.427374 -2.808624 -1.164001 0
M  V30 31 C 5.781472 -2.857639 0.299472 0
M  V30 32 N 2.370733 0.547425 3.866676 0
M  V30 33 C 1.770565 0.737450 5.050403 0
M  V30 34 H 0.826836 -0.122186 6.818215 0
M  V30 35 H 1.147691 -2.391491 6.008717 0
M  V30 36 H 2.216314 -2.783477 3.897203 0
M  V30 37 H 0.761895 -1.669671 -0.633840 0
M  V30 38 H -1.160719 -0.221128 -1.339086 0
M  V30 39 H 2.500803 1.729993 1.333627 0
M  V30 40 H -1.256561 4.559978 -0.042329 0
M  V30 41 H -2.570842 1.703057 -2.187346 0
M  V30 42 H -2.625140 3.432789 -1.907658 0
M  V30 43 H -3.954819 3.119336 0.196525 0
M  V30 44 H -4.656281 2.265947 -1.167510 0
M  V30 45 H -4.638334 0.877606 0.933792 0
M  V30 46 H -2.881858 0.780821 0.855182 0
M  V30 47 H -3.883720 -1.171281 1.102958 0
M  V30 48 H -5.863701 -2.024385 0.453270 0
M  V30 49 H -5.649925 -1.607084 -1.273673 0
M  V30 50 H -5.794256 -4.053661 -1.009968 0
M  V30 51 H -4.538399 -4.038556 0.276309 0
M  V30 52 H -3.328080 -4.645696 -1.619580 0
M  V30 53 H -4.381273 -3.688571 -2.737029 0
M  V30 54 H -1.846932 -2.825610 -2.011849 0
M  V30 55 H -3.255473 -1.682496 -2.241324 0
M  V30 56 H 4.691410 -0.928864 -1.814503 0
M  V30 57 H 3.443747 -2.281214 -1.867927 0
M  V30 58 H 6.307670 -2.533460 -1.813366 0
M  V30 59 H 5.088234 -3.809779 -1.534176 0
M  V30 60 H 5.842004 -3.912121 0.649071 0
M  V30 61 H 6.759209 -2.335453 0.512156 0
M  V30 62 H 1.633429 1.762206 5.400472 0
M  V30 END ATOM
M  V30 BEGIN BOND
M  V30 1 2 1 2
M  V30 2 1 2 3
M  V30 3 2 3 4
M  V30 4 1 4 5
M  V30 5 2 5 6
M  V30 6 1 6 7
M  V30 7 1 7 8
M  V30 8 2 8 9
M  V30 9 1 9 10
M  V30 10 2 10 11
M  V30 11 1 11 12
M  V30 12 2 12 13
M  V30 13 1 13 14
M  V30 14 2 14 15
M  V30 15 1 14 16
M  V30 16 2 16 17
M  V30 17 1 17 18
M  V30 18 1 18 19
M  V30 19 1 19 20
M  V30 20 1 20 21
M  V30 21 1 21 22
M  V30 22 1 22 23
M  V30 23 1 23 24
M  V30 24 1 24 25
M  V30 25 1 25 26
M  V30 26 1 26 27
M  V30 27 1 27 28
M  V30 28 1 8 29
M  V30 29 1 29 30
M  V30 30 1 30 31
M  V30 31 1 4 32
M  V30 32 2 32 33
M  V30 33 1 33 1
M  V30 34 1 9 5
M  V30 35 1 15 10
M  V30 36 1 28 23
M  V30 37 1 31 7
M  V30 38 1 18 13
M  V30 39 1 1 34
M  V30 40 1 2 35
M  V30 41 1 3 36
M  V30 42 1 11 37
M  V30 43 1 12 38
M  V30 44 1 15 39
M  V30 45 1 17 40
M  V30 46 1 19 41
M  V30 47 1 19 42
M  V30 48 1 20 43
M  V30 49 1 20 44
M  V30 50 1 21 45
M  V30 51 1 21 46
M  V30 52 1 23 47
M  V30 53 1 24 48
M  V30 54 1 24 49
M  V30 55 1 25 50
M  V30 56 1 25 51
M  V30 57 1 26 52
M  V30 58 1 26 53
M  V30 59 1 27 54
M  V30 60 1 27 55
M  V30 61 1 29 56
M  V30 62 1 29 57
M  V30 63 1 30 58
M  V30 64 1 30 59
M  V30 65 1 31 60
M  V30 66 1 31 61
M  V30 67 1 33 62
M  V30 END BOND
M  V30 END CTAB
M  END
>  <Dataset>  (624) 
ChEMBL_Kinases

>  <Ligand_Instance>  (624) 
nan

>  <PDB_ID>  (624) 
nan

>  <Standardized_SMILES>  (624) 
c1ccc(-c2nn3c(c2-c2ccc4c(c2)ncn4CCCOC2CCCCO2)CCC3)nc1

>  <Name>  (624) 
nan

>  <Pocket>  (624) 
nan

>  <ATP_Site>  (624) 
nan

>  <Peripheral>  (624) 
nan

>  <Num_H_Atoms_ProtBoundConf>  (624) 
nan

>  <Num_Resolved_Atoms>  (624) 
nan

>  <Num_Not_Resolved_Atoms>  (624) 
nan

$$$$
CHEMBL204170
     RDKit          3D

  0  0  0  0  0  0  0  0  0  0999 V3000
M  V30 BEGIN CTAB
M  V30 COUNTS 41 45 0 0 0
M  V30 BEGIN ATOM
M  V30 1 C 1.006042 -4.955960 0.427484 0
M  V30 2 N 2.118839 -4.043195 0.691392 0
M  V30 3 C 3.429091 -4.362385 0.746084 0
M  V30 4 N 4.107105 -3.253284 1.009147 0
M  V30 5 C 3.233860 -2.227187 1.122529 0
M  V30 6 C 3.407116 -0.884474 1.384739 0
M  V30 7 C 2.349214 -0.010946 1.453909 0
M  V30 8 C 1.068835 -0.481500 1.256192 0
M  V30 9 C -0.216242 0.208895 1.269889 0
M  V30 10 C -0.675223 1.206395 0.433640 0
M  V30 11 C 0.057381 1.799730 -0.678650 0
M  V30 12 C -0.457371 1.671817 -1.952763 0
M  V30 13 C 0.224858 2.232646 -3.037384 0
M  V30 14 C 1.410924 2.902951 -2.764349 0
M  V30 15 C 1.917571 3.023478 -1.472572 0
M  V30 16 N 1.212359 2.461032 -0.473398 0
M  V30 17 N -1.925177 1.543520 0.820774 0
M  V30 18 N -2.267270 0.791825 1.871960 0
M  V30 19 C -1.242784 -0.030003 2.165580 0
M  V30 20 C -1.626546 -0.860809 3.331354 0
M  V30 21 C -2.712027 -0.024488 3.976294 0
M  V30 22 C -3.386872 0.597480 2.774828 0
M  V30 23 C 0.891360 -1.844635 0.989860 0
M  V30 24 C 1.956166 -2.717908 0.921366 0
M  V30 25 H 0.461101 -5.125964 1.390231 0
M  V30 26 H 0.354271 -4.591387 -0.383232 0
M  V30 27 H 1.417187 -5.946480 0.129957 0
M  V30 28 H 3.768432 -5.388408 0.586605 0
M  V30 29 H 4.381548 -0.449172 1.549099 0
M  V30 30 H 2.356590 1.046438 1.650168 0
M  V30 31 H -1.369419 1.160942 -2.199581 0
M  V30 32 H -0.128880 2.165336 -4.059223 0
M  V30 33 H 2.019130 3.375922 -3.539105 0
M  V30 34 H 2.837109 3.540213 -1.240187 0
M  V30 35 H -0.770780 -0.960487 4.058542 0
M  V30 36 H -1.987995 -1.851147 3.028659 0
M  V30 37 H -3.404497 -0.650200 4.570502 0
M  V30 38 H -2.250230 0.786256 4.554190 0
M  V30 39 H -4.069870 -0.152147 2.345362 0
M  V30 40 H -3.879502 1.554470 3.031888 0
M  V30 41 H -0.062568 -2.353231 0.813301 0
M  V30 END ATOM
M  V30 BEGIN BOND
M  V30 1 1 1 2
M  V30 2 1 2 3
M  V30 3 2 3 4
M  V30 4 1 4 5
M  V30 5 2 5 6
M  V30 6 1 6 7
M  V30 7 2 7 8
M  V30 8 1 8 9
M  V30 9 1 9 10
M  V30 10 1 10 11
M  V30 11 2 11 12
M  V30 12 1 12 13
M  V30 13 2 13 14
M  V30 14 1 14 15
M  V30 15 2 15 16
M  V30 16 2 10 17
M  V30 17 1 17 18
M  V30 18 1 18 19
M  V30 19 1 19 20
M  V30 20 1 20 21
M  V30 21 1 21 22
M  V30 22 1 8 23
M  V30 23 2 23 24
M  V30 24 1 24 2
M  V30 25 1 24 5
M  V30 26 2 19 9
M  V30 27 1 16 11
M  V30 28 1 22 18
M  V30 29 1 1 25
M  V30 30 1 1 26
M  V30 31 1 1 27
M  V30 32 1 3 28
M  V30 33 1 6 29
M  V30 34 1 7 30
M  V30 35 1 12 31
M  V30 36 1 13 32
M  V30 37 1 14 33
M  V30 38 1 15 34
M  V30 39 1 20 35
M  V30 40 1 20 36
M  V30 41 1 21 37
M  V30 42 1 21 38
M  V30 43 1 22 39
M  V30 44 1 22 40
M  V30 45 1 23 41
M  V30 END BOND
M  V30 END CTAB
M  END
>  <Dataset>  (625) 
ChEMBL_Kinases

>  <Ligand_Instance>  (625) 
nan

>  <PDB_ID>  (625) 
nan

>  <Standardized_SMILES>  (625) 
Cn1cnc2ccc(-c3c(-c4ccccn4)nn4c3CCC4)cc21

>  <Name>  (625) 
nan

>  <Pocket>  (625) 
nan

>  <ATP_Site>  (625) 
nan

>  <Peripheral>  (625) 
nan

>  <Num_H_Atoms_ProtBoundConf>  (625) 
nan

>  <Num_Resolved_Atoms>  (625) 
nan

>  <Num_Not_Resolved_Atoms>  (625) 
nan

$$$$
CHEMBL204345
     RDKit          3D

  0  0  0  0  0  0  0  0  0  0999 V3000
M  V30 BEGIN CTAB
M  V30 COUNTS 33 35 0 0 0
M  V30 BEGIN ATOM
M  V30 1 N -2.008189 -0.850112 1.309730 0
M  V30 2 C -0.822321 -0.386264 0.668920 0
M  V30 3 C 0.472762 -0.852114 0.595485 0
M  V30 4 C 0.833674 -2.084343 1.274150 0
M  V30 5 O -0.085700 -2.710290 1.880444 0
M  V30 6 C 2.117512 -2.751052 1.382159 0
M  V30 7 C 2.128163 -4.139719 1.534343 0
M  V30 8 C 3.325980 -4.848493 1.652242 0
M  V30 9 C 4.535358 -4.214283 1.623808 0
M  V30 10 C 4.564359 -2.844926 1.475377 0
M  V30 11 C 3.373007 -2.186720 1.363333 0
M  V30 12 C 1.179423 0.037082 -0.181422 0
M  V30 13 N 0.337968 1.017449 -0.570057 0
M  V30 14 N -0.873060 0.768466 -0.060262 0
M  V30 15 C -1.981751 1.628818 -0.294490 0
M  V30 16 C -2.370674 1.683131 -1.636988 0
M  V30 17 C -3.441184 2.485838 -2.005871 0
M  V30 18 C -4.136442 3.237045 -1.074871 0
M  V30 19 C -3.726827 3.163529 0.255961 0
M  V30 20 C -2.664225 2.371583 0.646753 0
M  V30 21 F -2.224779 2.262474 1.920523 0
M  V30 22 H -2.444393 -0.449532 2.170143 0
M  V30 23 H -2.491801 -1.666019 0.885414 0
M  V30 24 H 1.226460 -4.729443 1.568407 0
M  V30 25 H 3.335083 -5.928539 1.770524 0
M  V30 26 H 5.456489 -4.762319 1.714652 0
M  V30 27 H 5.496816 -2.323608 1.450015 0
M  V30 28 H 3.425306 -1.116741 1.256899 0
M  V30 29 H 2.208736 -0.041381 -0.433010 0
M  V30 30 H -1.873746 1.120191 -2.434865 0
M  V30 31 H -3.756973 2.540519 -3.041876 0
M  V30 32 H -4.977118 3.879540 -1.302840 0
M  V30 33 H -4.196935 3.708161 1.072377 0
M  V30 END ATOM
M  V30 BEGIN BOND
M  V30 1 1 1 2
M  V30 2 2 2 3
M  V30 3 1 3 4
M  V30 4 2 4 5
M  V30 5 1 4 6
M  V30 6 2 6 7
M  V30 7 1 7 8
M  V30 8 2 8 9
M  V30 9 1 9 10
M  V30 10 2 10 11
M  V30 11 1 3 12
M  V30 12 2 12 13
M  V30 13 1 13 14
M  V30 14 1 14 15
M  V30 15 2 15 16
M  V30 16 1 16 17
M  V30 17 2 17 18
M  V30 18 1 18 19
M  V30 19 2 19 20
M  V30 20 1 20 21
M  V30 21 1 14 2
M  V30 22 1 20 15
M  V30 23 1 11 6
M  V30 24 1 1 22
M  V30 25 1 1 23
M  V30 26 1 7 24
M  V30 27 1 8 25
M  V30 28 1 9 26
M  V30 29 1 10 27
M  V30 30 1 11 28
M  V30 31 1 12 29
M  V30 32 1 16 30
M  V30 33 1 17 31
M  V30 34 1 18 32
M  V30 35 1 19 33
M  V30 END BOND
M  V30 END CTAB
M  END
>  <Dataset>  (626) 
ChEMBL_Kinases

>  <Ligand_Instance>  (626) 
nan

>  <PDB_ID>  (626) 
nan

>  <Standardized_SMILES>  (626) 
Nc1c(C(=O)c2ccccc2)cnn1-c1ccccc1F

>  <Name>  (626) 
nan

>  <Pocket>  (626) 
nan

>  <ATP_Site>  (626) 
nan

>  <Peripheral>  (626) 
nan

>  <Num_H_Atoms_ProtBoundConf>  (626) 
nan

>  <Num_Resolved_Atoms>  (626) 
nan

>  <Num_Not_Resolved_Atoms>  (626) 
nan

$$$$
CHEMBL2041915
     RDKit          3D

  0  0  0  0  0  0  0  0  0  0999 V3000
M  V30 BEGIN CTAB
M  V30 COUNTS 32 36 0 0 0
M  V30 BEGIN ATOM
M  V30 1 C -1.247244 -4.964928 2.206305 0
M  V30 2 C -0.415051 -3.717027 2.207447 0
M  V30 3 C 0.609014 -3.608675 3.156120 0
M  V30 4 C 1.370433 -2.457085 3.150654 0
M  V30 5 C 1.113473 -1.449918 2.226124 0
M  V30 6 N 1.762947 -0.257330 2.081898 0
M  V30 7 C 1.203694 0.434420 1.065447 0
M  V30 8 C 0.193311 -0.371437 0.593326 0
M  V30 9 C -0.552985 0.082023 -0.451380 0
M  V30 10 C -0.294952 1.309699 -1.008995 0
M  V30 11 C 0.736475 2.118527 -0.517870 0
M  V30 12 C 1.261042 3.357594 -0.817404 0
M  V30 13 C 2.295499 3.583056 0.063909 0
M  V30 14 N 2.379119 2.506403 0.861774 0
M  V30 15 N 1.445580 1.628242 0.514207 0
M  V30 16 C -1.181812 1.640170 -2.112173 0
M  V30 17 O -1.198744 2.679400 -2.818759 0
M  V30 18 N -2.036284 0.497638 -2.205481 0
M  V30 19 C -1.659102 -0.436464 -1.209640 0
M  V30 20 O -2.317706 -1.483511 -1.171110 0
M  V30 21 C 0.111484 -1.539604 1.287062 0
M  V30 22 C -0.610433 -2.681390 1.325388 0
M  V30 23 H -1.469567 -5.163837 1.135059 0
M  V30 24 H -0.706260 -5.809062 2.632879 0
M  V30 25 H -2.223887 -4.735038 2.685009 0
M  V30 26 H 0.838760 -4.369068 3.889741 0
M  V30 27 H 2.172619 -2.325794 3.862978 0
M  V30 28 H 2.578008 0.098737 2.657876 0
M  V30 29 H 0.864607 3.954327 -1.608524 0
M  V30 30 H 2.871066 4.505563 0.025286 0
M  V30 31 H -2.795298 0.481654 -2.951315 0
M  V30 32 H -1.399920 -2.851584 0.651536 0
M  V30 END ATOM
M  V30 BEGIN BOND
M  V30 1 1 1 2
M  V30 2 2 2 3
M  V30 3 1 3 4
M  V30 4 2 4 5
M  V30 5 1 5 6
M  V30 6 1 6 7
M  V30 7 2 7 8
M  V30 8 1 8 9
M  V30 9 2 9 10
M  V30 10 1 10 11
M  V30 11 2 11 12
M  V30 12 1 12 13
M  V30 13 2 13 14
M  V30 14 1 14 15
M  V30 15 1 10 16
M  V30 16 2 16 17
M  V30 17 1 16 18
M  V30 18 1 18 19
M  V30 19 2 19 20
M  V30 20 1 8 21
M  V30 21 2 21 22
M  V30 22 1 22 2
M  V30 23 1 21 5
M  V30 24 1 15 7
M  V30 25 1 19 9
M  V30 26 1 15 11
M  V30 27 1 1 23
M  V30 28 1 1 24
M  V30 29 1 1 25
M  V30 30 1 3 26
M  V30 31 1 4 27
M  V30 32 1 6 28
M  V30 33 1 12 29
M  V30 34 1 13 30
M  V30 35 1 18 31
M  V30 36 1 22 32
M  V30 END BOND
M  V30 END CTAB
M  END
>  <Dataset>  (627) 
ChEMBL_Kinases

>  <Ligand_Instance>  (627) 
nan

>  <PDB_ID>  (627) 
nan

>  <Standardized_SMILES>  (627) 
Cc1ccc2[nH]c3c(c4c(c5ccnn53)C(=O)NC4=O)c2c1

>  <Name>  (627) 
nan

>  <Pocket>  (627) 
nan

>  <ATP_Site>  (627) 
nan

>  <Peripheral>  (627) 
nan

>  <Num_H_Atoms_ProtBoundConf>  (627) 
nan

>  <Num_Resolved_Atoms>  (627) 
nan

>  <Num_Not_Resolved_Atoms>  (627) 
nan

$$$$
CHEMBL204211
     RDKit          3D

  0  0  0  0  0  0  0  0  0  0999 V3000
M  V30 BEGIN CTAB
M  V30 COUNTS 56 60 0 0 0
M  V30 BEGIN ATOM
M  V30 1 C 1.146405 1.796135 -4.339126 0
M  V30 2 C 1.250525 0.643552 -3.552574 0
M  V30 3 C 2.319822 0.474558 -2.700691 0
M  V30 4 C 3.313575 1.417152 -2.590319 0
M  V30 5 C 4.512726 1.457791 -1.773329 0
M  V30 6 N 5.822618 1.443487 -2.120911 0
M  V30 7 N 6.574115 1.497948 -1.034385 0
M  V30 8 C 5.755358 1.547934 0.028612 0
M  V30 9 C 4.426196 1.524314 -0.398654 0
M  V30 10 C 3.355058 1.569206 0.586172 0
M  V30 11 C 3.314977 2.769082 1.305818 0
M  V30 12 C 2.369350 3.028924 2.304397 0
M  V30 13 N 1.467727 2.033065 2.547828 0
M  V30 14 C 1.492311 0.876131 1.866584 0
M  V30 15 C 0.486762 -0.122361 2.203195 0
M  V30 16 C -0.426332 0.184577 3.200636 0
M  V30 17 C -1.417448 -0.714748 3.581438 0
M  V30 18 C -1.525560 -1.963039 2.967901 0
M  V30 19 C -2.606530 -2.877093 3.423233 0
M  V30 20 N -3.798465 -2.645215 2.648338 0
M  V30 21 C -3.675353 -2.854804 1.246552 0
M  V30 22 C -5.042193 -2.551842 0.634243 0
M  V30 23 C -5.367829 -3.521017 -0.482643 0
M  V30 24 O -5.509622 -4.810875 -0.010492 0
M  V30 25 C -4.516780 -5.199760 0.853908 0
M  V30 26 C -3.336356 -4.252855 0.849431 0
M  V30 27 C -0.612238 -2.257592 1.977293 0
M  V30 28 C 0.367302 -1.358491 1.606847 0
M  V30 29 C 2.418041 0.621589 0.889138 0
M  V30 30 N 3.212602 2.542267 -3.357764 0
M  V30 31 C 2.177177 2.728801 -4.196690 0
M  V30 32 H 0.300300 1.873446 -4.977989 0
M  V30 33 H 0.538474 -0.185155 -3.536491 0
M  V30 34 H 2.496614 -0.372649 -2.055543 0
M  V30 35 H 7.604337 1.494030 -1.162965 0
M  V30 36 H 6.211535 1.597072 1.014962 0
M  V30 37 H 4.023754 3.591172 1.136824 0
M  V30 38 H 2.371399 3.968125 2.837731 0
M  V30 39 H -0.428312 1.122823 3.736536 0
M  V30 40 H -2.128010 -0.456433 4.368974 0
M  V30 41 H -2.860625 -2.615760 4.469007 0
M  V30 42 H -2.271594 -3.933175 3.446188 0
M  V30 43 H -4.672457 -2.985876 3.062329 0
M  V30 44 H -2.963187 -2.147947 0.788810 0
M  V30 45 H -5.076488 -1.522547 0.222223 0
M  V30 46 H -5.861113 -2.616983 1.374408 0
M  V30 47 H -4.668053 -3.440486 -1.330886 0
M  V30 48 H -6.360254 -3.204090 -0.870968 0
M  V30 49 H -4.897018 -5.374357 1.876979 0
M  V30 50 H -4.100937 -6.179422 0.481915 0
M  V30 51 H -2.540313 -4.735508 1.444880 0
M  V30 52 H -2.961182 -4.211519 -0.202124 0
M  V30 53 H -0.682790 -3.220745 1.491963 0
M  V30 54 H 1.052249 -1.621746 0.839930 0
M  V30 55 H 2.481766 -0.273341 0.326127 0
M  V30 56 H 2.067467 3.618386 -4.823957 0
M  V30 END ATOM
M  V30 BEGIN BOND
M  V30 1 2 1 2
M  V30 2 1 2 3
M  V30 3 2 3 4
M  V30 4 1 4 5
M  V30 5 2 5 6
M  V30 6 1 6 7
M  V30 7 1 7 8
M  V30 8 2 8 9
M  V30 9 1 9 10
M  V30 10 2 10 11
M  V30 11 1 11 12
M  V30 12 2 12 13
M  V30 13 1 13 14
M  V30 14 1 14 15
M  V30 15 2 15 16
M  V30 16 1 16 17
M  V30 17 2 17 18
M  V30 18 1 18 19
M  V30 19 1 19 20
M  V30 20 1 20 21
M  V30 21 1 21 22
M  V30 22 1 22 23
M  V30 23 1 23 24
M  V30 24 1 24 25
M  V30 25 1 25 26
M  V30 26 1 18 27
M  V30 27 2 27 28
M  V30 28 2 14 29
M  V30 29 1 4 30
M  V30 30 2 30 31
M  V30 31 1 31 1
M  V30 32 1 9 5
M  V30 33 1 29 10
M  V30 34 1 28 15
M  V30 35 1 26 21
M  V30 36 1 1 32
M  V30 37 1 2 33
M  V30 38 1 3 34
M  V30 39 1 7 35
M  V30 40 1 8 36
M  V30 41 1 11 37
M  V30 42 1 12 38
M  V30 43 1 16 39
M  V30 44 1 17 40
M  V30 45 1 19 41
M  V30 46 1 19 42
M  V30 47 1 20 43
M  V30 48 1 21 44
M  V30 49 1 22 45
M  V30 50 1 22 46
M  V30 51 1 23 47
M  V30 52 1 23 48
M  V30 53 1 25 49
M  V30 54 1 25 50
M  V30 55 1 26 51
M  V30 56 1 26 52
M  V30 57 1 27 53
M  V30 58 1 28 54
M  V30 59 1 29 55
M  V30 60 1 31 56
M  V30 END BOND
M  V30 END CTAB
M  END
>  <Dataset>  (628) 
ChEMBL_Kinases

>  <Ligand_Instance>  (628) 
nan

>  <PDB_ID>  (628) 
nan

>  <Standardized_SMILES>  (628) 
c1ccc(-c2n[nH]cc2-c2ccnc(-c3ccc(CNC4CCOCC4)cc3)c2)nc1

>  <Name>  (628) 
nan

>  <Pocket>  (628) 
nan

>  <ATP_Site>  (628) 
nan

>  <Peripheral>  (628) 
nan

>  <Num_H_Atoms_ProtBoundConf>  (628) 
nan

>  <Num_Resolved_Atoms>  (628) 
nan

>  <Num_Not_Resolved_Atoms>  (628) 
nan

$$$$
CHEMBL204213
     RDKit          3D

  0  0  0  0  0  0  0  0  0  0999 V3000
M  V30 BEGIN CTAB
M  V30 COUNTS 37 39 0 0 0
M  V30 BEGIN ATOM
M  V30 1 C -1.208379 -0.831206 2.353273 0
M  V30 2 C -0.399024 -1.806536 2.686237 0
M  V30 3 C 0.727490 -2.302370 1.901455 0
M  V30 4 C 1.523721 -3.338917 2.340588 0
M  V30 5 N 2.562764 -3.798995 1.620632 0
M  V30 6 C 2.919021 -3.302364 0.425825 0
M  V30 7 C 2.155961 -2.258795 -0.067734 0
M  V30 8 O 2.465223 -1.688643 -1.306339 0
M  V30 9 C 1.668665 -0.620612 -1.790591 0
M  V30 10 C 2.171072 -0.141085 -3.155694 0 CFG=2
M  V30 11 C 3.332619 0.819668 -3.066839 0
M  V30 12 C 2.261842 1.915309 -3.040663 0
M  V30 13 N 1.387225 0.951182 -3.691907 0
M  V30 14 C 1.094853 -1.793314 0.673837 0
M  V30 15 C -2.332022 -0.340342 3.141419 0
M  V30 16 C -3.127826 0.697139 2.700322 0
M  V30 17 C -4.190900 1.170031 3.433633 0
M  V30 18 N -4.512589 0.642293 4.627264 0
M  V30 19 C -3.756978 -0.371124 5.087128 0
M  V30 20 C -2.686350 -0.861073 4.368446 0
M  V30 21 H -1.018227 -0.353544 1.407651 0
M  V30 22 H -0.584728 -2.290425 3.634952 0
M  V30 23 H 1.308551 -3.802813 3.299713 0
M  V30 24 H 3.764827 -3.704342 -0.120454 0
M  V30 25 H 1.660148 0.232758 -1.066092 0
M  V30 26 H 0.587380 -0.916899 -1.885751 0
M  V30 27 H 2.339747 -0.999575 -3.814766 0
M  V30 28 H 3.883230 0.792827 -2.104492 0
M  V30 29 H 3.931691 0.809892 -3.984351 0
M  V30 30 H 1.946652 2.165802 -2.009581 0
M  V30 31 H 2.551825 2.783115 -3.669129 0
M  V30 32 H 0.426928 0.901493 -3.313337 0
M  V30 33 H 0.528303 -0.977250 0.247640 0
M  V30 34 H -2.886778 1.141384 1.735233 0
M  V30 35 H -4.756079 1.996531 2.990459 0
M  V30 36 H -4.008736 -0.813025 6.063113 0
M  V30 37 H -2.133477 -1.662599 4.791870 0
M  V30 END ATOM
M  V30 BEGIN BOND
M  V30 1 2 1 2
M  V30 2 1 2 3
M  V30 3 2 3 4
M  V30 4 1 4 5
M  V30 5 2 5 6
M  V30 6 1 6 7
M  V30 7 1 7 8
M  V30 8 1 8 9
M  V30 9 1 9 10
M  V30 10 1 10 11
M  V30 11 1 11 12
M  V30 12 1 12 13
M  V30 13 2 7 14
M  V30 14 1 1 15
M  V30 15 2 15 16
M  V30 16 1 16 17
M  V30 17 2 17 18
M  V30 18 1 18 19
M  V30 19 2 19 20
M  V30 20 1 14 3
M  V30 21 1 20 15
M  V30 22 1 13 10
M  V30 23 1 1 21
M  V30 24 1 2 22
M  V30 25 1 4 23
M  V30 26 1 6 24
M  V30 27 1 9 25
M  V30 28 1 9 26
M  V30 29 1 10 27 CFG=3
M  V30 30 1 11 28
M  V30 31 1 11 29
M  V30 32 1 12 30
M  V30 33 1 12 31
M  V30 34 1 13 32
M  V30 35 1 14 33
M  V30 36 1 16 34
M  V30 37 1 17 35
M  V30 38 1 19 36
M  V30 39 1 20 37
M  V30 END BOND
M  V30 END CTAB
M  END
>  <Dataset>  (629) 
ChEMBL_Kinases

>  <Ligand_Instance>  (629) 
nan

>  <PDB_ID>  (629) 
nan

>  <Standardized_SMILES>  (629) 
C(=C/c1cncc(OC[C@@H]2CCN2)c1)\c1ccncc1

>  <Name>  (629) 
nan

>  <Pocket>  (629) 
nan

>  <ATP_Site>  (629) 
nan

>  <Peripheral>  (629) 
nan

>  <Num_H_Atoms_ProtBoundConf>  (629) 
nan

>  <Num_Resolved_Atoms>  (629) 
nan

>  <Num_Not_Resolved_Atoms>  (629) 
nan

$$$$
CHEMBL2042135
     RDKit          3D

  0  0  0  0  0  0  0  0  0  0999 V3000
M  V30 BEGIN CTAB
M  V30 COUNTS 59 61 0 0 0
M  V30 BEGIN ATOM
M  V30 1 C 3.820521 1.105077 3.322174 0
M  V30 2 C 4.308451 0.337197 2.112336 0 CFG=2
M  V30 3 C 5.729254 -0.057154 2.159938 0
M  V30 4 C 6.788319 0.720121 2.356576 0
M  V30 5 C 6.614654 2.156489 2.559372 0
M  V30 6 F 6.357528 2.529214 3.868609 0
M  V30 7 F 5.825661 2.806061 1.639610 0
M  V30 8 F 7.878943 2.740027 2.334468 0
M  V30 9 O 3.855094 0.837009 0.886790 0
M  V30 10 C 2.855859 0.248299 0.155247 0
M  V30 11 C 2.067473 -0.859224 0.349527 0
M  V30 12 C 1.091308 -1.321166 -0.500268 0
M  V30 13 C 0.357934 -2.521265 -0.108097 0
M  V30 14 C -1.005239 -2.410992 -0.281856 0
M  V30 15 C -1.855068 -3.430395 0.034710 0
M  V30 16 C -3.338715 -3.383448 -0.122168 0
M  V30 17 C -4.072789 -2.384462 -0.582088 0
M  V30 18 C -5.430547 -2.529889 -0.651156 0
M  V30 19 C -6.398127 -1.490073 -1.150805 0
M  V30 20 N -6.880808 -0.618856 -0.134678 0
M  V30 21 C -5.857905 0.140688 0.525387 0
M  V30 22 C -7.866264 -1.155434 0.743923 0
M  V30 23 C -5.962543 -3.736672 -0.227147 0
M  V30 24 S -4.425413 -4.689939 0.289396 0
M  V30 25 C -1.296545 -4.582771 0.538149 0
M  V30 26 N 0.032527 -4.691115 0.707771 0
M  V30 27 C 0.878350 -3.693820 0.399452 0
M  V30 28 N 2.285197 -3.709240 0.541484 0
M  V30 29 C 0.868009 -0.617617 -1.665405 0
M  V30 30 C 1.639525 0.518537 -1.918802 0
M  V30 31 C 2.627782 0.958170 -1.025072 0
M  V30 32 C 3.232323 2.149708 -1.597144 0
M  V30 33 N 4.286531 2.885891 -1.024262 0
M  V30 34 O 3.018043 2.800762 -2.651541 0
M  V30 35 H 2.758512 0.809111 3.597637 0
M  V30 36 H 3.766743 2.181029 3.205568 0
M  V30 37 H 4.405509 0.725058 4.183936 0
M  V30 38 H 3.757233 -0.648440 2.234825 0
M  V30 39 H 6.033456 -1.117672 2.021066 0
M  V30 40 H 7.807203 0.282450 2.369979 0
M  V30 41 H 2.251626 -1.390059 1.252331 0
M  V30 42 H -1.515150 -1.520425 -0.679664 0
M  V30 43 H -3.596094 -1.444236 -0.906344 0
M  V30 44 H -7.233882 -1.947972 -1.710571 0
M  V30 45 H -5.886268 -0.841228 -1.922343 0
M  V30 46 H -5.373660 -0.409136 1.343750 0
M  V30 47 H -6.297674 1.090919 0.913013 0
M  V30 48 H -5.069328 0.416153 -0.201423 0
M  V30 49 H -8.291420 -2.095142 0.372445 0
M  V30 50 H -7.540693 -1.266313 1.794168 0
M  V30 51 H -8.726596 -0.428486 0.782423 0
M  V30 52 H -6.992947 -4.082533 -0.187189 0
M  V30 53 H -1.843226 -5.454853 0.826537 0
M  V30 54 H 2.758005 -3.802312 1.443911 0
M  V30 55 H 2.957687 -3.627795 -0.258170 0
M  V30 56 H 0.094852 -1.008923 -2.309452 0
M  V30 57 H 1.340623 0.954322 -2.870996 0
M  V30 58 H 3.813065 3.332361 -0.211261 0
M  V30 59 H 5.261972 3.229465 -0.959062 0
M  V30 END ATOM
M  V30 BEGIN BOND
M  V30 1 1 1 2
M  V30 2 1 2 3
M  V30 3 2 3 4
M  V30 4 1 4 5
M  V30 5 1 5 6
M  V30 6 1 5 7
M  V30 7 1 5 8
M  V30 8 1 2 9
M  V30 9 1 9 10
M  V30 10 2 10 11
M  V30 11 1 11 12
M  V30 12 1 12 13
M  V30 13 2 13 14
M  V30 14 1 14 15
M  V30 15 1 15 16
M  V30 16 2 16 17
M  V30 17 1 17 18
M  V30 18 1 18 19
M  V30 19 1 19 20
M  V30 20 1 20 21
M  V30 21 1 20 22
M  V30 22 2 18 23
M  V30 23 1 23 24
M  V30 24 2 15 25
M  V30 25 1 25 26
M  V30 26 2 26 27
M  V30 27 1 27 28
M  V30 28 2 12 29
M  V30 29 1 29 30
M  V30 30 2 30 31
M  V30 31 1 31 32
M  V30 32 1 32 33
M  V30 33 2 32 34
M  V30 34 1 31 10
M  V30 35 1 27 13
M  V30 36 1 24 16
M  V30 37 1 1 35
M  V30 38 1 1 36
M  V30 39 1 1 37
M  V30 40 1 2 38 CFG=1
M  V30 41 1 3 39
M  V30 42 1 4 40
M  V30 43 1 11 41
M  V30 44 1 14 42
M  V30 45 1 17 43
M  V30 46 1 19 44
M  V30 47 1 19 45
M  V30 48 1 21 46
M  V30 49 1 21 47
M  V30 50 1 21 48
M  V30 51 1 22 49
M  V30 52 1 22 50
M  V30 53 1 22 51
M  V30 54 1 23 52
M  V30 55 1 25 53
M  V30 56 1 28 54
M  V30 57 1 28 55
M  V30 58 1 29 56
M  V30 59 1 30 57
M  V30 60 1 33 58
M  V30 61 1 33 59
M  V30 END BOND
M  V30 END CTAB
M  END
>  <Dataset>  (630) 
ChEMBL_Kinases

>  <Ligand_Instance>  (630) 
nan

>  <PDB_ID>  (630) 
nan

>  <Standardized_SMILES>  (630) 
C[C@H](/C=C\C(F)(F)F)Oc1cc(-c2cc(-c3cc(CN(C)C)cs3)cnc2N)ccc1C(N)=O

>  <Name>  (630) 
nan

>  <Pocket>  (630) 
nan

>  <ATP_Site>  (630) 
nan

>  <Peripheral>  (630) 
nan

>  <Num_H_Atoms_ProtBoundConf>  (630) 
nan

>  <Num_Resolved_Atoms>  (630) 
nan

>  <Num_Not_Resolved_Atoms>  (630) 
nan

$$$$
CHEMBL2042136
     RDKit          3D

  0  0  0  0  0  0  0  0  0  0999 V3000
M  V30 BEGIN CTAB
M  V30 COUNTS 65 68 0 0 0
M  V30 BEGIN ATOM
M  V30 1 C 4.050655 -2.778285 3.667021 0
M  V30 2 C 3.205736 -1.579716 3.203634 0 CFG=1
M  V30 3 O 1.858260 -1.921316 3.436554 0
M  V30 4 C 0.877482 -2.103804 2.509248 0
M  V30 5 C 1.015793 -1.992513 1.145802 0
M  V30 6 C -0.037029 -2.195869 0.282780 0
M  V30 7 C -0.009834 -2.109337 -1.168327 0
M  V30 8 C -0.998261 -1.454186 -1.868248 0
M  V30 9 C -0.941771 -1.396235 -3.262643 0
M  V30 10 C -2.044442 -0.682084 -4.002817 0
M  V30 11 C -3.093970 -0.099391 -3.448629 0
M  V30 12 C -4.044763 0.509898 -4.204696 0
M  V30 13 C -5.289045 1.210621 -3.811950 0
M  V30 14 N -5.162257 2.617615 -3.612350 0
M  V30 15 C -4.234638 3.034614 -2.612051 0
M  V30 16 C -6.487424 3.118821 -3.287948 0
M  V30 17 C -3.733693 0.423398 -5.685521 0
M  V30 18 S -2.108327 -0.534355 -5.693981 0
M  V30 19 C 0.051836 -1.957923 -3.992187 0
M  V30 20 N 1.032104 -2.606768 -3.297940 0
M  V30 21 C 0.976354 -2.662967 -1.954163 0
M  V30 22 N 2.055257 -3.371194 -1.369736 0
M  V30 23 C -1.299577 -2.526502 0.771602 0
M  V30 24 C -1.466674 -2.644793 2.141341 0
M  V30 25 C -0.380374 -2.431366 2.963535 0
M  V30 26 C -0.648173 -2.579980 4.370402 0
M  V30 27 N -1.904154 -2.890717 4.937238 0
M  V30 28 O 0.020349 -2.501409 5.425628 0
M  V30 29 C 3.560006 -0.368833 3.968850 0
M  V30 30 C 2.964164 -0.239757 5.196842 0
M  V30 31 C 3.218129 0.847843 6.026660 0
M  V30 32 C 4.105361 1.795766 5.549534 0
M  V30 33 C 4.678992 1.627913 4.315661 0
M  V30 34 C 4.445721 0.547754 3.455659 0
M  V30 35 C 5.088799 0.432604 2.130745 0
M  V30 36 F 4.186766 0.396149 1.082441 0
M  V30 37 F 5.982229 -0.612682 2.116268 0
M  V30 38 F 5.863288 1.575169 1.885531 0
M  V30 39 H 3.615975 -3.188036 4.620185 0
M  V30 40 H 5.110021 -2.535832 3.774781 0
M  V30 41 H 3.955774 -3.607259 2.937541 0
M  V30 42 H 3.347478 -1.442165 2.107956 0
M  V30 43 H 1.944333 -1.742387 0.711696 0
M  V30 44 H -1.797062 -0.998865 -1.304285 0
M  V30 45 H -3.260099 -0.070190 -2.384063 0
M  V30 46 H -5.666603 0.742534 -2.858938 0
M  V30 47 H -6.107852 1.046435 -4.538872 0
M  V30 48 H -4.008845 2.306256 -1.823768 0
M  V30 49 H -3.326427 3.398345 -3.140962 0
M  V30 50 H -4.675450 3.918122 -2.079774 0
M  V30 51 H -7.128720 2.308891 -2.861698 0
M  V30 52 H -7.005409 3.451512 -4.219696 0
M  V30 53 H -6.478418 3.957748 -2.589859 0
M  V30 54 H -4.524080 0.938941 -6.465986 0
M  V30 55 H 0.061761 -1.892815 -5.062346 0
M  V30 56 H 2.942743 -3.290321 -0.794074 0
M  V30 57 H 1.964030 -4.385299 -1.571268 0
M  V30 58 H -2.185091 -2.699790 0.140155 0
M  V30 59 H -2.463341 -2.904889 2.528195 0
M  V30 60 H -2.502144 -3.709198 5.190508 0
M  V30 61 H -2.646588 -2.230147 5.293641 0
M  V30 62 H 2.264190 -0.944620 5.628330 0
M  V30 63 H 2.786713 1.012085 6.998296 0
M  V30 64 H 4.369813 2.671697 6.108846 0
M  V30 65 H 5.379355 2.385259 3.950463 0
M  V30 END ATOM
M  V30 BEGIN BOND
M  V30 1 1 1 2
M  V30 2 1 2 3
M  V30 3 1 3 4
M  V30 4 2 4 5
M  V30 5 1 5 6
M  V30 6 1 6 7
M  V30 7 2 7 8
M  V30 8 1 8 9
M  V30 9 1 9 10
M  V30 10 2 10 11
M  V30 11 1 11 12
M  V30 12 1 12 13
M  V30 13 1 13 14
M  V30 14 1 14 15
M  V30 15 1 14 16
M  V30 16 2 12 17
M  V30 17 1 17 18
M  V30 18 2 9 19
M  V30 19 1 19 20
M  V30 20 2 20 21
M  V30 21 1 21 22
M  V30 22 2 6 23
M  V30 23 1 23 24
M  V30 24 2 24 25
M  V30 25 1 25 26
M  V30 26 1 26 27
M  V30 27 2 26 28
M  V30 28 1 2 29
M  V30 29 2 29 30
M  V30 30 1 30 31
M  V30 31 2 31 32
M  V30 32 1 32 33
M  V30 33 2 33 34
M  V30 34 1 34 35
M  V30 35 1 35 36
M  V30 36 1 35 37
M  V30 37 1 35 38
M  V30 38 1 25 4
M  V30 39 1 34 29
M  V30 40 1 21 7
M  V30 41 1 18 10
M  V30 42 1 1 39
M  V30 43 1 1 40
M  V30 44 1 1 41
M  V30 45 1 2 42 CFG=3
M  V30 46 1 5 43
M  V30 47 1 8 44
M  V30 48 1 11 45
M  V30 49 1 13 46
M  V30 50 1 13 47
M  V30 51 1 15 48
M  V30 52 1 15 49
M  V30 53 1 15 50
M  V30 54 1 16 51
M  V30 55 1 16 52
M  V30 56 1 16 53
M  V30 57 1 17 54
M  V30 58 1 19 55
M  V30 59 1 22 56
M  V30 60 1 22 57
M  V30 61 1 23 58
M  V30 62 1 24 59
M  V30 63 1 27 60
M  V30 64 1 27 61
M  V30 65 1 30 62
M  V30 66 1 31 63
M  V30 67 1 32 64
M  V30 68 1 33 65
M  V30 END BOND
M  V30 END CTAB
M  END
>  <Dataset>  (631) 
ChEMBL_Kinases

>  <Ligand_Instance>  (631) 
nan

>  <PDB_ID>  (631) 
nan

>  <Standardized_SMILES>  (631) 
C[C@@H](Oc1cc(-c2cc(-c3cc(CN(C)C)cs3)cnc2N)ccc1C(N)=O)c1ccccc1C(F)(F)F

>  <Name>  (631) 
nan

>  <Pocket>  (631) 
nan

>  <ATP_Site>  (631) 
nan

>  <Peripheral>  (631) 
nan

>  <Num_H_Atoms_ProtBoundConf>  (631) 
nan

>  <Num_Resolved_Atoms>  (631) 
nan

>  <Num_Not_Resolved_Atoms>  (631) 
nan

$$$$
CHEMBL204217
     RDKit          3D

  0  0  0  0  0  0  0  0  0  0999 V3000
M  V30 BEGIN CTAB
M  V30 COUNTS 73 77 0 0 0
M  V30 BEGIN ATOM
M  V30 1 C 11.787789 -0.792034 2.960692 0
M  V30 2 C 10.702997 -1.759540 2.648570 0
M  V30 3 C 9.473956 -1.158940 2.092412 0
M  V30 4 C 8.554079 -0.729354 3.054666 0
M  V30 5 C 7.340427 -0.166070 2.669635 0
M  V30 6 C 6.988443 -0.005344 1.330616 0
M  V30 7 C 5.682555 0.596814 0.999647 0
M  V30 8 O 5.097502 1.087346 2.028667 0
M  V30 9 N 5.195550 0.587756 -0.353454 0
M  V30 10 C 3.905331 1.241553 -0.335413 0
M  V30 11 N 2.845873 0.452493 -0.048720 0
M  V30 12 C 1.570202 0.930177 0.018540 0
M  V30 13 C 1.372816 2.278045 -0.220962 0
M  V30 14 N 0.061548 2.871739 -0.139077 0
M  V30 15 C -0.941459 2.061440 0.454757 0
M  V30 16 N -0.965386 2.126686 1.795570 0
M  V30 17 C -1.855036 1.430117 2.551366 0
M  V30 18 N -2.773146 0.622745 1.939912 0
M  V30 19 C -2.750988 0.556077 0.596612 0
M  V30 20 C -3.647402 -0.228623 -0.092353 0
M  V30 21 C -3.710450 -0.359809 -1.460655 0
M  V30 22 O -4.532627 -1.090579 -2.240278 0
M  V30 23 C -5.561223 -1.960572 -1.978461 0
M  V30 24 C -5.209884 -3.204149 -1.202767 0
M  V30 25 C -6.374988 -4.116341 -0.956870 0
M  V30 26 N -7.456054 -3.593415 -0.206752 0
M  V30 27 C -8.553872 -4.485702 -0.014817 0
M  V30 28 C -9.700429 -3.759446 0.601755 0
M  V30 29 O -9.374539 -2.886163 1.623907 0
M  V30 30 C -8.371758 -1.993774 1.272017 0
M  V30 31 C -7.117324 -2.806615 0.927785 0
M  V30 32 C -2.757580 0.392671 -2.155658 0
M  V30 33 O -2.708846 0.353725 -3.541251 0
M  V30 34 C -1.810386 1.055244 -4.339464 0
M  V30 35 C -1.817090 1.208868 -1.557943 0
M  V30 36 C -1.856485 1.255175 -0.182884 0
M  V30 37 C 2.455379 3.111032 -0.521005 0
M  V30 38 N 3.664997 2.539607 -0.560438 0
M  V30 39 C 7.907024 -0.432814 0.404457 0
M  V30 40 C 9.107784 -0.990164 0.764174 0
M  V30 41 H 12.596863 -0.847859 2.205095 0
M  V30 42 H 11.456084 0.247740 3.163373 0
M  V30 43 H 12.273419 -1.122013 3.929058 0
M  V30 44 H 11.107147 -2.494036 1.889265 0
M  V30 45 H 10.435112 -2.336118 3.566894 0
M  V30 46 H 8.769870 -0.828894 4.133041 0
M  V30 47 H 6.685463 0.139381 3.500880 0
M  V30 48 H 5.756254 0.157123 -1.135738 0
M  V30 49 H 0.732149 0.274584 0.251368 0
M  V30 50 H -0.091215 3.822797 -0.500612 0
M  V30 51 H -1.815559 1.532049 3.634045 0
M  V30 52 H -4.354959 -0.770148 0.479738 0
M  V30 53 H -6.460756 -1.467111 -1.540055 0
M  V30 54 H -5.927611 -2.345039 -2.981624 0
M  V30 55 H -4.656395 -2.943642 -0.295206 0
M  V30 56 H -4.469563 -3.830920 -1.798779 0
M  V30 57 H -6.074722 -5.099279 -0.551414 0
M  V30 58 H -6.799859 -4.359113 -1.976841 0
M  V30 59 H -8.217674 -5.335919 0.595123 0
M  V30 60 H -8.865092 -4.889006 -0.995362 0
M  V30 61 H -10.329633 -4.557339 1.101266 0
M  V30 62 H -10.375260 -3.327398 -0.167046 0
M  V30 63 H -8.584358 -1.361904 0.411151 0
M  V30 64 H -8.154313 -1.354129 2.120092 0
M  V30 65 H -6.245107 -2.195601 0.723688 0
M  V30 66 H -7.007724 -3.501960 1.804710 0
M  V30 67 H -2.127585 0.890710 -5.411395 0
M  V30 68 H -0.761017 0.731402 -4.270333 0
M  V30 69 H -1.937276 2.143917 -4.163151 0
M  V30 70 H -1.082089 1.789033 -2.086033 0
M  V30 71 H 2.377997 4.151408 -0.716989 0
M  V30 72 H 7.669431 -0.322540 -0.644831 0
M  V30 73 H 9.851409 -1.335663 0.063216 0
M  V30 END ATOM
M  V30 BEGIN BOND
M  V30 1 1 1 2
M  V30 2 1 2 3
M  V30 3 2 3 4
M  V30 4 1 4 5
M  V30 5 2 5 6
M  V30 6 1 6 7
M  V30 7 2 7 8
M  V30 8 1 7 9
M  V30 9 1 9 10
M  V30 10 2 10 11
M  V30 11 1 11 12
M  V30 12 2 12 13
M  V30 13 1 13 14
M  V30 14 1 14 15
M  V30 15 2 15 16
M  V30 16 1 16 17
M  V30 17 2 17 18
M  V30 18 1 18 19
M  V30 19 2 19 20
M  V30 20 1 20 21
M  V30 21 1 21 22
M  V30 22 1 22 23
M  V30 23 1 23 24
M  V30 24 1 24 25
M  V30 25 1 25 26
M  V30 26 1 26 27
M  V30 27 1 27 28
M  V30 28 1 28 29
M  V30 29 1 29 30
M  V30 30 1 30 31
M  V30 31 2 21 32
M  V30 32 1 32 33
M  V30 33 1 33 34
M  V30 34 1 32 35
M  V30 35 2 35 36
M  V30 36 1 13 37
M  V30 37 2 37 38
M  V30 38 1 6 39
M  V30 39 2 39 40
M  V30 40 1 40 3
M  V30 41 1 38 10
M  V30 42 1 36 15
M  V30 43 1 36 19
M  V30 44 1 31 26
M  V30 45 1 1 41
M  V30 46 1 1 42
M  V30 47 1 1 43
M  V30 48 1 2 44
M  V30 49 1 2 45
M  V30 50 1 4 46
M  V30 51 1 5 47
M  V30 52 1 9 48
M  V30 53 1 12 49
M  V30 54 1 14 50
M  V30 55 1 17 51
M  V30 56 1 20 52
M  V30 57 1 23 53
M  V30 58 1 23 54
M  V30 59 1 24 55
M  V30 60 1 24 56
M  V30 61 1 25 57
M  V30 62 1 25 58
M  V30 63 1 27 59
M  V30 64 1 27 60
M  V30 65 1 28 61
M  V30 66 1 28 62
M  V30 67 1 30 63
M  V30 68 1 30 64
M  V30 69 1 31 65
M  V30 70 1 31 66
M  V30 71 1 34 67
M  V30 72 1 34 68
M  V30 73 1 34 69
M  V30 74 1 35 70
M  V30 75 1 37 71
M  V30 76 1 39 72
M  V30 77 1 40 73
M  V30 END BOND
M  V30 END CTAB
M  END
>  <Dataset>  (632) 
ChEMBL_Kinases

>  <Ligand_Instance>  (632) 
nan

>  <PDB_ID>  (632) 
nan

>  <Standardized_SMILES>  (632) 
CCc1ccc(C(=O)Nc2ncc(Nc3ncnc4cc(OCCCN5CCOCC5)c(OC)cc34)cn2)cc1

>  <Name>  (632) 
nan

>  <Pocket>  (632) 
nan

>  <ATP_Site>  (632) 
nan

>  <Peripheral>  (632) 
nan

>  <Num_H_Atoms_ProtBoundConf>  (632) 
nan

>  <Num_Resolved_Atoms>  (632) 
nan

>  <Num_Not_Resolved_Atoms>  (632) 
nan

$$$$
CHEMBL2042885
     RDKit          3D

  0  0  0  0  0  0  0  0  0  0999 V3000
M  V30 BEGIN CTAB
M  V30 COUNTS 27 29 0 0 0
M  V30 BEGIN ATOM
M  V30 1 O 0.550939 -5.791443 1.632071 0
M  V30 2 C 0.568839 -4.404099 1.570969 0
M  V30 3 C -0.548904 -3.725536 1.135326 0
M  V30 4 C -0.472670 -2.341207 1.095379 0
M  V30 5 C 0.641727 -1.611823 1.461263 0
M  V30 6 C 0.659320 -0.151651 1.396494 0
M  V30 7 N 1.150506 0.625613 2.387469 0
M  V30 8 N 1.033569 1.906387 2.048980 0
M  V30 9 C 0.456714 1.973966 0.816565 0
M  V30 10 C 0.098191 3.031199 -0.020425 0
M  V30 11 C -0.481942 2.718790 -1.233207 0
M  V30 12 O -0.840376 3.794731 -2.071298 0
M  V30 13 C -0.725330 1.428898 -1.660929 0
M  V30 14 C -0.365169 0.370582 -0.820383 0
M  V30 15 C 0.206991 0.690227 0.374918 0
M  V30 16 C 1.746408 -2.331663 1.894213 0
M  V30 17 C 1.722332 -3.711749 1.952738 0
M  V30 18 H -0.222876 -6.243383 2.106008 0
M  V30 19 H -1.453455 -4.250531 0.835066 0
M  V30 20 H -1.373858 -1.852091 0.746964 0
M  V30 21 H 1.332963 2.729820 2.628521 0
M  V30 22 H 0.284542 4.045750 0.305169 0
M  V30 23 H -1.617711 4.366522 -1.827936 0
M  V30 24 H -1.172708 1.181644 -2.595733 0
M  V30 25 H -0.555330 -0.637799 -1.154491 0
M  V30 26 H 2.609953 -1.742790 2.176588 0
M  V30 27 H 2.612996 -4.212727 2.297934 0
M  V30 END ATOM
M  V30 BEGIN BOND
M  V30 1 1 1 2
M  V30 2 2 2 3
M  V30 3 1 3 4
M  V30 4 2 4 5
M  V30 5 1 5 6
M  V30 6 2 6 7
M  V30 7 1 7 8
M  V30 8 1 8 9
M  V30 9 2 9 10
M  V30 10 1 10 11
M  V30 11 1 11 12
M  V30 12 2 11 13
M  V30 13 1 13 14
M  V30 14 2 14 15
M  V30 15 1 5 16
M  V30 16 2 16 17
M  V30 17 1 17 2
M  V30 18 1 15 6
M  V30 19 1 15 9
M  V30 20 1 1 18
M  V30 21 1 3 19
M  V30 22 1 4 20
M  V30 23 1 8 21
M  V30 24 1 10 22
M  V30 25 1 12 23
M  V30 26 1 13 24
M  V30 27 1 14 25
M  V30 28 1 16 26
M  V30 29 1 17 27
M  V30 END BOND
M  V30 END CTAB
M  END
>  <Dataset>  (633) 
ChEMBL_Kinases

>  <Ligand_Instance>  (633) 
nan

>  <PDB_ID>  (633) 
nan

>  <Standardized_SMILES>  (633) 
Oc1ccc(-c2n[nH]c3cc(O)ccc23)cc1

>  <Name>  (633) 
nan

>  <Pocket>  (633) 
nan

>  <ATP_Site>  (633) 
nan

>  <Peripheral>  (633) 
nan

>  <Num_H_Atoms_ProtBoundConf>  (633) 
nan

>  <Num_Resolved_Atoms>  (633) 
nan

>  <Num_Not_Resolved_Atoms>  (633) 
nan

$$$$
CHEMBL204318
     RDKit          3D

  0  0  0  0  0  0  0  0  0  0999 V3000
M  V30 BEGIN CTAB
M  V30 COUNTS 69 72 0 0 0
M  V30 BEGIN ATOM
M  V30 1 C 5.757303 -3.414030 2.317993 0
M  V30 2 C 5.146068 -2.494356 3.346196 0
M  V30 3 C 6.015584 -1.338231 3.724766 0
M  V30 4 C 6.406128 -0.422772 2.622824 0
M  V30 5 C 5.262111 0.222053 1.946410 0
M  V30 6 O 4.067273 -0.081915 2.244164 0
M  V30 7 N 5.574284 1.210767 0.935512 0
M  V30 8 C 4.390059 1.741971 0.352272 0
M  V30 9 N 3.730810 1.342643 -0.769548 0
M  V30 10 C 2.579830 2.000711 -1.105054 0
M  V30 11 C 2.024518 3.058996 -0.378834 0
M  V30 12 N 0.782707 3.757879 -0.690125 0
M  V30 13 C -0.000313 2.887764 0.159800 0
M  V30 14 N 0.044788 3.122658 1.479101 0
M  V30 15 C -0.687625 2.370608 2.357245 0
M  V30 16 N -1.427933 1.412425 1.805635 0
M  V30 17 C -1.488686 1.161744 0.502363 0
M  V30 18 C -2.272784 0.172135 -0.045356 0
M  V30 19 C -2.400487 -0.142952 -1.373905 0
M  V30 20 O -3.078238 -1.020012 -2.031353 0
M  V30 21 C -3.851594 -1.983355 -2.455200 0
M  V30 22 C -3.509138 -3.341798 -1.934514 0
M  V30 23 C -3.626012 -3.582295 -0.476757 0
M  V30 24 N -4.931071 -3.485976 0.121497 0
M  V30 25 C -4.901101 -4.228366 1.430522 0
M  V30 26 C -6.263454 -4.040833 2.018504 0
M  V30 27 O -7.103041 -3.221151 1.284154 0
M  V30 28 C -6.581941 -1.965658 1.098709 0
M  V30 29 C -5.172125 -2.121524 0.566525 0
M  V30 30 C -1.631230 0.650387 -2.249250 0
M  V30 31 O -1.626426 0.483469 -3.628375 0
M  V30 32 C -0.814277 1.327885 -4.414143 0
M  V30 33 C -0.816848 1.666601 -1.765500 0
M  V30 34 C -0.769004 1.893678 -0.408274 0
M  V30 35 C 2.777457 3.401712 0.765506 0
M  V30 36 N 3.937580 2.767812 1.138225 0
M  V30 37 H 6.400761 -2.927943 1.586097 0
M  V30 38 H 6.330967 -4.239459 2.805965 0
M  V30 39 H 4.904188 -3.871492 1.754478 0
M  V30 40 H 5.059863 -3.124775 4.292064 0
M  V30 41 H 4.123264 -2.177179 3.131372 0
M  V30 42 H 6.938704 -1.780079 4.195024 0
M  V30 43 H 5.439237 -0.753941 4.500319 0
M  V30 44 H 7.045510 0.380016 3.053909 0
M  V30 45 H 6.978264 -1.006760 1.841282 0
M  V30 46 H 6.549281 1.503761 0.647520 0
M  V30 47 H 2.065113 1.689306 -1.984800 0
M  V30 48 H 1.417922 4.316998 -1.256155 0
M  V30 49 H -0.758239 2.435474 3.424770 0
M  V30 50 H -2.860960 -0.441784 0.616489 0
M  V30 51 H -4.975579 -1.809241 -2.427166 0
M  V30 52 H -3.703251 -2.085073 -3.623411 0
M  V30 53 H -2.398614 -3.465454 -2.177144 0
M  V30 54 H -4.029255 -4.148773 -2.535919 0
M  V30 55 H -3.124879 -4.553277 -0.170827 0
M  V30 56 H -2.919639 -2.819302 0.007643 0
M  V30 57 H -4.658634 -5.282968 1.225551 0
M  V30 58 H -4.160874 -3.708346 2.039530 0
M  V30 59 H -6.762362 -5.056611 2.041816 0
M  V30 60 H -6.231363 -3.628869 3.055598 0
M  V30 61 H -6.493010 -1.372859 2.048372 0
M  V30 62 H -7.200977 -1.406764 0.377370 0
M  V30 63 H -4.427100 -1.982239 1.413371 0
M  V30 64 H -4.959523 -1.417830 -0.209582 0
M  V30 65 H -0.933098 1.077300 -5.507387 0
M  V30 66 H -1.060496 2.363936 -4.174567 0
M  V30 67 H 0.270787 1.151855 -4.226522 0
M  V30 68 H -0.194668 2.336151 -2.337692 0
M  V30 69 H 2.394324 4.231769 1.385222 0
M  V30 END ATOM
M  V30 BEGIN BOND
M  V30 1 1 1 2
M  V30 2 1 2 3
M  V30 3 1 3 4
M  V30 4 1 4 5
M  V30 5 2 5 6
M  V30 6 1 5 7
M  V30 7 1 7 8
M  V30 8 2 8 9
M  V30 9 1 9 10
M  V30 10 2 10 11
M  V30 11 1 11 12
M  V30 12 1 12 13
M  V30 13 2 13 14
M  V30 14 1 14 15
M  V30 15 2 15 16
M  V30 16 1 16 17
M  V30 17 2 17 18
M  V30 18 1 18 19
M  V30 19 1 19 20
M  V30 20 1 20 21
M  V30 21 1 21 22
M  V30 22 1 22 23
M  V30 23 1 23 24
M  V30 24 1 24 25
M  V30 25 1 25 26
M  V30 26 1 26 27
M  V30 27 1 27 28
M  V30 28 1 28 29
M  V30 29 2 19 30
M  V30 30 1 30 31
M  V30 31 1 31 32
M  V30 32 1 30 33
M  V30 33 2 33 34
M  V30 34 1 11 35
M  V30 35 2 35 36
M  V30 36 1 36 8
M  V30 37 1 34 13
M  V30 38 1 34 17
M  V30 39 1 29 24
M  V30 40 1 1 37
M  V30 41 1 1 38
M  V30 42 1 1 39
M  V30 43 1 2 40
M  V30 44 1 2 41
M  V30 45 1 3 42
M  V30 46 1 3 43
M  V30 47 1 4 44
M  V30 48 1 4 45
M  V30 49 1 7 46
M  V30 50 1 10 47
M  V30 51 1 12 48
M  V30 52 1 15 49
M  V30 53 1 18 50
M  V30 54 1 21 51
M  V30 55 1 21 52
M  V30 56 1 22 53
M  V30 57 1 22 54
M  V30 58 1 23 55
M  V30 59 1 23 56
M  V30 60 1 25 57
M  V30 61 1 25 58
M  V30 62 1 26 59
M  V30 63 1 26 60
M  V30 64 1 28 61
M  V30 65 1 28 62
M  V30 66 1 29 63
M  V30 67 1 29 64
M  V30 68 1 32 65
M  V30 69 1 32 66
M  V30 70 1 32 67
M  V30 71 1 33 68
M  V30 72 1 35 69
M  V30 END BOND
M  V30 END CTAB
M  END
>  <Dataset>  (634) 
ChEMBL_Kinases

>  <Ligand_Instance>  (634) 
nan

>  <PDB_ID>  (634) 
nan

>  <Standardized_SMILES>  (634) 
CCCCC(=O)Nc1ncc(Nc2ncnc3cc(OCCCN4CCOCC4)c(OC)cc23)cn1

>  <Name>  (634) 
nan

>  <Pocket>  (634) 
nan

>  <ATP_Site>  (634) 
nan

>  <Peripheral>  (634) 
nan

>  <Num_H_Atoms_ProtBoundConf>  (634) 
nan

>  <Num_Resolved_Atoms>  (634) 
nan

>  <Num_Not_Resolved_Atoms>  (634) 
nan

$$$$
CHEMBL2041912
     RDKit          3D

  0  0  0  0  0  0  0  0  0  0999 V3000
M  V30 BEGIN CTAB
M  V30 COUNTS 34 38 0 0 0
M  V30 BEGIN ATOM
M  V30 1 C -0.916401 -5.346395 1.451682 0
M  V30 2 O 0.157217 -4.897301 2.238732 0
M  V30 3 C 0.577130 -3.590670 2.142518 0
M  V30 4 C 1.650323 -3.184161 2.944405 0
M  V30 5 C 2.076192 -1.875635 2.852775 0
M  V30 6 C 1.449252 -1.002743 1.987649 0
M  V30 7 N 1.741279 0.314265 1.774862 0
M  V30 8 C 0.894522 0.805456 0.852106 0
M  V30 9 C 0.065401 -0.224828 0.488469 0
M  V30 10 C -0.893547 -0.017033 -0.432047 0
M  V30 11 C -1.031050 1.224819 -0.997052 0
M  V30 12 N -0.207518 2.253435 -0.637755 0
M  V30 13 C -0.091080 3.543739 -0.995962 0
M  V30 14 C 0.933594 4.156278 -0.310502 0
M  V30 15 C 1.479256 3.199387 0.512905 0
M  V30 16 C 0.751628 2.050706 0.281130 0
M  V30 17 C -2.128064 1.286438 -1.987216 0
M  V30 18 O -2.479492 2.282688 -2.653272 0
M  V30 19 N -2.652581 -0.058396 -1.969672 0
M  V30 20 C -1.902888 -0.814838 -1.037802 0
M  V30 21 O -2.265272 -1.994184 -0.936289 0
M  V30 22 C 0.390885 -1.352712 1.178649 0
M  V30 23 C 0.011623 -2.654557 1.309024 0
M  V30 24 H -1.051558 -6.455614 1.610727 0
M  V30 25 H -1.843034 -4.900052 1.892947 0
M  V30 26 H -0.850876 -5.073293 0.389269 0
M  V30 27 H 2.181157 -3.818024 3.639313 0
M  V30 28 H 2.902180 -1.535584 3.460246 0
M  V30 29 H 2.501344 0.883827 2.242150 0
M  V30 30 H -0.735709 4.006332 -1.730117 0
M  V30 31 H 1.219619 5.198020 -0.430247 0
M  V30 32 H 2.314642 3.345000 1.198115 0
M  V30 33 H -3.455768 -0.257237 -2.607469 0
M  V30 34 H -0.794013 -3.040615 0.735971 0
M  V30 END ATOM
M  V30 BEGIN BOND
M  V30 1 1 1 2
M  V30 2 1 2 3
M  V30 3 2 3 4
M  V30 4 1 4 5
M  V30 5 2 5 6
M  V30 6 1 6 7
M  V30 7 1 7 8
M  V30 8 2 8 9
M  V30 9 1 9 10
M  V30 10 2 10 11
M  V30 11 1 11 12
M  V30 12 1 12 13
M  V30 13 2 13 14
M  V30 14 1 14 15
M  V30 15 2 15 16
M  V30 16 1 11 17
M  V30 17 2 17 18
M  V30 18 1 17 19
M  V30 19 1 19 20
M  V30 20 2 20 21
M  V30 21 1 9 22
M  V30 22 2 22 23
M  V30 23 1 23 3
M  V30 24 1 22 6
M  V30 25 1 16 8
M  V30 26 1 20 10
M  V30 27 1 16 12
M  V30 28 1 1 24
M  V30 29 1 1 25
M  V30 30 1 1 26
M  V30 31 1 4 27
M  V30 32 1 5 28
M  V30 33 1 7 29
M  V30 34 1 13 30
M  V30 35 1 14 31
M  V30 36 1 15 32
M  V30 37 1 19 33
M  V30 38 1 23 34
M  V30 END BOND
M  V30 END CTAB
M  END
>  <Dataset>  (635) 
ChEMBL_Kinases

>  <Ligand_Instance>  (635) 
nan

>  <PDB_ID>  (635) 
nan

>  <Standardized_SMILES>  (635) 
COc1ccc2[nH]c3c(c4c(n5cccc35)C(=O)NC4=O)c2c1

>  <Name>  (635) 
nan

>  <Pocket>  (635) 
nan

>  <ATP_Site>  (635) 
nan

>  <Peripheral>  (635) 
nan

>  <Num_H_Atoms_ProtBoundConf>  (635) 
nan

>  <Num_Resolved_Atoms>  (635) 
nan

>  <Num_Not_Resolved_Atoms>  (635) 
nan

$$$$
CHEMBL2031468
     RDKit          3D

  0  0  0  0  0  0  0  0  0  0999 V3000
M  V30 BEGIN CTAB
M  V30 COUNTS 54 57 0 0 0
M  V30 BEGIN ATOM
M  V30 1 C 7.107189 -4.165221 -1.068106 0
M  V30 2 N 6.054953 -3.360417 -0.527903 0
M  V30 3 C 5.939242 -2.141746 -1.291279 0
M  V30 4 O 6.771296 -2.062721 -2.238346 0
M  V30 5 C 4.986899 -1.063165 -1.058678 0
M  V30 6 C 5.087864 -0.005656 -1.936590 0
M  V30 7 C 4.199427 1.062862 -1.766990 0
M  V30 8 C 3.250416 1.040236 -0.738349 0
M  V30 9 C 2.343612 2.204282 -0.619125 0
M  V30 10 C 3.227104 -0.062275 0.089232 0
M  V30 11 N 2.220979 0.028981 1.092580 0
M  V30 12 C 2.366477 0.381387 2.390826 0
M  V30 13 N 1.286507 0.414946 3.193174 0
M  V30 14 C 0.049091 0.109291 2.756172 0
M  V30 15 C -1.037596 0.153980 3.599799 0
M  V30 16 C -2.298319 -0.161088 3.133102 0
M  V30 17 C -2.505191 -0.528848 1.811634 0
M  V30 18 N -3.816061 -0.859338 1.315452 0
M  V30 19 C -4.117131 -1.246018 -0.024942 0
M  V30 20 C -5.466214 -0.647877 -0.394823 0
M  V30 21 N -6.476699 -1.286968 0.400227 0
M  V30 22 C -7.647001 -0.485005 0.623040 0
M  V30 23 C -5.973740 -1.813178 1.640745 0
M  V30 24 C -4.952831 -0.812946 2.198980 0
M  V30 25 C -1.408091 -0.565389 0.993766 0
M  V30 26 C -0.117184 -0.251560 1.437417 0
M  V30 27 C 0.988610 -0.291444 0.594849 0
M  V30 28 O 0.763953 -0.629187 -0.596369 0
M  V30 29 C 4.077292 -1.139187 -0.033287 0
M  V30 30 H 8.067328 -3.781106 -0.682781 0
M  V30 31 H 7.027187 -5.207283 -0.639602 0
M  V30 32 H 7.042401 -4.255592 -2.164290 0
M  V30 33 H 5.377680 -3.454252 0.264752 0
M  V30 34 H 5.804437 0.057222 -2.746394 0
M  V30 35 H 4.285494 1.896777 -2.466091 0
M  V30 36 H 2.189181 2.386257 0.464536 0
M  V30 37 H 1.409834 2.076662 -1.196053 0
M  V30 38 H 2.880995 3.109467 -1.009653 0
M  V30 39 H 3.384146 0.613000 2.671815 0
M  V30 40 H -0.870578 0.441935 4.632442 0
M  V30 41 H -3.123621 -0.112070 3.830615 0
M  V30 42 H -4.260780 -2.355234 -0.049713 0
M  V30 43 H -3.345080 -1.012188 -0.779611 0
M  V30 44 H -5.416534 0.428980 -0.135142 0
M  V30 45 H -5.625953 -0.799827 -1.496506 0
M  V30 46 H -8.124416 -0.662966 1.622424 0
M  V30 47 H -8.403625 -0.727470 -0.134283 0
M  V30 48 H -7.356813 0.577242 0.502158 0
M  V30 49 H -5.518304 -2.806369 1.510142 0
M  V30 50 H -6.797719 -1.894662 2.364966 0
M  V30 51 H -5.457293 0.157182 2.225232 0
M  V30 52 H -4.725701 -1.207026 3.225744 0
M  V30 53 H -1.465085 -0.835012 -0.030508 0
M  V30 54 H 4.008925 -1.973851 0.648294 0
M  V30 END ATOM
M  V30 BEGIN BOND
M  V30 1 1 1 2
M  V30 2 1 2 3
M  V30 3 2 3 4
M  V30 4 1 3 5
M  V30 5 2 5 6
M  V30 6 1 6 7
M  V30 7 2 7 8
M  V30 8 1 8 9
M  V30 9 1 8 10
M  V30 10 1 10 11
M  V30 11 1 11 12
M  V30 12 2 12 13
M  V30 13 1 13 14
M  V30 14 2 14 15
M  V30 15 1 15 16
M  V30 16 2 16 17
M  V30 17 1 17 18
M  V30 18 1 18 19
M  V30 19 1 19 20
M  V30 20 1 20 21
M  V30 21 1 21 22
M  V30 22 1 21 23
M  V30 23 1 23 24
M  V30 24 1 17 25
M  V30 25 2 25 26
M  V30 26 1 26 27
M  V30 27 2 27 28
M  V30 28 2 10 29
M  V30 29 1 29 5
M  V30 30 1 27 11
M  V30 31 1 26 14
M  V30 32 1 24 18
M  V30 33 1 1 30
M  V30 34 1 1 31
M  V30 35 1 1 32
M  V30 36 1 2 33
M  V30 37 1 6 34
M  V30 38 1 7 35
M  V30 39 1 9 36
M  V30 40 1 9 37
M  V30 41 1 9 38
M  V30 42 1 12 39
M  V30 43 1 15 40
M  V30 44 1 16 41
M  V30 45 1 19 42
M  V30 46 1 19 43
M  V30 47 1 20 44
M  V30 48 1 20 45
M  V30 49 1 22 46
M  V30 50 1 22 47
M  V30 51 1 22 48
M  V30 52 1 23 49
M  V30 53 1 23 50
M  V30 54 1 24 51
M  V30 55 1 24 52
M  V30 56 1 25 53
M  V30 57 1 29 54
M  V30 END BOND
M  V30 END CTAB
M  END
>  <Dataset>  (636) 
ChEMBL_Kinases

>  <Ligand_Instance>  (636) 
nan

>  <PDB_ID>  (636) 
nan

>  <Standardized_SMILES>  (636) 
CNC(=O)c1ccc(C)c(-n2cnc3ccc(N4CCN(C)CC4)cc3c2=O)c1

>  <Name>  (636) 
nan

>  <Pocket>  (636) 
nan

>  <ATP_Site>  (636) 
nan

>  <Peripheral>  (636) 
nan

>  <Num_H_Atoms_ProtBoundConf>  (636) 
nan

>  <Num_Resolved_Atoms>  (636) 
nan

>  <Num_Not_Resolved_Atoms>  (636) 
nan

$$$$
CHEMBL2031467
     RDKit          3D

  0  0  0  0  0  0  0  0  0  0999 V3000
M  V30 BEGIN CTAB
M  V30 COUNTS 57 60 0 0 0
M  V30 BEGIN ATOM
M  V30 1 C 3.494868 -0.096974 8.365967 0
M  V30 2 C 3.024756 -0.871613 7.149444 0
M  V30 3 N 3.117036 -0.010240 5.983920 0
M  V30 4 C 2.698541 -0.636718 4.742612 0
M  V30 5 O 2.434973 -1.707892 5.293531 0
M  V30 6 C 2.822447 0.290803 3.637030 0
M  V30 7 C 3.250488 1.591786 3.588790 0
M  V30 8 C 3.212578 2.134239 2.331135 0
M  V30 9 C 2.805632 1.529764 1.167306 0
M  V30 10 C 2.816759 2.235536 -0.136285 0
M  V30 11 C 2.378323 0.224246 1.228293 0
M  V30 12 N 1.957612 -0.404809 0.041781 0
M  V30 13 C 2.843199 -1.097307 -0.689835 0
M  V30 14 N 2.373632 -1.693654 -1.825498 0
M  V30 15 C 1.085724 -1.594057 -2.196563 0
M  V30 16 C 0.536504 -2.156028 -3.307879 0
M  V30 17 C -0.782150 -2.061172 -3.696053 0
M  V30 18 C -1.644667 -1.338326 -2.907374 0
M  V30 19 N -3.027732 -1.191102 -3.233120 0
M  V30 20 C -4.074849 -0.508403 -2.483335 0
M  V30 21 C -5.165113 -1.464601 -2.060154 0
M  V30 22 N -5.316246 -2.620052 -2.823547 0
M  V30 23 C -5.814483 -3.783332 -2.181957 0
M  V30 24 C -4.745381 -2.718692 -4.088501 0
M  V30 25 C -3.668153 -1.720219 -4.417476 0
M  V30 26 C -1.171214 -0.722513 -1.742635 0
M  V30 27 C 0.180661 -0.870138 -1.423127 0
M  V30 28 C 0.653177 -0.254034 -0.255633 0
M  V30 29 O -0.121290 0.403013 0.465195 0
M  V30 30 C 2.389609 -0.400061 2.488501 0
M  V30 31 H 4.491582 0.367733 8.210424 0
M  V30 32 H 2.762575 0.712018 8.635496 0
M  V30 33 H 3.511814 -0.766692 9.263015 0
M  V30 34 H 1.940019 -1.063841 7.331260 0
M  V30 35 H 3.635116 -1.791767 7.078783 0
M  V30 36 H 3.477975 0.969299 6.171008 0
M  V30 37 H 3.555156 2.023702 4.505641 0
M  V30 38 H 3.564940 3.179264 2.340080 0
M  V30 39 H 3.785313 2.117732 -0.670866 0
M  V30 40 H 1.931934 1.992643 -0.761346 0
M  V30 41 H 2.723489 3.330780 0.034754 0
M  V30 42 H 3.854834 -1.160769 -0.372658 0
M  V30 43 H 1.208666 -2.737562 -3.949999 0
M  V30 44 H -1.095767 -2.550784 -4.594494 0
M  V30 45 H -4.481221 0.287903 -3.150033 0
M  V30 46 H -3.695789 -0.023871 -1.570694 0
M  V30 47 H -5.010539 -1.742514 -0.973767 0
M  V30 48 H -6.123154 -0.893509 -2.070920 0
M  V30 49 H -6.773741 -3.580314 -1.644564 0
M  V30 50 H -6.016953 -4.629544 -2.861109 0
M  V30 51 H -5.118002 -4.100207 -1.370129 0
M  V30 52 H -4.310922 -3.756366 -4.220255 0
M  V30 53 H -5.510694 -2.624193 -4.883805 0
M  V30 54 H -2.969697 -2.162709 -5.155370 0
M  V30 55 H -4.088741 -0.826172 -4.969759 0
M  V30 56 H -1.756486 -0.140592 -1.066392 0
M  V30 57 H 2.025069 -1.430874 2.392257 0
M  V30 END ATOM
M  V30 BEGIN BOND
M  V30 1 1 1 2
M  V30 2 1 2 3
M  V30 3 1 3 4
M  V30 4 2 4 5
M  V30 5 1 4 6
M  V30 6 2 6 7
M  V30 7 1 7 8
M  V30 8 2 8 9
M  V30 9 1 9 10
M  V30 10 1 9 11
M  V30 11 1 11 12
M  V30 12 1 12 13
M  V30 13 2 13 14
M  V30 14 1 14 15
M  V30 15 2 15 16
M  V30 16 1 16 17
M  V30 17 2 17 18
M  V30 18 1 18 19
M  V30 19 1 19 20
M  V30 20 1 20 21
M  V30 21 1 21 22
M  V30 22 1 22 23
M  V30 23 1 22 24
M  V30 24 1 24 25
M  V30 25 1 18 26
M  V30 26 2 26 27
M  V30 27 1 27 28
M  V30 28 2 28 29
M  V30 29 2 11 30
M  V30 30 1 30 6
M  V30 31 1 28 12
M  V30 32 1 27 15
M  V30 33 1 25 19
M  V30 34 1 1 31
M  V30 35 1 1 32
M  V30 36 1 1 33
M  V30 37 1 2 34
M  V30 38 1 2 35
M  V30 39 1 3 36
M  V30 40 1 7 37
M  V30 41 1 8 38
M  V30 42 1 10 39
M  V30 43 1 10 40
M  V30 44 1 10 41
M  V30 45 1 13 42
M  V30 46 1 16 43
M  V30 47 1 17 44
M  V30 48 1 20 45
M  V30 49 1 20 46
M  V30 50 1 21 47
M  V30 51 1 21 48
M  V30 52 1 23 49
M  V30 53 1 23 50
M  V30 54 1 23 51
M  V30 55 1 24 52
M  V30 56 1 24 53
M  V30 57 1 25 54
M  V30 58 1 25 55
M  V30 59 1 26 56
M  V30 60 1 30 57
M  V30 END BOND
M  V30 END CTAB
M  END
>  <Dataset>  (637) 
ChEMBL_Kinases

>  <Ligand_Instance>  (637) 
nan

>  <PDB_ID>  (637) 
nan

>  <Standardized_SMILES>  (637) 
CCNC(=O)c1ccc(C)c(-n2cnc3ccc(N4CCN(C)CC4)cc3c2=O)c1

>  <Name>  (637) 
nan

>  <Pocket>  (637) 
nan

>  <ATP_Site>  (637) 
nan

>  <Peripheral>  (637) 
nan

>  <Num_H_Atoms_ProtBoundConf>  (637) 
nan

>  <Num_Resolved_Atoms>  (637) 
nan

>  <Num_Not_Resolved_Atoms>  (637) 
nan

$$$$
CHEMBL2031466
     RDKit          3D

  0  0  0  0  0  0  0  0  0  0999 V3000
M  V30 BEGIN CTAB
M  V30 COUNTS 60 63 0 0 0
M  V30 BEGIN ATOM
M  V30 1 C -1.601452 2.186103 3.343790 0
M  V30 2 C -0.200374 2.086922 2.842855 0
M  V30 3 C 0.628158 3.189886 2.968289 0
M  V30 4 C 1.934845 3.165831 2.526061 0
M  V30 5 C 2.454392 2.029544 1.941294 0
M  V30 6 C 3.807079 1.848679 1.426989 0
M  V30 7 O 4.266238 0.810627 0.898637 0
M  V30 8 N 4.719248 2.911092 1.509194 0
M  V30 9 C 6.067526 2.829895 1.032559 0
M  V30 10 C 7.085773 2.964358 2.146255 0
M  V30 11 C 6.403068 3.838502 -0.037775 0
M  V30 12 C 1.634722 0.918564 1.810003 0
M  V30 13 C 0.321869 0.932735 2.250694 0
M  V30 14 N -0.539909 -0.194374 2.127481 0
M  V30 15 C -0.809606 -0.741138 3.342624 0
M  V30 16 N -1.620783 -1.830997 3.414357 0
M  V30 17 C -2.152634 -2.365736 2.299750 0
M  V30 18 C -2.978623 -3.466056 2.312903 0
M  V30 19 C -3.486555 -3.958085 1.129056 0
M  V30 20 C -3.216690 -3.408132 -0.105399 0
M  V30 21 N -3.718496 -3.883469 -1.345800 0
M  V30 22 C -3.367631 -3.216151 -2.594973 0
M  V30 23 C -3.868807 -3.958411 -3.791628 0
M  V30 24 N -3.460229 -5.348546 -3.736174 0
M  V30 25 C -2.015054 -5.384435 -3.838794 0
M  V30 26 C -3.855386 -5.975970 -2.492751 0
M  V30 27 C -4.590559 -5.012846 -1.586956 0
M  V30 28 C -2.395569 -2.316142 -0.106870 0
M  V30 29 C -1.881259 -1.814195 1.068028 0
M  V30 30 C -1.055954 -0.705297 0.994677 0
M  V30 31 O -0.734170 -0.114207 -0.059202 0
M  V30 32 H -2.007316 3.203953 3.130570 0
M  V30 33 H -2.269177 1.475342 2.831152 0
M  V30 34 H -1.652811 2.091808 4.463915 0
M  V30 35 H 0.287402 4.132662 3.423518 0
M  V30 36 H 2.616330 4.002124 2.603471 0
M  V30 37 H 4.528920 3.837358 1.907742 0
M  V30 38 H 6.221659 1.806188 0.610771 0
M  V30 39 H 7.268412 1.966888 2.608833 0
M  V30 40 H 8.039097 3.289695 1.681252 0
M  V30 41 H 6.814016 3.729850 2.890566 0
M  V30 42 H 5.820839 4.763738 0.205060 0
M  V30 43 H 6.087951 3.503294 -1.053828 0
M  V30 44 H 7.487090 4.066278 -0.011443 0
M  V30 45 H 1.958836 -0.006230 1.366814 0
M  V30 46 H -0.452755 -0.414244 4.296328 0
M  V30 47 H -3.223312 -3.938084 3.260052 0
M  V30 48 H -4.131809 -4.822739 1.174718 0
M  V30 49 H -3.639014 -2.162358 -2.597681 0
M  V30 50 H -2.240048 -3.260940 -2.640474 0
M  V30 51 H -4.959925 -3.816059 -3.867202 0
M  V30 52 H -3.441346 -3.443952 -4.675529 0
M  V30 53 H -1.716767 -4.531421 -4.487773 0
M  V30 54 H -1.647738 -6.342768 -4.256876 0
M  V30 55 H -1.595823 -5.186460 -2.831834 0
M  V30 56 H -2.987727 -6.426891 -1.977899 0
M  V30 57 H -4.569014 -6.786900 -2.747137 0
M  V30 58 H -4.729774 -5.538900 -0.623465 0
M  V30 59 H -5.539194 -4.717236 -2.073629 0
M  V30 60 H -2.143506 -1.837506 -1.034298 0
M  V30 END ATOM
M  V30 BEGIN BOND
M  V30 1 1 1 2
M  V30 2 2 2 3
M  V30 3 1 3 4
M  V30 4 2 4 5
M  V30 5 1 5 6
M  V30 6 2 6 7
M  V30 7 1 6 8
M  V30 8 1 8 9
M  V30 9 1 9 10
M  V30 10 1 9 11
M  V30 11 1 5 12
M  V30 12 2 12 13
M  V30 13 1 13 14
M  V30 14 1 14 15
M  V30 15 2 15 16
M  V30 16 1 16 17
M  V30 17 2 17 18
M  V30 18 1 18 19
M  V30 19 2 19 20
M  V30 20 1 20 21
M  V30 21 1 21 22
M  V30 22 1 22 23
M  V30 23 1 23 24
M  V30 24 1 24 25
M  V30 25 1 24 26
M  V30 26 1 26 27
M  V30 27 1 20 28
M  V30 28 2 28 29
M  V30 29 1 29 30
M  V30 30 2 30 31
M  V30 31 1 13 2
M  V30 32 1 30 14
M  V30 33 1 29 17
M  V30 34 1 27 21
M  V30 35 1 1 32
M  V30 36 1 1 33
M  V30 37 1 1 34
M  V30 38 1 3 35
M  V30 39 1 4 36
M  V30 40 1 8 37
M  V30 41 1 9 38
M  V30 42 1 10 39
M  V30 43 1 10 40
M  V30 44 1 10 41
M  V30 45 1 11 42
M  V30 46 1 11 43
M  V30 47 1 11 44
M  V30 48 1 12 45
M  V30 49 1 15 46
M  V30 50 1 18 47
M  V30 51 1 19 48
M  V30 52 1 22 49
M  V30 53 1 22 50
M  V30 54 1 23 51
M  V30 55 1 23 52
M  V30 56 1 25 53
M  V30 57 1 25 54
M  V30 58 1 25 55
M  V30 59 1 26 56
M  V30 60 1 26 57
M  V30 61 1 27 58
M  V30 62 1 27 59
M  V30 63 1 28 60
M  V30 END BOND
M  V30 END CTAB
M  END
>  <Dataset>  (638) 
ChEMBL_Kinases

>  <Ligand_Instance>  (638) 
nan

>  <PDB_ID>  (638) 
nan

>  <Standardized_SMILES>  (638) 
Cc1ccc(C(=O)NC(C)C)cc1-n1cnc2ccc(N3CCN(C)CC3)cc2c1=O

>  <Name>  (638) 
nan

>  <Pocket>  (638) 
nan

>  <ATP_Site>  (638) 
nan

>  <Peripheral>  (638) 
nan

>  <Num_H_Atoms_ProtBoundConf>  (638) 
nan

>  <Num_Resolved_Atoms>  (638) 
nan

>  <Num_Not_Resolved_Atoms>  (638) 
nan

$$$$
CHEMBL2031465
     RDKit          3D

  0  0  0  0  0  0  0  0  0  0999 V3000
M  V30 BEGIN CTAB
M  V30 COUNTS 58 62 0 0 0
M  V30 BEGIN ATOM
M  V30 1 C -0.091063 4.399543 0.501346 0
M  V30 2 C 1.158967 3.603096 0.677778 0
M  V30 3 C 2.341930 4.262540 0.421902 0
M  V30 4 C 3.602565 3.672652 0.536043 0
M  V30 5 C 3.638331 2.349593 0.930195 0
M  V30 6 C 4.951325 1.724815 1.052193 0
M  V30 7 O 5.961623 2.422702 0.794160 0
M  V30 8 N 5.201502 0.402276 1.434774 0
M  V30 9 C 6.524084 -0.135724 1.530418 0
M  V30 10 C 6.850821 -1.553387 1.367554 0
M  V30 11 C 6.836854 -0.955141 2.773661 0
M  V30 12 C 2.469047 1.670627 1.191236 0
M  V30 13 C 1.239260 2.280498 1.069589 0
M  V30 14 N -0.000159 1.628288 1.326024 0
M  V30 15 C -0.893700 2.146046 2.187200 0
M  V30 16 N -2.080260 1.523324 2.433716 0
M  V30 17 C -2.372518 0.353105 1.798259 0
M  V30 18 C -3.557459 -0.296475 2.025404 0
M  V30 19 C -3.836853 -1.479423 1.373892 0
M  V30 20 C -2.957331 -2.049612 0.484817 0
M  V30 21 N -3.252091 -3.266555 -0.180607 0
M  V30 22 C -4.445036 -4.073068 -0.033969 0
M  V30 23 C -5.185368 -3.981154 -1.347288 0
M  V30 24 N -4.454131 -4.702997 -2.340957 0
M  V30 25 C -4.522065 -6.128497 -2.233262 0
M  V30 26 C -3.130047 -4.169700 -2.457148 0
M  V30 27 C -2.431634 -3.947235 -1.135641 0
M  V30 28 C -1.767480 -1.405029 0.251445 0
M  V30 29 C -1.495138 -0.217963 0.909761 0
M  V30 30 C -0.309572 0.460211 0.701777 0
M  V30 31 O 0.548047 0.001303 -0.098734 0
M  V30 32 H -0.214763 5.015239 1.399118 0
M  V30 33 H 0.057471 5.129079 -0.338693 0
M  V30 34 H -0.962817 3.736693 0.304087 0
M  V30 35 H 2.341322 5.317937 0.106030 0
M  V30 36 H 4.495730 4.268348 0.313573 0
M  V30 37 H 4.362328 -0.208300 1.658313 0
M  V30 38 H 7.329043 0.583845 1.276240 0
M  V30 39 H 6.101650 -2.346093 1.230649 0
M  V30 40 H 7.836723 -1.833267 0.941069 0
M  V30 41 H 7.837153 -0.871386 3.244879 0
M  V30 42 H 6.015084 -1.241749 3.458969 0
M  V30 43 H 2.496970 0.630325 1.501192 0
M  V30 44 H -0.712903 3.069559 2.716902 0
M  V30 45 H -4.263731 0.149850 2.731473 0
M  V30 46 H -4.794185 -1.911523 1.620266 0
M  V30 47 H -5.094512 -3.735594 0.813252 0
M  V30 48 H -4.216114 -5.142886 0.225748 0
M  V30 49 H -5.163092 -2.906568 -1.634857 0
M  V30 50 H -6.242917 -4.306290 -1.268967 0
M  V30 51 H -4.242737 -6.542898 -1.250074 0
M  V30 52 H -3.858595 -6.599695 -2.981181 0
M  V30 53 H -5.571684 -6.419788 -2.507513 0
M  V30 54 H -2.504376 -4.928937 -3.007547 0
M  V30 55 H -3.158490 -3.289610 -3.110016 0
M  V30 56 H -2.188566 -4.984729 -0.760424 0
M  V30 57 H -1.474645 -3.469227 -1.332597 0
M  V30 58 H -1.007189 -1.738848 -0.408162 0
M  V30 END ATOM
M  V30 BEGIN BOND
M  V30 1 1 1 2
M  V30 2 2 2 3
M  V30 3 1 3 4
M  V30 4 2 4 5
M  V30 5 1 5 6
M  V30 6 2 6 7
M  V30 7 1 6 8
M  V30 8 1 8 9
M  V30 9 1 9 10
M  V30 10 1 10 11
M  V30 11 1 5 12
M  V30 12 2 12 13
M  V30 13 1 13 14
M  V30 14 1 14 15
M  V30 15 2 15 16
M  V30 16 1 16 17
M  V30 17 2 17 18
M  V30 18 1 18 19
M  V30 19 2 19 20
M  V30 20 1 20 21
M  V30 21 1 21 22
M  V30 22 1 22 23
M  V30 23 1 23 24
M  V30 24 1 24 25
M  V30 25 1 24 26
M  V30 26 1 26 27
M  V30 27 1 20 28
M  V30 28 2 28 29
M  V30 29 1 29 30
M  V30 30 2 30 31
M  V30 31 1 13 2
M  V30 32 1 30 14
M  V30 33 1 11 9
M  V30 34 1 29 17
M  V30 35 1 27 21
M  V30 36 1 1 32
M  V30 37 1 1 33
M  V30 38 1 1 34
M  V30 39 1 3 35
M  V30 40 1 4 36
M  V30 41 1 8 37
M  V30 42 1 9 38
M  V30 43 1 10 39
M  V30 44 1 10 40
M  V30 45 1 11 41
M  V30 46 1 11 42
M  V30 47 1 12 43
M  V30 48 1 15 44
M  V30 49 1 18 45
M  V30 50 1 19 46
M  V30 51 1 22 47
M  V30 52 1 22 48
M  V30 53 1 23 49
M  V30 54 1 23 50
M  V30 55 1 25 51
M  V30 56 1 25 52
M  V30 57 1 25 53
M  V30 58 1 26 54
M  V30 59 1 26 55
M  V30 60 1 27 56
M  V30 61 1 27 57
M  V30 62 1 28 58
M  V30 END BOND
M  V30 END CTAB
M  END
>  <Dataset>  (639) 
ChEMBL_Kinases

>  <Ligand_Instance>  (639) 
nan

>  <PDB_ID>  (639) 
nan

>  <Standardized_SMILES>  (639) 
Cc1ccc(C(=O)NC2CC2)cc1-n1cnc2ccc(N3CCN(C)CC3)cc2c1=O

>  <Name>  (639) 
AZD-6703

>  <Pocket>  (639) 
nan

>  <ATP_Site>  (639) 
nan

>  <Peripheral>  (639) 
nan

>  <Num_H_Atoms_ProtBoundConf>  (639) 
nan

>  <Num_Resolved_Atoms>  (639) 
nan

>  <Num_Not_Resolved_Atoms>  (639) 
nan

$$$$
CHEMBL2031464
     RDKit          3D

  0  0  0  0  0  0  0  0  0  0999 V3000
M  V30 BEGIN CTAB
M  V30 COUNTS 61 65 0 0 0
M  V30 BEGIN ATOM
M  V30 1 C -1.292660 1.230944 4.742418 0
M  V30 2 C 0.034810 1.483790 4.150348 0
M  V30 3 C 1.168155 1.857005 4.843289 0
M  V30 4 C 2.355257 2.059348 4.132581 0
M  V30 5 C 2.475783 1.912141 2.782656 0
M  V30 6 C 3.767972 2.150850 2.151466 0
M  V30 7 O 4.706937 2.484609 2.918894 0
M  V30 8 N 3.959718 2.015667 0.752993 0
M  V30 9 C 5.275410 2.268103 0.183253 0
M  V30 10 C 5.759438 1.131558 -0.713434 0
M  V30 11 C 5.429801 1.944699 -1.943297 0
M  V30 12 C 5.294925 3.153483 -1.028593 0
M  V30 13 C 1.333032 1.538842 2.106777 0
M  V30 14 C 0.138852 1.330261 2.783373 0
M  V30 15 N -0.974832 0.946321 1.972438 0
M  V30 16 C -1.940193 1.775433 1.528089 0
M  V30 17 N -2.926555 1.255848 0.769712 0
M  V30 18 C -2.984603 -0.040304 0.443196 0
M  V30 19 C -4.045192 -0.489604 -0.347944 0
M  V30 20 C -4.058292 -1.852567 -0.660100 0
M  V30 21 C -3.073785 -2.706938 -0.208950 0
M  V30 22 N -3.166601 -4.075136 -0.575611 0
M  V30 23 C -4.252924 -4.552746 -1.414151 0
M  V30 24 C -3.848982 -5.845219 -2.096215 0
M  V30 25 N -2.471322 -5.765275 -2.551771 0
M  V30 26 C -2.242363 -4.583421 -3.353013 0
M  V30 27 C -1.553778 -5.701736 -1.424575 0
M  V30 28 C -2.264727 -5.115210 -0.198124 0
M  V30 29 C -2.028027 -2.269551 0.569926 0
M  V30 30 C -2.007207 -0.910377 0.886237 0
M  V30 31 C -0.979050 -0.386784 1.672744 0
M  V30 32 O -0.110528 -1.189540 2.059911 0
M  V30 33 H -2.080301 1.869625 4.277963 0
M  V30 34 H -1.236371 1.495753 5.820090 0
M  V30 35 H -1.587750 0.143169 4.719240 0
M  V30 36 H 1.076938 1.974821 5.914090 0
M  V30 37 H 3.184812 2.352132 4.790314 0
M  V30 38 H 3.184516 1.740794 0.122762 0
M  V30 39 H 6.025000 2.553283 0.946515 0
M  V30 40 H 6.817250 0.870582 -0.603473 0
M  V30 41 H 5.074867 0.242895 -0.617549 0
M  V30 42 H 4.481792 1.630377 -2.413110 0
M  V30 43 H 6.227168 2.010718 -2.707349 0
M  V30 44 H 6.193447 3.800708 -1.121970 0
M  V30 45 H 4.319142 3.627104 -1.171320 0
M  V30 46 H 1.390289 1.412235 1.033726 0
M  V30 47 H -1.851229 2.818574 1.818406 0
M  V30 48 H -4.773353 0.227828 -0.662681 0
M  V30 49 H -4.908039 -2.115205 -1.271964 0
M  V30 50 H -5.200846 -4.674809 -0.880178 0
M  V30 51 H -4.433747 -3.829309 -2.260466 0
M  V30 52 H -4.453973 -5.957193 -3.032031 0
M  V30 53 H -3.966918 -6.658310 -1.382787 0
M  V30 54 H -1.482548 -4.725019 -4.143925 0
M  V30 55 H -1.896789 -3.720722 -2.714789 0
M  V30 56 H -3.186527 -4.240906 -3.820335 0
M  V30 57 H -0.642433 -5.112811 -1.672865 0
M  V30 58 H -1.228855 -6.714239 -1.162313 0
M  V30 59 H -2.820500 -5.979639 0.257182 0
M  V30 60 H -1.476959 -4.867702 0.503921 0
M  V30 61 H -1.254364 -2.889844 0.935803 0
M  V30 END ATOM
M  V30 BEGIN BOND
M  V30 1 1 1 2
M  V30 2 2 2 3
M  V30 3 1 3 4
M  V30 4 2 4 5
M  V30 5 1 5 6
M  V30 6 2 6 7
M  V30 7 1 6 8
M  V30 8 1 8 9
M  V30 9 1 9 10
M  V30 10 1 10 11
M  V30 11 1 11 12
M  V30 12 1 5 13
M  V30 13 2 13 14
M  V30 14 1 14 15
M  V30 15 1 15 16
M  V30 16 2 16 17
M  V30 17 1 17 18
M  V30 18 2 18 19
M  V30 19 1 19 20
M  V30 20 2 20 21
M  V30 21 1 21 22
M  V30 22 1 22 23
M  V30 23 1 23 24
M  V30 24 1 24 25
M  V30 25 1 25 26
M  V30 26 1 25 27
M  V30 27 1 27 28
M  V30 28 1 21 29
M  V30 29 2 29 30
M  V30 30 1 30 31
M  V30 31 2 31 32
M  V30 32 1 14 2
M  V30 33 1 31 15
M  V30 34 1 12 9
M  V30 35 1 30 18
M  V30 36 1 28 22
M  V30 37 1 1 33
M  V30 38 1 1 34
M  V30 39 1 1 35
M  V30 40 1 3 36
M  V30 41 1 4 37
M  V30 42 1 8 38
M  V30 43 1 9 39
M  V30 44 1 10 40
M  V30 45 1 10 41
M  V30 46 1 11 42
M  V30 47 1 11 43
M  V30 48 1 12 44
M  V30 49 1 12 45
M  V30 50 1 13 46
M  V30 51 1 16 47
M  V30 52 1 19 48
M  V30 53 1 20 49
M  V30 54 1 23 50
M  V30 55 1 23 51
M  V30 56 1 24 52
M  V30 57 1 24 53
M  V30 58 1 26 54
M  V30 59 1 26 55
M  V30 60 1 26 56
M  V30 61 1 27 57
M  V30 62 1 27 58
M  V30 63 1 28 59
M  V30 64 1 28 60
M  V30 65 1 29 61
M  V30 END BOND
M  V30 END CTAB
M  END
>  <Dataset>  (640) 
ChEMBL_Kinases

>  <Ligand_Instance>  (640) 
nan

>  <PDB_ID>  (640) 
nan

>  <Standardized_SMILES>  (640) 
Cc1ccc(C(=O)NC2CCC2)cc1-n1cnc2ccc(N3CCN(C)CC3)cc2c1=O

>  <Name>  (640) 
nan

>  <Pocket>  (640) 
nan

>  <ATP_Site>  (640) 
nan

>  <Peripheral>  (640) 
nan

>  <Num_H_Atoms_ProtBoundConf>  (640) 
nan

>  <Num_Resolved_Atoms>  (640) 
nan

>  <Num_Not_Resolved_Atoms>  (640) 
nan

$$$$
CHEMBL2031463
     RDKit          3D

  0  0  0  0  0  0  0  0  0  0999 V3000
M  V30 BEGIN CTAB
M  V30 COUNTS 64 68 0 0 0
M  V30 BEGIN ATOM
M  V30 1 C 0.969296 -1.215383 3.689196 0
M  V30 2 C 0.982387 0.088696 2.964208 0
M  V30 3 C 1.899063 1.079784 3.235588 0
M  V30 4 C 1.917192 2.289857 2.568143 0
M  V30 5 C 0.989449 2.545210 1.582280 0
M  V30 6 C 0.853211 3.755479 0.774613 0
M  V30 7 O -0.023876 3.919404 -0.114250 0
M  V30 8 N 1.760012 4.829180 0.990991 0
M  V30 9 C 1.618815 6.006423 0.197516 0
M  V30 10 C 2.881063 6.567731 -0.358169 0
M  V30 11 C 3.608222 7.059243 0.849766 0
M  V30 12 C 2.510268 7.760026 1.623757 0
M  V30 13 C 1.211512 7.134970 1.157492 0
M  V30 14 C 0.062290 1.535719 1.311826 0
M  V30 15 C 0.041607 0.337003 1.970534 0
M  V30 16 N -0.906364 -0.688330 1.690309 0
M  V30 17 C -2.027441 -0.722577 2.464047 0
M  V30 18 N -2.937355 -1.680227 2.220245 0
M  V30 19 C -2.763550 -2.572773 1.258466 0
M  V30 20 C -3.712938 -3.520983 1.051910 0
M  V30 21 C -3.544145 -4.456502 0.053437 0
M  V30 22 C -2.451087 -4.494953 -0.768367 0
M  V30 23 N -2.215048 -5.427772 -1.814663 0
M  V30 24 C -1.027993 -5.450781 -2.645859 0
M  V30 25 C -0.841658 -6.907005 -3.088766 0
M  V30 26 N -1.183564 -7.846121 -2.061806 0
M  V30 27 C -0.447432 -7.643549 -0.842113 0
M  V30 28 C -2.599811 -7.857325 -1.846055 0
M  V30 29 C -3.132216 -6.483844 -2.194244 0
M  V30 30 C -1.490359 -3.530101 -0.554335 0
M  V30 31 C -1.634403 -2.575888 0.443888 0
M  V30 32 C -0.713068 -1.587368 0.708432 0
M  V30 33 O 0.312000 -1.554240 0.002620 0
M  V30 34 H 1.532630 -1.083365 4.619068 0
M  V30 35 H -0.074321 -1.478212 4.003558 0
M  V30 36 H 1.396624 -2.019226 3.051454 0
M  V30 37 H 2.647152 0.911030 4.009571 0
M  V30 38 H 2.610571 3.082000 2.749440 0
M  V30 39 H 2.532300 4.826497 1.693560 0
M  V30 40 H 0.787926 5.960625 -0.531188 0
M  V30 41 H 3.471850 5.891949 -0.996528 0
M  V30 42 H 2.603332 7.457847 -0.959877 0
M  V30 43 H 4.061150 6.227471 1.427047 0
M  V30 44 H 4.358325 7.810762 0.530947 0
M  V30 45 H 2.544426 8.857095 1.391124 0
M  V30 46 H 2.700361 7.561992 2.692386 0
M  V30 47 H 0.591617 7.888007 0.628414 0
M  V30 48 H 0.644114 6.701285 1.990037 0
M  V30 49 H -0.693947 1.652837 0.559656 0
M  V30 50 H -2.238156 -0.030148 3.264819 0
M  V30 51 H -4.624542 -3.578676 1.653140 0
M  V30 52 H -4.309438 -5.204019 -0.096800 0
M  V30 53 H -0.117988 -5.081988 -2.130848 0
M  V30 54 H -1.260641 -4.856029 -3.551319 0
M  V30 55 H 0.217031 -6.999601 -3.405745 0
M  V30 56 H -1.460963 -7.126139 -3.981325 0
M  V30 57 H 0.439373 -7.025085 -1.101764 0
M  V30 58 H -1.114966 -7.127013 -0.123743 0
M  V30 59 H -0.148799 -8.590129 -0.344131 0
M  V30 60 H -3.078125 -8.627120 -2.475359 0
M  V30 61 H -2.799469 -8.074716 -0.780743 0
M  V30 62 H -3.268981 -6.469175 -3.312171 0
M  V30 63 H -4.129598 -6.339444 -1.768979 0
M  V30 64 H -0.572461 -3.397696 -1.090626 0
M  V30 END ATOM
M  V30 BEGIN BOND
M  V30 1 1 1 2
M  V30 2 2 2 3
M  V30 3 1 3 4
M  V30 4 2 4 5
M  V30 5 1 5 6
M  V30 6 2 6 7
M  V30 7 1 6 8
M  V30 8 1 8 9
M  V30 9 1 9 10
M  V30 10 1 10 11
M  V30 11 1 11 12
M  V30 12 1 12 13
M  V30 13 1 5 14
M  V30 14 2 14 15
M  V30 15 1 15 16
M  V30 16 1 16 17
M  V30 17 2 17 18
M  V30 18 1 18 19
M  V30 19 2 19 20
M  V30 20 1 20 21
M  V30 21 2 21 22
M  V30 22 1 22 23
M  V30 23 1 23 24
M  V30 24 1 24 25
M  V30 25 1 25 26
M  V30 26 1 26 27
M  V30 27 1 26 28
M  V30 28 1 28 29
M  V30 29 1 22 30
M  V30 30 2 30 31
M  V30 31 1 31 32
M  V30 32 2 32 33
M  V30 33 1 15 2
M  V30 34 1 32 16
M  V30 35 1 13 9
M  V30 36 1 31 19
M  V30 37 1 29 23
M  V30 38 1 1 34
M  V30 39 1 1 35
M  V30 40 1 1 36
M  V30 41 1 3 37
M  V30 42 1 4 38
M  V30 43 1 8 39
M  V30 44 1 9 40
M  V30 45 1 10 41
M  V30 46 1 10 42
M  V30 47 1 11 43
M  V30 48 1 11 44
M  V30 49 1 12 45
M  V30 50 1 12 46
M  V30 51 1 13 47
M  V30 52 1 13 48
M  V30 53 1 14 49
M  V30 54 1 17 50
M  V30 55 1 20 51
M  V30 56 1 21 52
M  V30 57 1 24 53
M  V30 58 1 24 54
M  V30 59 1 25 55
M  V30 60 1 25 56
M  V30 61 1 27 57
M  V30 62 1 27 58
M  V30 63 1 27 59
M  V30 64 1 28 60
M  V30 65 1 28 61
M  V30 66 1 29 62
M  V30 67 1 29 63
M  V30 68 1 30 64
M  V30 END BOND
M  V30 END CTAB
M  END
>  <Dataset>  (641) 
ChEMBL_Kinases

>  <Ligand_Instance>  (641) 
nan

>  <PDB_ID>  (641) 
nan

>  <Standardized_SMILES>  (641) 
Cc1ccc(C(=O)NC2CCCC2)cc1-n1cnc2ccc(N3CCN(C)CC3)cc2c1=O

>  <Name>  (641) 
nan

>  <Pocket>  (641) 
nan

>  <ATP_Site>  (641) 
nan

>  <Peripheral>  (641) 
nan

>  <Num_H_Atoms_ProtBoundConf>  (641) 
nan

>  <Num_Resolved_Atoms>  (641) 
nan

>  <Num_Not_Resolved_Atoms>  (641) 
nan

$$$$
CHEMBL2031462
     RDKit          3D

  0  0  0  0  0  0  0  0  0  0999 V3000
M  V30 BEGIN CTAB
M  V30 COUNTS 57 61 0 0 0
M  V30 BEGIN ATOM
M  V30 1 C 0.781628 0.216969 5.329828 0
M  V30 2 C 1.615086 0.799689 4.249840 0
M  V30 3 C 2.901642 1.152067 4.594870 0
M  V30 4 C 3.751324 1.708250 3.633149 0
M  V30 5 C 3.259445 1.885156 2.355156 0
M  V30 6 C 4.179581 2.468908 1.381656 0
M  V30 7 O 5.329672 2.768454 1.746165 0
M  V30 8 N 3.855524 2.725339 0.025831 0
M  V30 9 C 4.831395 3.301891 -0.850342 0
M  V30 10 C 5.649813 2.418799 -1.540701 0
M  V30 11 C 6.487729 3.227684 -2.303213 0
M  V30 12 N 6.120407 4.489571 -2.021513 0
M  V30 13 O 5.143794 4.514369 -1.164255 0
M  V30 14 C 1.968020 1.526046 2.028683 0
M  V30 15 C 1.111207 0.970984 2.977190 0
M  V30 16 N -0.228149 0.597000 2.644209 0
M  V30 17 C -1.306247 0.970419 3.358870 0
M  V30 18 N -2.542318 0.560619 2.957347 0
M  V30 19 C -2.694646 -0.210641 1.857685 0
M  V30 20 C -3.942216 -0.628969 1.445518 0
M  V30 21 C -4.081634 -1.417126 0.319167 0
M  V30 22 C -2.997855 -1.813925 -0.430458 0
M  V30 23 N -3.157682 -2.623992 -1.585808 0
M  V30 24 C -4.347898 -3.147302 -2.164025 0
M  V30 25 C -4.335888 -4.615655 -2.436071 0
M  V30 26 N -3.210080 -5.084377 -3.165616 0
M  V30 27 C -3.176371 -6.537561 -3.097550 0
M  V30 28 C -2.022144 -4.634254 -2.474623 0
M  V30 29 C -2.111762 -3.102280 -2.444431 0
M  V30 30 C -1.748182 -1.401293 -0.026927 0
M  V30 31 C -1.617503 -0.614107 1.099390 0
M  V30 32 C -0.380110 -0.182380 1.532657 0
M  V30 33 O 0.634754 -0.526859 0.870159 0
M  V30 34 H -0.045929 -0.421288 4.955737 0
M  V30 35 H 1.405540 -0.431599 5.977739 0
M  V30 36 H 0.332008 0.968815 6.004665 0
M  V30 37 H 3.301202 1.017019 5.601134 0
M  V30 38 H 4.756724 1.975309 3.933345 0
M  V30 39 H 2.902447 2.486740 -0.311509 0
M  V30 40 H 5.775453 1.338398 -1.615957 0
M  V30 41 H 7.294309 3.006853 -3.004698 0
M  V30 42 H 1.594822 1.669739 1.024236 0
M  V30 43 H -1.166500 1.585601 4.233102 0
M  V30 44 H -4.790655 -0.314448 2.038027 0
M  V30 45 H -5.099330 -1.683952 0.091386 0
M  V30 46 H -5.220318 -2.830178 -1.561975 0
M  V30 47 H -4.510028 -2.641995 -3.161570 0
M  V30 48 H -5.267303 -4.938020 -2.943740 0
M  V30 49 H -4.349200 -5.136221 -1.448599 0
M  V30 50 H -3.488641 -6.910406 -2.099293 0
M  V30 51 H -3.786683 -7.027033 -3.883083 0
M  V30 52 H -2.113166 -6.900834 -3.212935 0
M  V30 53 H -1.094368 -4.876535 -3.018482 0
M  V30 54 H -1.942825 -5.027024 -1.456264 0
M  V30 55 H -2.214878 -2.734843 -3.490014 0
M  V30 56 H -1.085472 -2.808655 -2.143370 0
M  V30 57 H -0.845532 -1.640688 -0.518630 0
M  V30 END ATOM
M  V30 BEGIN BOND
M  V30 1 1 1 2
M  V30 2 2 2 3
M  V30 3 1 3 4
M  V30 4 2 4 5
M  V30 5 1 5 6
M  V30 6 2 6 7
M  V30 7 1 6 8
M  V30 8 1 8 9
M  V30 9 2 9 10
M  V30 10 1 10 11
M  V30 11 2 11 12
M  V30 12 1 12 13
M  V30 13 1 5 14
M  V30 14 2 14 15
M  V30 15 1 15 16
M  V30 16 1 16 17
M  V30 17 2 17 18
M  V30 18 1 18 19
M  V30 19 2 19 20
M  V30 20 1 20 21
M  V30 21 2 21 22
M  V30 22 1 22 23
M  V30 23 1 23 24
M  V30 24 1 24 25
M  V30 25 1 25 26
M  V30 26 1 26 27
M  V30 27 1 26 28
M  V30 28 1 28 29
M  V30 29 1 22 30
M  V30 30 2 30 31
M  V30 31 1 31 32
M  V30 32 2 32 33
M  V30 33 1 15 2
M  V30 34 1 32 16
M  V30 35 1 13 9
M  V30 36 1 31 19
M  V30 37 1 29 23
M  V30 38 1 1 34
M  V30 39 1 1 35
M  V30 40 1 1 36
M  V30 41 1 3 37
M  V30 42 1 4 38
M  V30 43 1 8 39
M  V30 44 1 10 40
M  V30 45 1 11 41
M  V30 46 1 14 42
M  V30 47 1 17 43
M  V30 48 1 20 44
M  V30 49 1 21 45
M  V30 50 1 24 46
M  V30 51 1 24 47
M  V30 52 1 25 48
M  V30 53 1 25 49
M  V30 54 1 27 50
M  V30 55 1 27 51
M  V30 56 1 27 52
M  V30 57 1 28 53
M  V30 58 1 28 54
M  V30 59 1 29 55
M  V30 60 1 29 56
M  V30 61 1 30 57
M  V30 END BOND
M  V30 END CTAB
M  END
>  <Dataset>  (642) 
ChEMBL_Kinases

>  <Ligand_Instance>  (642) 
nan

>  <PDB_ID>  (642) 
nan

>  <Standardized_SMILES>  (642) 
Cc1ccc(C(=O)Nc2ccno2)cc1-n1cnc2ccc(N3CCN(C)CC3)cc2c1=O

>  <Name>  (642) 
nan

>  <Pocket>  (642) 
nan

>  <ATP_Site>  (642) 
nan

>  <Peripheral>  (642) 
nan

>  <Num_H_Atoms_ProtBoundConf>  (642) 
nan

>  <Num_Resolved_Atoms>  (642) 
nan

>  <Num_Not_Resolved_Atoms>  (642) 
nan

$$$$
CHEMBL2031461
     RDKit          3D

  0  0  0  0  0  0  0  0  0  0999 V3000
M  V30 BEGIN CTAB
M  V30 COUNTS 57 61 0 0 0
M  V30 BEGIN ATOM
M  V30 1 C 0.533188 0.337002 5.366188 0
M  V30 2 C 1.432269 0.893877 4.320766 0
M  V30 3 C 2.694103 1.309657 4.692525 0
M  V30 4 C 3.588611 1.837687 3.783062 0
M  V30 5 C 3.185637 1.942910 2.467628 0
M  V30 6 C 4.147847 2.503561 1.526281 0
M  V30 7 O 5.270403 2.857500 1.937035 0
M  V30 8 N 3.877518 2.674273 0.140576 0
M  V30 9 C 4.798407 3.217634 -0.794481 0
M  V30 10 C 5.166003 4.435746 -1.326651 0
M  V30 11 C 6.177186 4.186257 -2.219123 0
M  V30 12 O 6.405885 2.896470 -2.225220 0
M  V30 13 N 5.603108 2.302011 -1.390900 0
M  V30 14 C 1.934995 1.527886 2.113915 0
M  V30 15 C 1.012583 0.994548 2.995604 0
M  V30 16 N -0.290524 0.567175 2.601625 0
M  V30 17 C -1.432571 0.908884 3.237271 0
M  V30 18 N -2.627113 0.464103 2.803468 0
M  V30 19 C -2.741735 -0.334349 1.726761 0
M  V30 20 C -3.922407 -0.813888 1.243267 0
M  V30 21 C -3.995837 -1.631186 0.134649 0
M  V30 22 C -2.862669 -2.007367 -0.546918 0
M  V30 23 N -2.947814 -2.846764 -1.685592 0
M  V30 24 C -4.125022 -3.381430 -2.278357 0
M  V30 25 C -4.099948 -4.865422 -2.491903 0
M  V30 26 N -2.927255 -5.353699 -3.128676 0
M  V30 27 C -2.941857 -6.802511 -3.116064 0
M  V30 28 C -1.775187 -4.869933 -2.438725 0
M  V30 29 C -1.843938 -3.336128 -2.484167 0
M  V30 30 C -1.670305 -1.525014 -0.061284 0
M  V30 31 C -1.600614 -0.706307 1.049829 0
M  V30 32 C -0.391109 -0.235771 1.516707 0
M  V30 33 O 0.657541 -0.567766 0.908089 0
M  V30 34 H -0.194029 -0.379711 4.934770 0
M  V30 35 H 1.167821 -0.266700 6.048242 0
M  V30 36 H 0.059971 1.117169 5.993990 0
M  V30 37 H 2.991443 1.216759 5.739889 0
M  V30 38 H 4.551130 2.137993 4.151332 0
M  V30 39 H 2.948794 2.389408 -0.239268 0
M  V30 40 H 4.596683 5.293693 -0.938043 0
M  V30 41 H 6.596998 5.047150 -2.742726 0
M  V30 42 H 1.608649 1.604442 1.092117 0
M  V30 43 H -1.355448 1.550742 4.105022 0
M  V30 44 H -4.814487 -0.503240 1.799692 0
M  V30 45 H -4.980635 -1.923366 -0.120617 0
M  V30 46 H -5.052249 -3.055660 -1.778904 0
M  V30 47 H -4.214096 -2.939522 -3.315851 0
M  V30 48 H -5.005016 -5.194484 -3.039237 0
M  V30 49 H -4.174186 -5.347017 -1.483897 0
M  V30 50 H -3.044907 -7.190099 -4.171559 0
M  V30 51 H -3.788931 -7.211646 -2.515827 0
M  V30 52 H -1.977222 -7.232044 -2.750393 0
M  V30 53 H -0.829394 -5.164889 -2.917313 0
M  V30 54 H -1.768038 -5.224364 -1.400179 0
M  V30 55 H -1.950828 -3.049341 -3.552077 0
M  V30 56 H -0.865989 -3.014611 -2.072305 0
M  V30 57 H -0.733399 -1.754055 -0.512952 0
M  V30 END ATOM
M  V30 BEGIN BOND
M  V30 1 1 1 2
M  V30 2 2 2 3
M  V30 3 1 3 4
M  V30 4 2 4 5
M  V30 5 1 5 6
M  V30 6 2 6 7
M  V30 7 1 6 8
M  V30 8 1 8 9
M  V30 9 1 9 10
M  V30 10 2 10 11
M  V30 11 1 11 12
M  V30 12 1 12 13
M  V30 13 1 5 14
M  V30 14 2 14 15
M  V30 15 1 15 16
M  V30 16 1 16 17
M  V30 17 2 17 18
M  V30 18 1 18 19
M  V30 19 2 19 20
M  V30 20 1 20 21
M  V30 21 2 21 22
M  V30 22 1 22 23
M  V30 23 1 23 24
M  V30 24 1 24 25
M  V30 25 1 25 26
M  V30 26 1 26 27
M  V30 27 1 26 28
M  V30 28 1 28 29
M  V30 29 1 22 30
M  V30 30 2 30 31
M  V30 31 1 31 32
M  V30 32 2 32 33
M  V30 33 1 15 2
M  V30 34 1 32 16
M  V30 35 2 13 9
M  V30 36 1 31 19
M  V30 37 1 29 23
M  V30 38 1 1 34
M  V30 39 1 1 35
M  V30 40 1 1 36
M  V30 41 1 3 37
M  V30 42 1 4 38
M  V30 43 1 8 39
M  V30 44 1 10 40
M  V30 45 1 11 41
M  V30 46 1 14 42
M  V30 47 1 17 43
M  V30 48 1 20 44
M  V30 49 1 21 45
M  V30 50 1 24 46
M  V30 51 1 24 47
M  V30 52 1 25 48
M  V30 53 1 25 49
M  V30 54 1 27 50
M  V30 55 1 27 51
M  V30 56 1 27 52
M  V30 57 1 28 53
M  V30 58 1 28 54
M  V30 59 1 29 55
M  V30 60 1 29 56
M  V30 61 1 30 57
M  V30 END BOND
M  V30 END CTAB
M  END
>  <Dataset>  (643) 
ChEMBL_Kinases

>  <Ligand_Instance>  (643) 
nan

>  <PDB_ID>  (643) 
nan

>  <Standardized_SMILES>  (643) 
Cc1ccc(C(=O)Nc2ccon2)cc1-n1cnc2ccc(N3CCN(C)CC3)cc2c1=O

>  <Name>  (643) 
nan

>  <Pocket>  (643) 
nan

>  <ATP_Site>  (643) 
nan

>  <Peripheral>  (643) 
nan

>  <Num_H_Atoms_ProtBoundConf>  (643) 
nan

>  <Num_Resolved_Atoms>  (643) 
nan

>  <Num_Not_Resolved_Atoms>  (643) 
nan

$$$$
CHEMBL2031460
     RDKit          3D

  0  0  0  0  0  0  0  0  0  0999 V3000
M  V30 BEGIN CTAB
M  V30 COUNTS 56 60 0 0 0
M  V30 BEGIN ATOM
M  V30 1 C 0.166114 -0.495745 4.907364 0
M  V30 2 C 1.505947 -0.481857 4.268923 0
M  V30 3 C 2.648769 -0.962718 4.869862 0
M  V30 4 C 3.904665 -0.920697 4.254797 0
M  V30 5 C 3.908313 -0.358513 2.998510 0
M  V30 6 C 5.233229 -0.318744 2.401966 0
M  V30 7 O 6.242985 -0.894781 2.980876 0
M  V30 8 N 5.920895 0.159679 1.316356 0
M  V30 9 C 6.595216 0.626026 0.256563 0
M  V30 10 N 6.888363 0.109452 -0.913487 0
M  V30 11 N 7.576629 0.710579 -1.742127 0
M  V30 12 C 8.100636 1.855522 -1.647717 0
M  V30 13 S 7.488123 2.300579 0.123304 0
M  V30 14 C 2.791647 0.130400 2.366077 0
M  V30 15 C 1.557489 0.069390 3.011373 0
M  V30 16 N 0.507857 0.612822 2.215630 0
M  V30 17 C 0.244450 1.909759 2.016121 0
M  V30 18 N -0.785046 2.264658 1.225665 0
M  V30 19 C -1.596209 1.415785 0.599612 0
M  V30 20 C -2.645378 1.801865 -0.207930 0
M  V30 21 C -3.449482 0.841807 -0.831086 0
M  V30 22 C -3.193930 -0.503686 -0.637807 0
M  V30 23 N -4.036221 -1.429714 -1.310478 0
M  V30 24 C -4.204504 -2.815312 -0.838132 0
M  V30 25 C -5.035355 -3.605795 -1.788695 0
M  V30 26 N -4.434364 -3.472167 -3.104647 0
M  V30 27 C -3.060831 -3.943932 -3.075207 0
M  V30 28 C -4.552317 -2.115891 -3.606063 0
M  V30 29 C -4.779612 -1.093550 -2.514876 0
M  V30 30 C -2.149072 -0.905586 0.167680 0
M  V30 31 C -1.341557 0.051151 0.791692 0
M  V30 32 C -0.275570 -0.328553 1.610464 0
M  V30 33 O -0.140704 -1.594092 1.709932 0
M  V30 34 H 0.002652 0.403619 5.540429 0
M  V30 35 H -0.667965 -0.628769 4.195360 0
M  V30 36 H 0.134265 -1.363424 5.599113 0
M  V30 37 H 2.560156 -1.390013 5.855264 0
M  V30 38 H 4.762282 -1.310281 4.770848 0
M  V30 39 H 4.969557 0.605515 0.962605 0
M  V30 40 H 8.652434 2.237132 -2.414405 0
M  V30 41 H 2.980832 0.526664 1.390210 0
M  V30 42 H 0.899117 2.618233 2.522170 0
M  V30 43 H -2.805451 2.855376 -0.327912 0
M  V30 44 H -4.249993 1.265901 -1.445359 0
M  V30 45 H -4.684782 -2.753572 0.172990 0
M  V30 46 H -3.191238 -3.232750 -0.688917 0
M  V30 47 H -6.058421 -3.193379 -1.815534 0
M  V30 48 H -4.988373 -4.665688 -1.510499 0
M  V30 49 H -2.902108 -4.637182 -3.950244 0
M  V30 50 H -2.931837 -4.592713 -2.186720 0
M  V30 51 H -2.330185 -3.118536 -3.048611 0
M  V30 52 H -3.569619 -1.866228 -4.073336 0
M  V30 53 H -5.314006 -2.047422 -4.395517 0
M  V30 54 H -4.422053 -0.108512 -2.920619 0
M  V30 55 H -5.868096 -1.068732 -2.299101 0
M  V30 56 H -1.954837 -1.959240 0.316114 0
M  V30 END ATOM
M  V30 BEGIN BOND
M  V30 1 1 1 2
M  V30 2 2 2 3
M  V30 3 1 3 4
M  V30 4 2 4 5
M  V30 5 1 5 6
M  V30 6 2 6 7
M  V30 7 1 6 8
M  V30 8 1 8 9
M  V30 9 2 9 10
M  V30 10 1 10 11
M  V30 11 2 11 12
M  V30 12 1 12 13
M  V30 13 1 5 14
M  V30 14 2 14 15
M  V30 15 1 15 16
M  V30 16 1 16 17
M  V30 17 2 17 18
M  V30 18 1 18 19
M  V30 19 2 19 20
M  V30 20 1 20 21
M  V30 21 2 21 22
M  V30 22 1 22 23
M  V30 23 1 23 24
M  V30 24 1 24 25
M  V30 25 1 25 26
M  V30 26 1 26 27
M  V30 27 1 26 28
M  V30 28 1 28 29
M  V30 29 1 22 30
M  V30 30 2 30 31
M  V30 31 1 31 32
M  V30 32 2 32 33
M  V30 33 1 15 2
M  V30 34 1 32 16
M  V30 35 1 13 9
M  V30 36 1 31 19
M  V30 37 1 29 23
M  V30 38 1 1 34
M  V30 39 1 1 35
M  V30 40 1 1 36
M  V30 41 1 3 37
M  V30 42 1 4 38
M  V30 43 1 8 39
M  V30 44 1 12 40
M  V30 45 1 14 41
M  V30 46 1 17 42
M  V30 47 1 20 43
M  V30 48 1 21 44
M  V30 49 1 24 45
M  V30 50 1 24 46
M  V30 51 1 25 47
M  V30 52 1 25 48
M  V30 53 1 27 49
M  V30 54 1 27 50
M  V30 55 1 27 51
M  V30 56 1 28 52
M  V30 57 1 28 53
M  V30 58 1 29 54
M  V30 59 1 29 55
M  V30 60 1 30 56
M  V30 END BOND
M  V30 END CTAB
M  END
>  <Dataset>  (644) 
ChEMBL_Kinases

>  <Ligand_Instance>  (644) 
nan

>  <PDB_ID>  (644) 
nan

>  <Standardized_SMILES>  (644) 
Cc1ccc(C(=O)Nc2nncs2)cc1-n1cnc2ccc(N3CCN(C)CC3)cc2c1=O

>  <Name>  (644) 
nan

>  <Pocket>  (644) 
nan

>  <ATP_Site>  (644) 
nan

>  <Peripheral>  (644) 
nan

>  <Num_H_Atoms_ProtBoundConf>  (644) 
nan

>  <Num_Resolved_Atoms>  (644) 
nan

>  <Num_Not_Resolved_Atoms>  (644) 
nan

$$$$
CHEMBL203138
     RDKit          3D

  0  0  0  0  0  0  0  0  0  0999 V3000
M  V30 BEGIN CTAB
M  V30 COUNTS 41 42 0 0 0
M  V30 BEGIN ATOM
M  V30 1 C -2.038074 -5.666757 0.165097 0
M  V30 2 C -1.630273 -4.242928 -0.070699 0
M  V30 3 O -0.364768 -4.106694 -0.640370 0
M  V30 4 N -0.034480 -2.817905 -0.837286 0
M  V30 5 C 0.635037 -1.915085 0.035089 0
M  V30 6 O 1.013661 -2.258404 1.163455 0
M  V30 7 C 0.902107 -0.544435 -0.368467 0
M  V30 8 C 0.561839 0.025159 -1.576383 0
M  V30 9 N 0.845722 1.306878 -1.874973 0
M  V30 10 C 0.421220 1.772748 -3.199985 0
M  V30 11 C 1.483322 2.126102 -1.014288 0
M  V30 12 O 1.691087 3.305740 -1.412423 0
M  V30 13 C 1.849524 1.617441 0.208090 0
M  V30 14 C 2.541733 2.527255 1.127312 0
M  V30 15 C 1.556488 0.287324 0.521576 0
M  V30 16 N 1.991645 -0.103099 1.814957 0
M  V30 17 C 1.108461 0.059601 2.922004 0
M  V30 18 C -0.143889 0.594284 2.689836 0
M  V30 19 C -0.998281 0.750225 3.769623 0
M  V30 20 C -0.612818 0.379875 5.061146 0
M  V30 21 Br -1.848841 0.623861 6.514237 0
M  V30 22 C 0.643154 -0.151842 5.267241 0
M  V30 23 C 1.497154 -0.308900 4.194978 0
M  V30 24 F 2.740437 -0.840639 4.431099 0
M  V30 25 H -2.706446 -5.686567 1.076456 0
M  V30 26 H -2.615490 -6.019861 -0.728797 0
M  V30 27 H -1.146810 -6.304048 0.302907 0
M  V30 28 H -1.601313 -3.694984 0.899182 0
M  V30 29 H -2.415686 -3.769601 -0.703275 0
M  V30 30 H -0.358744 -2.541616 -1.790508 0
M  V30 31 H 0.050180 -0.605705 -2.286790 0
M  V30 32 H 1.103491 1.452704 -3.999587 0
M  V30 33 H 0.337287 2.877299 -3.254476 0
M  V30 34 H -0.605539 1.360409 -3.424910 0
M  V30 35 H 3.614756 2.578678 0.778436 0
M  V30 36 H 2.158419 3.579765 1.056056 0
M  V30 37 H 2.574703 2.122911 2.137980 0
M  V30 38 H 2.954386 -0.513736 1.990876 0
M  V30 39 H -0.510122 0.903079 1.718228 0
M  V30 40 H -1.981207 1.168273 3.596919 0
M  V30 41 H 0.889804 -0.422859 6.295518 0
M  V30 END ATOM
M  V30 BEGIN BOND
M  V30 1 1 1 2
M  V30 2 1 2 3
M  V30 3 1 3 4
M  V30 4 1 4 5
M  V30 5 2 5 6
M  V30 6 1 5 7
M  V30 7 2 7 8
M  V30 8 1 8 9
M  V30 9 1 9 10
M  V30 10 1 9 11
M  V30 11 2 11 12
M  V30 12 1 11 13
M  V30 13 1 13 14
M  V30 14 2 13 15
M  V30 15 1 15 16
M  V30 16 1 16 17
M  V30 17 2 17 18
M  V30 18 1 18 19
M  V30 19 2 19 20
M  V30 20 1 20 21
M  V30 21 1 20 22
M  V30 22 2 22 23
M  V30 23 1 23 24
M  V30 24 1 15 7
M  V30 25 1 23 17
M  V30 26 1 1 25
M  V30 27 1 1 26
M  V30 28 1 1 27
M  V30 29 1 2 28
M  V30 30 1 2 29
M  V30 31 1 4 30
M  V30 32 1 8 31
M  V30 33 1 10 32
M  V30 34 1 10 33
M  V30 35 1 10 34
M  V30 36 1 14 35
M  V30 37 1 14 36
M  V30 38 1 14 37
M  V30 39 1 16 38
M  V30 40 1 18 39
M  V30 41 1 19 40
M  V30 42 1 22 41
M  V30 END BOND
M  V30 END CTAB
M  END
>  <Dataset>  (645) 
ChEMBL_Kinases

>  <Ligand_Instance>  (645) 
nan

>  <PDB_ID>  (645) 
nan

>  <Standardized_SMILES>  (645) 
CCONC(=O)c1cn(C)c(=O)c(C)c1Nc1ccc(Br)cc1F

>  <Name>  (645) 
nan

>  <Pocket>  (645) 
nan

>  <ATP_Site>  (645) 
nan

>  <Peripheral>  (645) 
nan

>  <Num_H_Atoms_ProtBoundConf>  (645) 
nan

>  <Num_Resolved_Atoms>  (645) 
nan

>  <Num_Not_Resolved_Atoms>  (645) 
nan

$$$$
CHEMBL203133
     RDKit          3D

  0  0  0  0  0  0  0  0  0  0999 V3000
M  V30 BEGIN CTAB
M  V30 COUNTS 46 48 0 0 0
M  V30 BEGIN ATOM
M  V30 1 C 4.758737 -0.766338 6.056331 0
M  V30 2 N 4.248753 -0.492121 4.746812 0
M  V30 3 C 2.820708 -0.316416 4.815092 0
M  V30 4 C 4.819553 0.712798 4.169613 0
M  V30 5 C 4.269174 0.959823 2.822349 0
M  V30 6 C 3.813301 1.141889 1.720871 0
M  V30 7 C 3.245689 1.345602 0.401337 0
M  V30 8 C 3.847768 2.174658 -0.495360 0
M  V30 9 C 3.265354 2.331190 -1.734095 0
M  V30 10 C 2.083814 1.657108 -2.067652 0
M  V30 11 C 1.455363 0.808793 -1.168262 0
M  V30 12 C 0.240082 0.143403 -1.595332 0
M  V30 13 O 0.207451 -0.045554 -2.860148 0
M  V30 14 C -0.905093 -0.323658 -0.832357 0
M  V30 15 C -1.227050 -0.246640 0.503697 0
M  V30 16 N -2.432457 -0.843342 0.673665 0
M  V30 17 N -2.860581 -1.282726 -0.509389 0
M  V30 18 C -4.102442 -1.957545 -0.662997 0
M  V30 19 C -5.268160 -1.398864 -1.075307 0
M  V30 20 C -6.396641 -2.204880 -1.171601 0
M  V30 21 C -6.363878 -3.551573 -0.860727 0
M  V30 22 F -7.478809 -4.326387 -0.960708 0
M  V30 23 C -5.153188 -4.104738 -0.438595 0
M  V30 24 C -4.029802 -3.292112 -0.345042 0
M  V30 25 C -1.934877 -0.975766 -1.466413 0
M  V30 26 N -2.191199 -1.359077 -2.832496 0
M  V30 27 C 2.101383 0.707808 0.044916 0
M  V30 28 H 5.748237 -1.299213 6.035610 0
M  V30 29 H 4.808726 0.153830 6.701708 0
M  V30 30 H 4.058548 -1.444533 6.581035 0
M  V30 31 H 2.339458 -0.568777 3.829128 0
M  V30 32 H 2.589181 0.778852 4.942335 0
M  V30 33 H 2.339767 -0.881750 5.642249 0
M  V30 34 H 4.554840 1.541930 4.864497 0
M  V30 35 H 5.903215 0.671651 4.061004 0
M  V30 36 H 4.753987 2.700568 -0.258767 0
M  V30 37 H 3.746346 2.994065 -2.452096 0
M  V30 38 H 1.719465 1.861979 -3.077976 0
M  V30 39 H -0.629994 0.208499 1.265579 0
M  V30 40 H -5.269043 -0.349064 -1.311569 0
M  V30 41 H -7.326592 -1.756393 -1.501161 0
M  V30 42 H -5.186765 -5.155975 -0.210478 0
M  V30 43 H -3.160728 -3.847032 -0.006524 0
M  V30 44 H -2.137786 -2.361076 -3.172442 0
M  V30 45 H -2.452475 -0.841674 -3.700667 0
M  V30 46 H 1.656954 0.052309 0.778237 0
M  V30 END ATOM
M  V30 BEGIN BOND
M  V30 1 1 1 2
M  V30 2 1 2 3
M  V30 3 1 2 4
M  V30 4 1 4 5
M  V30 5 3 5 6
M  V30 6 1 6 7
M  V30 7 2 7 8
M  V30 8 1 8 9
M  V30 9 2 9 10
M  V30 10 1 10 11
M  V30 11 1 11 12
M  V30 12 2 12 13
M  V30 13 1 12 14
M  V30 14 1 14 15
M  V30 15 2 15 16
M  V30 16 1 16 17
M  V30 17 1 17 18
M  V30 18 2 18 19
M  V30 19 1 19 20
M  V30 20 2 20 21
M  V30 21 1 21 22
M  V30 22 1 21 23
M  V30 23 2 23 24
M  V30 24 1 17 25
M  V30 25 1 25 26
M  V30 26 2 11 27
M  V30 27 1 27 7
M  V30 28 2 25 14
M  V30 29 1 24 18
M  V30 30 1 1 28
M  V30 31 1 1 29
M  V30 32 1 1 30
M  V30 33 1 3 31
M  V30 34 1 3 32
M  V30 35 1 3 33
M  V30 36 1 4 34
M  V30 37 1 4 35
M  V30 38 1 8 36
M  V30 39 1 9 37
M  V30 40 1 10 38
M  V30 41 1 15 39
M  V30 42 1 19 40
M  V30 43 1 20 41
M  V30 44 1 23 42
M  V30 45 1 24 43
M  V30 46 1 26 44
M  V30 47 1 26 45
M  V30 48 1 27 46
M  V30 END BOND
M  V30 END CTAB
M  END
>  <Dataset>  (646) 
ChEMBL_Kinases

>  <Ligand_Instance>  (646) 
nan

>  <PDB_ID>  (646) 
nan

>  <Standardized_SMILES>  (646) 
CN(C)CC#Cc1cccc(C(=O)c2cnn(-c3ccc(F)cc3)c2N)c1

>  <Name>  (646) 
nan

>  <Pocket>  (646) 
nan

>  <ATP_Site>  (646) 
nan

>  <Peripheral>  (646) 
nan

>  <Num_H_Atoms_ProtBoundConf>  (646) 
nan

>  <Num_Resolved_Atoms>  (646) 
nan

>  <Num_Not_Resolved_Atoms>  (646) 
nan

$$$$
CHEMBL2031243
     RDKit          3D

  0  0  0  0  0  0  0  0  0  0999 V3000
M  V30 BEGIN CTAB
M  V30 COUNTS 60 64 0 0 0
M  V30 BEGIN ATOM
M  V30 1 C 7.277797 -0.952986 7.228049 0
M  V30 2 C 6.426682 0.035241 6.462063 0
M  V30 3 C 5.552757 1.119815 6.603002 0
M  V30 4 N 5.062010 1.637061 5.505372 0
M  V30 5 C 5.322085 1.229409 4.373890 0
M  V30 6 N 4.636317 1.986952 3.298432 0
M  V30 7 C 3.362169 1.445707 2.956072 0
M  V30 8 O 3.054861 0.425632 3.629250 0
M  V30 9 C 2.546979 2.067097 1.914596 0
M  V30 10 C 2.866163 3.185434 1.170119 0
M  V30 11 C 1.990126 3.660397 0.214514 0
M  V30 12 C 0.768528 3.028295 -0.022694 0
M  V30 13 C -0.081142 3.637091 -1.074418 0
M  V30 14 C 0.460148 1.903410 0.734173 0
M  V30 15 N -0.810512 1.324713 0.419288 0
M  V30 16 C -1.960716 2.014094 0.548842 0
M  V30 17 N -3.137478 1.428370 0.239440 0
M  V30 18 C -3.191562 0.146507 -0.204249 0
M  V30 19 C -4.373831 -0.476570 -0.527017 0
M  V30 20 C -4.379926 -1.795433 -0.979242 0
M  V30 21 C -3.197895 -2.476870 -1.102970 0
M  V30 22 N -3.267489 -3.817370 -1.569687 0
M  V30 23 C -4.526569 -4.434781 -1.935702 0
M  V30 24 C -4.275569 -5.683477 -2.751650 0
M  V30 25 N -3.286194 -5.436102 -3.766474 0
M  V30 26 C -3.742799 -4.547282 -4.784530 0
M  V30 27 C -1.993717 -5.085699 -3.225952 0
M  V30 28 C -2.161972 -4.736951 -1.746327 0
M  V30 29 C -1.984691 -1.904661 -0.794567 0
M  V30 30 C -2.043752 -0.584106 -0.347949 0
M  V30 31 C -0.846757 0.032926 -0.026075 0
M  V30 32 O 0.250544 -0.609466 -0.144169 0
M  V30 33 C 1.340973 1.433965 1.688147 0
M  V30 34 S 6.455417 -0.144861 4.602014 0
M  V30 35 H 8.366505 -0.736980 7.078086 0
M  V30 36 H 7.029116 -1.992251 6.883522 0
M  V30 37 H 7.046744 -0.837105 8.288368 0
M  V30 38 H 5.441200 1.339304 7.656921 0
M  V30 39 H 5.029395 2.813193 2.843904 0
M  V30 40 H 3.825494 3.633292 1.397353 0
M  V30 41 H 2.310363 4.543958 -0.330932 0
M  V30 42 H -0.819669 2.919655 -1.475989 0
M  V30 43 H -0.672799 4.437844 -0.571626 0
M  V30 44 H 0.552932 4.073248 -1.868849 0
M  V30 45 H -1.951938 3.043155 0.901992 0
M  V30 46 H -5.274892 0.121970 -0.405589 0
M  V30 47 H -5.370940 -2.149945 -1.191870 0
M  V30 48 H -5.150581 -3.700077 -2.491632 0
M  V30 49 H -5.049912 -4.682130 -0.986187 0
M  V30 50 H -4.057802 -6.553851 -2.127403 0
M  V30 51 H -5.224501 -5.912680 -3.285430 0
M  V30 52 H -4.279561 -5.037671 -5.630133 0
M  V30 53 H -4.404297 -3.756600 -4.388386 0
M  V30 54 H -2.891150 -3.989382 -5.273032 0
M  V30 55 H -1.664529 -4.151733 -3.740920 0
M  V30 56 H -1.231463 -5.847169 -3.381339 0
M  V30 57 H -2.424406 -5.700570 -1.229889 0
M  V30 58 H -1.220376 -4.415150 -1.294232 0
M  V30 59 H -1.043367 -2.428658 -0.886576 0
M  V30 60 H 0.976121 0.565871 2.191145 0
M  V30 END ATOM
M  V30 BEGIN BOND
M  V30 1 1 1 2
M  V30 2 2 2 3
M  V30 3 1 3 4
M  V30 4 2 4 5
M  V30 5 1 5 6
M  V30 6 1 6 7
M  V30 7 2 7 8
M  V30 8 1 7 9
M  V30 9 2 9 10
M  V30 10 1 10 11
M  V30 11 2 11 12
M  V30 12 1 12 13
M  V30 13 1 12 14
M  V30 14 1 14 15
M  V30 15 1 15 16
M  V30 16 2 16 17
M  V30 17 1 17 18
M  V30 18 2 18 19
M  V30 19 1 19 20
M  V30 20 2 20 21
M  V30 21 1 21 22
M  V30 22 1 22 23
M  V30 23 1 23 24
M  V30 24 1 24 25
M  V30 25 1 25 26
M  V30 26 1 25 27
M  V30 27 1 27 28
M  V30 28 1 21 29
M  V30 29 2 29 30
M  V30 30 1 30 31
M  V30 31 2 31 32
M  V30 32 2 14 33
M  V30 33 1 5 34
M  V30 34 1 34 2
M  V30 35 1 33 9
M  V30 36 1 31 15
M  V30 37 1 30 18
M  V30 38 1 28 22
M  V30 39 1 1 35
M  V30 40 1 1 36
M  V30 41 1 1 37
M  V30 42 1 3 38
M  V30 43 1 6 39
M  V30 44 1 10 40
M  V30 45 1 11 41
M  V30 46 1 13 42
M  V30 47 1 13 43
M  V30 48 1 13 44
M  V30 49 1 16 45
M  V30 50 1 19 46
M  V30 51 1 20 47
M  V30 52 1 23 48
M  V30 53 1 23 49
M  V30 54 1 24 50
M  V30 55 1 24 51
M  V30 56 1 26 52
M  V30 57 1 26 53
M  V30 58 1 26 54
M  V30 59 1 27 55
M  V30 60 1 27 56
M  V30 61 1 28 57
M  V30 62 1 28 58
M  V30 63 1 29 59
M  V30 64 1 33 60
M  V30 END BOND
M  V30 END CTAB
M  END
>  <Dataset>  (647) 
ChEMBL_Kinases

>  <Ligand_Instance>  (647) 
nan

>  <PDB_ID>  (647) 
nan

>  <Standardized_SMILES>  (647) 
Cc1cnc(NC(=O)c2ccc(C)c(-n3cnc4ccc(N5CCN(C)CC5)cc4c3=O)c2)s1

>  <Name>  (647) 
nan

>  <Pocket>  (647) 
nan

>  <ATP_Site>  (647) 
nan

>  <Peripheral>  (647) 
nan

>  <Num_H_Atoms_ProtBoundConf>  (647) 
nan

>  <Num_Resolved_Atoms>  (647) 
nan

>  <Num_Not_Resolved_Atoms>  (647) 
nan

$$$$
CHEMBL2031242
     RDKit          3D

  0  0  0  0  0  0  0  0  0  0999 V3000
M  V30 BEGIN CTAB
M  V30 COUNTS 60 64 0 0 0
M  V30 BEGIN ATOM
M  V30 1 C 6.794129 -1.420486 5.940734 0
M  V30 2 C 6.016475 -0.163023 5.858836 0
M  V30 3 C 5.522071 0.767910 6.949474 0
M  V30 4 S 4.644857 2.086099 5.986136 0
M  V30 5 C 5.074848 1.198867 4.363951 0
M  V30 6 N 4.558959 1.903478 3.199641 0
M  V30 7 C 3.238951 1.467045 2.849690 0
M  V30 8 O 2.832845 0.572195 3.635138 0
M  V30 9 C 2.592895 2.087803 1.698334 0
M  V30 10 C 3.094249 3.075499 0.875643 0
M  V30 11 C 2.290838 3.505543 -0.159144 0
M  V30 12 C 1.033643 2.987018 -0.385481 0
M  V30 13 C 0.264960 3.547059 -1.549441 0
M  V30 14 C 0.529475 1.993645 0.442026 0
M  V30 15 N -0.775997 1.482298 0.174270 0
M  V30 16 C -1.914008 2.236113 0.133678 0
M  V30 17 N -3.109636 1.680269 -0.126276 0
M  V30 18 C -3.205232 0.358460 -0.352911 0
M  V30 19 C -4.420406 -0.244443 -0.623841 0
M  V30 20 C -4.461651 -1.604752 -0.849310 0
M  V30 21 C -3.362159 -2.427812 -0.825342 0
M  V30 22 N -3.455293 -3.822095 -1.068077 0
M  V30 23 C -4.651486 -4.544365 -1.446015 0
M  V30 24 C -4.335640 -5.480927 -2.568802 0
M  V30 25 N -3.093301 -5.230709 -3.222997 0
M  V30 26 C -3.182804 -4.128368 -4.127473 0
M  V30 27 C -1.945883 -5.141975 -2.368880 0
M  V30 28 C -2.340420 -4.736919 -0.965427 0
M  V30 29 C -2.165409 -1.828526 -0.557810 0
M  V30 30 C -2.097557 -0.460176 -0.327157 0
M  V30 31 C -0.879979 0.141828 -0.056577 0
M  V30 32 O 0.170766 -0.580398 -0.023276 0
M  V30 33 C 1.338917 1.557840 1.487494 0
M  V30 34 N 5.655098 0.287449 4.657832 0
M  V30 35 H 7.775044 -1.341586 5.426508 0
M  V30 36 H 6.210618 -2.291264 5.528444 0
M  V30 37 H 7.032281 -1.718219 6.976831 0
M  V30 38 H 5.921105 0.242134 8.027987 0
M  V30 39 H 5.104244 2.623123 2.710451 0
M  V30 40 H 4.086047 3.417331 1.133060 0
M  V30 41 H 2.748304 4.293623 -0.777462 0
M  V30 42 H -0.266629 4.461708 -1.228052 0
M  V30 43 H 0.952637 3.826566 -2.379483 0
M  V30 44 H -0.515340 2.832239 -1.893841 0
M  V30 45 H -1.776154 3.299787 0.324861 0
M  V30 46 H -5.288183 0.394389 -0.644204 0
M  V30 47 H -5.455996 -1.974195 -1.050247 0
M  V30 48 H -5.498621 -3.881949 -1.722798 0
M  V30 49 H -4.982731 -5.158636 -0.581004 0
M  V30 50 H -5.131387 -5.382032 -3.362531 0
M  V30 51 H -4.384010 -6.554772 -2.237213 0
M  V30 52 H -4.113479 -4.293173 -4.742926 0
M  V30 53 H -3.263127 -3.139674 -3.633119 0
M  V30 54 H -2.322527 -4.074598 -4.836042 0
M  V30 55 H -1.293454 -4.323834 -2.757923 0
M  V30 56 H -1.335014 -6.085250 -2.376495 0
M  V30 57 H -2.626109 -5.703783 -0.457408 0
M  V30 58 H -1.496458 -4.354651 -0.391451 0
M  V30 59 H -1.225725 -2.358362 -0.510591 0
M  V30 60 H 0.844225 0.778671 2.070879 0
M  V30 END ATOM
M  V30 BEGIN BOND
M  V30 1 1 1 2
M  V30 2 2 2 3
M  V30 3 1 3 4
M  V30 4 1 4 5
M  V30 5 1 5 6
M  V30 6 1 6 7
M  V30 7 2 7 8
M  V30 8 1 7 9
M  V30 9 2 9 10
M  V30 10 1 10 11
M  V30 11 2 11 12
M  V30 12 1 12 13
M  V30 13 1 12 14
M  V30 14 1 14 15
M  V30 15 1 15 16
M  V30 16 2 16 17
M  V30 17 1 17 18
M  V30 18 2 18 19
M  V30 19 1 19 20
M  V30 20 2 20 21
M  V30 21 1 21 22
M  V30 22 1 22 23
M  V30 23 1 23 24
M  V30 24 1 24 25
M  V30 25 1 25 26
M  V30 26 1 25 27
M  V30 27 1 27 28
M  V30 28 1 21 29
M  V30 29 2 29 30
M  V30 30 1 30 31
M  V30 31 2 31 32
M  V30 32 2 14 33
M  V30 33 2 5 34
M  V30 34 1 34 2
M  V30 35 1 33 9
M  V30 36 1 31 15
M  V30 37 1 30 18
M  V30 38 1 28 22
M  V30 39 1 1 35
M  V30 40 1 1 36
M  V30 41 1 1 37
M  V30 42 1 3 38
M  V30 43 1 6 39
M  V30 44 1 10 40
M  V30 45 1 11 41
M  V30 46 1 13 42
M  V30 47 1 13 43
M  V30 48 1 13 44
M  V30 49 1 16 45
M  V30 50 1 19 46
M  V30 51 1 20 47
M  V30 52 1 23 48
M  V30 53 1 23 49
M  V30 54 1 24 50
M  V30 55 1 24 51
M  V30 56 1 26 52
M  V30 57 1 26 53
M  V30 58 1 26 54
M  V30 59 1 27 55
M  V30 60 1 27 56
M  V30 61 1 28 57
M  V30 62 1 28 58
M  V30 63 1 29 59
M  V30 64 1 33 60
M  V30 END BOND
M  V30 END CTAB
M  END
>  <Dataset>  (648) 
ChEMBL_Kinases

>  <Ligand_Instance>  (648) 
nan

>  <PDB_ID>  (648) 
nan

>  <Standardized_SMILES>  (648) 
Cc1csc(NC(=O)c2ccc(C)c(-n3cnc4ccc(N5CCN(C)CC5)cc4c3=O)c2)n1

>  <Name>  (648) 
nan

>  <Pocket>  (648) 
nan

>  <ATP_Site>  (648) 
nan

>  <Peripheral>  (648) 
nan

>  <Num_H_Atoms_ProtBoundConf>  (648) 
nan

>  <Num_Resolved_Atoms>  (648) 
nan

>  <Num_Not_Resolved_Atoms>  (648) 
nan

$$$$
CHEMBL2031241
     RDKit          3D

  0  0  0  0  0  0  0  0  0  0999 V3000
M  V30 BEGIN CTAB
M  V30 COUNTS 57 61 0 0 0
M  V30 BEGIN ATOM
M  V30 1 C 0.564780 0.808614 5.128068 0
M  V30 2 C 1.449024 1.257006 4.012924 0
M  V30 3 C 2.744690 1.664749 4.278380 0
M  V30 4 C 3.619322 2.092380 3.298327 0
M  V30 5 C 3.153881 2.104886 1.993403 0
M  V30 6 C 4.080080 2.556944 0.961209 0
M  V30 7 O 5.223431 2.903997 1.287552 0
M  V30 8 N 3.742974 2.622859 -0.411577 0
M  V30 9 C 4.767166 3.093023 -1.328257 0
M  V30 10 N 5.782855 2.300942 -2.048522 0
M  V30 11 C 6.477722 3.202272 -2.757541 0
M  V30 12 C 6.373718 4.576639 -2.877587 0
M  V30 13 S 4.964885 4.810310 -1.748922 0
M  V30 14 C 1.863602 1.699698 1.722030 0
M  V30 15 C 0.982499 1.271043 2.693050 0
M  V30 16 N -0.349622 0.852906 2.410688 0
M  V30 17 C -1.474179 1.375188 2.932689 0
M  V30 18 N -2.686972 0.890060 2.584957 0
M  V30 19 C -2.817478 -0.127283 1.709164 0
M  V30 20 C -4.052472 -0.623505 1.353217 0
M  V30 21 C -4.113176 -1.665508 0.451898 0
M  V30 22 C -3.014698 -2.261353 -0.132308 0
M  V30 23 N -3.105912 -3.337575 -1.059284 0
M  V30 24 C -4.389247 -3.873415 -1.395056 0
M  V30 25 C -4.389494 -5.253500 -1.965196 0
M  V30 26 N -3.158859 -5.690077 -2.536632 0
M  V30 27 C -2.563033 -6.837312 -1.893246 0
M  V30 28 C -2.223493 -4.655891 -2.844885 0
M  V30 29 C -1.873665 -3.837749 -1.621414 0
M  V30 30 C -1.813709 -1.714296 0.269828 0
M  V30 31 C -1.678759 -0.678335 1.161320 0
M  V30 32 C -0.427105 -0.178515 1.519496 0
M  V30 33 O 0.604558 -0.710512 0.994741 0
M  V30 34 H 1.218116 0.200928 5.802745 0
M  V30 35 H -0.204792 0.095939 4.746398 0
M  V30 36 H 0.146012 1.617260 5.724968 0
M  V30 37 H 3.138174 1.665035 5.298956 0
M  V30 38 H 4.623211 2.400725 3.561507 0
M  V30 39 H 2.790297 2.339072 -0.723413 0
M  V30 40 H 7.190815 2.509301 -3.242713 0
M  V30 41 H 7.036184 5.058906 -3.497050 0
M  V30 42 H 1.499403 1.706335 0.725276 0
M  V30 43 H -1.343723 2.185187 3.628421 0
M  V30 44 H -4.939647 -0.185584 1.787463 0
M  V30 45 H -5.107753 -2.012816 0.209781 0
M  V30 46 H -4.998725 -3.933692 -0.445672 0
M  V30 47 H -4.930997 -3.160724 -2.051889 0
M  V30 48 H -5.170912 -5.285508 -2.771721 0
M  V30 49 H -4.690759 -6.023355 -1.225136 0
M  V30 50 H -1.495026 -6.701763 -1.629970 0
M  V30 51 H -3.093689 -7.170881 -0.985535 0
M  V30 52 H -2.598850 -7.675125 -2.620044 0
M  V30 53 H -2.544085 -4.016854 -3.680793 0
M  V30 54 H -1.286833 -5.150074 -3.176926 0
M  V30 55 H -1.161432 -3.036025 -1.899488 0
M  V30 56 H -1.391381 -4.483338 -0.869473 0
M  V30 57 H -0.884904 -2.095388 -0.117118 0
M  V30 END ATOM
M  V30 BEGIN BOND
M  V30 1 1 1 2
M  V30 2 2 2 3
M  V30 3 1 3 4
M  V30 4 2 4 5
M  V30 5 1 5 6
M  V30 6 2 6 7
M  V30 7 1 6 8
M  V30 8 1 8 9
M  V30 9 2 9 10
M  V30 10 1 10 11
M  V30 11 2 11 12
M  V30 12 1 12 13
M  V30 13 1 5 14
M  V30 14 2 14 15
M  V30 15 1 15 16
M  V30 16 1 16 17
M  V30 17 2 17 18
M  V30 18 1 18 19
M  V30 19 2 19 20
M  V30 20 1 20 21
M  V30 21 2 21 22
M  V30 22 1 22 23
M  V30 23 1 23 24
M  V30 24 1 24 25
M  V30 25 1 25 26
M  V30 26 1 26 27
M  V30 27 1 26 28
M  V30 28 1 28 29
M  V30 29 1 22 30
M  V30 30 2 30 31
M  V30 31 1 31 32
M  V30 32 2 32 33
M  V30 33 1 15 2
M  V30 34 1 32 16
M  V30 35 1 13 9
M  V30 36 1 31 19
M  V30 37 1 29 23
M  V30 38 1 1 34
M  V30 39 1 1 35
M  V30 40 1 1 36
M  V30 41 1 3 37
M  V30 42 1 4 38
M  V30 43 1 8 39
M  V30 44 1 11 40
M  V30 45 1 12 41
M  V30 46 1 14 42
M  V30 47 1 17 43
M  V30 48 1 20 44
M  V30 49 1 21 45
M  V30 50 1 24 46
M  V30 51 1 24 47
M  V30 52 1 25 48
M  V30 53 1 25 49
M  V30 54 1 27 50
M  V30 55 1 27 51
M  V30 56 1 27 52
M  V30 57 1 28 53
M  V30 58 1 28 54
M  V30 59 1 29 55
M  V30 60 1 29 56
M  V30 61 1 30 57
M  V30 END BOND
M  V30 END CTAB
M  END
>  <Dataset>  (649) 
ChEMBL_Kinases

>  <Ligand_Instance>  (649) 
nan

>  <PDB_ID>  (649) 
nan

>  <Standardized_SMILES>  (649) 
Cc1ccc(C(=O)Nc2nccs2)cc1-n1cnc2ccc(N3CCN(C)CC3)cc2c1=O

>  <Name>  (649) 
nan

>  <Pocket>  (649) 
nan

>  <ATP_Site>  (649) 
nan

>  <Peripheral>  (649) 
nan

>  <Num_H_Atoms_ProtBoundConf>  (649) 
nan

>  <Num_Resolved_Atoms>  (649) 
nan

>  <Num_Not_Resolved_Atoms>  (649) 
nan

$$$$
CHEMBL2031240
     RDKit          3D

  0  0  0  0  0  0  0  0  0  0999 V3000
M  V30 BEGIN CTAB
M  V30 COUNTS 61 65 0 0 0
M  V30 BEGIN ATOM
M  V30 1 C 2.543906 -1.881831 3.573606 0
M  V30 2 C 2.552792 -0.590996 2.871565 0
M  V30 3 C 3.640532 0.247855 2.806692 0
M  V30 4 C 3.526366 1.428673 2.119589 0
M  V30 5 C 2.400184 1.873382 1.466732 0
M  V30 6 C 2.286281 3.159957 0.741293 0
M  V30 7 O 1.240679 3.311471 0.121737 0
M  V30 8 N 3.324975 4.121082 0.780039 0
M  V30 9 C 3.300768 5.372589 0.116936 0
M  V30 10 C 4.372099 6.209342 0.289539 0
M  V30 11 C 4.436385 7.480211 -0.331062 0
M  V30 12 C 3.381694 7.919542 -1.157023 0
M  V30 13 C 2.264099 7.071374 -1.352862 0
M  V30 14 C 2.330707 5.879547 -0.696043 0
M  V30 15 C 1.329697 0.990716 1.564802 0
M  V30 16 C 1.389568 -0.211732 2.243017 0
M  V30 17 N 0.146323 -0.948527 2.225263 0
M  V30 18 C -0.544965 -0.903780 3.377106 0
M  V30 19 N -1.746360 -1.567854 3.410870 0
M  V30 20 C -2.154534 -2.230106 2.274140 0
M  V30 21 C -3.359652 -2.769921 2.639408 0
M  V30 22 C -3.911532 -3.493654 1.542203 0
M  V30 23 C -3.263193 -3.603608 0.292251 0
M  V30 24 N -3.742519 -4.349081 -0.823758 0
M  V30 25 C -3.668261 -4.182806 -2.255009 0
M  V30 26 C -3.658810 -5.484143 -2.963176 0
M  V30 27 N -2.976923 -6.511343 -2.254647 0
M  V30 28 C -1.552137 -6.234036 -2.213569 0
M  V30 29 C -3.474453 -6.748659 -0.916591 0
M  V30 30 C -4.457216 -5.618943 -0.524407 0
M  V30 31 C -2.019543 -2.978569 0.092355 0
M  V30 32 C -1.433274 -2.262798 1.114044 0
M  V30 33 C -0.245815 -1.594513 1.107497 0
M  V30 34 O 0.412670 -1.626112 0.040918 0
M  V30 35 H 2.110253 -1.854489 4.575103 0
M  V30 36 H 2.037485 -2.692098 3.013671 0
M  V30 37 H 3.614608 -2.190177 3.691578 0
M  V30 38 H 4.554521 -0.051777 3.295150 0
M  V30 39 H 4.417329 2.021001 2.119555 0
M  V30 40 H 4.146413 3.846430 1.349177 0
M  V30 41 H 5.242535 5.984762 0.900821 0
M  V30 42 H 5.285533 8.120056 -0.174193 0
M  V30 43 H 3.395042 8.881523 -1.650585 0
M  V30 44 H 1.466139 7.409058 -1.981082 0
M  V30 45 H 1.446543 5.279784 -0.885344 0
M  V30 46 H 0.399039 1.306877 1.052008 0
M  V30 47 H -0.137758 -0.347794 4.245194 0
M  V30 48 H -4.101900 -2.934177 3.338070 0
M  V30 49 H -4.847422 -4.040442 1.456816 0
M  V30 50 H -4.527347 -3.528430 -2.574582 0
M  V30 51 H -2.713467 -3.610660 -2.466452 0
M  V30 52 H -3.154104 -5.318680 -3.952768 0
M  V30 53 H -4.696843 -5.795491 -3.205578 0
M  V30 54 H -1.260581 -5.824099 -1.209228 0
M  V30 55 H -1.279095 -5.501190 -3.030495 0
M  V30 56 H -0.982027 -7.170049 -2.409569 0
M  V30 57 H -2.650855 -6.746920 -0.166714 0
M  V30 58 H -4.017539 -7.690927 -0.874122 0
M  V30 59 H -5.379803 -5.723642 -1.082575 0
M  V30 60 H -4.598226 -5.754733 0.563848 0
M  V30 61 H -1.466825 -3.007054 -0.825728 0
M  V30 END ATOM
M  V30 BEGIN BOND
M  V30 1 1 1 2
M  V30 2 2 2 3
M  V30 3 1 3 4
M  V30 4 2 4 5
M  V30 5 1 5 6
M  V30 6 2 6 7
M  V30 7 1 6 8
M  V30 8 1 8 9
M  V30 9 2 9 10
M  V30 10 1 10 11
M  V30 11 2 11 12
M  V30 12 1 12 13
M  V30 13 2 13 14
M  V30 14 1 5 15
M  V30 15 2 15 16
M  V30 16 1 16 17
M  V30 17 1 17 18
M  V30 18 2 18 19
M  V30 19 1 19 20
M  V30 20 2 20 21
M  V30 21 1 21 22
M  V30 22 2 22 23
M  V30 23 1 23 24
M  V30 24 1 24 25
M  V30 25 1 25 26
M  V30 26 1 26 27
M  V30 27 1 27 28
M  V30 28 1 27 29
M  V30 29 1 29 30
M  V30 30 1 23 31
M  V30 31 2 31 32
M  V30 32 1 32 33
M  V30 33 2 33 34
M  V30 34 1 16 2
M  V30 35 1 33 17
M  V30 36 1 14 9
M  V30 37 1 32 20
M  V30 38 1 30 24
M  V30 39 1 1 35
M  V30 40 1 1 36
M  V30 41 1 1 37
M  V30 42 1 3 38
M  V30 43 1 4 39
M  V30 44 1 8 40
M  V30 45 1 10 41
M  V30 46 1 11 42
M  V30 47 1 12 43
M  V30 48 1 13 44
M  V30 49 1 14 45
M  V30 50 1 15 46
M  V30 51 1 18 47
M  V30 52 1 21 48
M  V30 53 1 22 49
M  V30 54 1 25 50
M  V30 55 1 25 51
M  V30 56 1 26 52
M  V30 57 1 26 53
M  V30 58 1 28 54
M  V30 59 1 28 55
M  V30 60 1 28 56
M  V30 61 1 29 57
M  V30 62 1 29 58
M  V30 63 1 30 59
M  V30 64 1 30 60
M  V30 65 1 31 61
M  V30 END BOND
M  V30 END CTAB
M  END
>  <Dataset>  (650) 
ChEMBL_Kinases

>  <Ligand_Instance>  (650) 
nan

>  <PDB_ID>  (650) 
nan

>  <Standardized_SMILES>  (650) 
Cc1ccc(C(=O)Nc2ccccc2)cc1-n1cnc2ccc(N3CCN(C)CC3)cc2c1=O

>  <Name>  (650) 
nan

>  <Pocket>  (650) 
nan

>  <ATP_Site>  (650) 
nan

>  <Peripheral>  (650) 
nan

>  <Num_H_Atoms_ProtBoundConf>  (650) 
nan

>  <Num_Resolved_Atoms>  (650) 
nan

>  <Num_Not_Resolved_Atoms>  (650) 
nan

$$$$
CHEMBL2036458
     RDKit          3D

  0  0  0  0  0  0  0  0  0  0999 V3000
M  V30 BEGIN CTAB
M  V30 COUNTS 59 64 0 0 0
M  V30 BEGIN ATOM
M  V30 1 Cl 5.013489 -4.627811 4.474494 0
M  V30 2 C 4.056556 -3.272595 3.879791 0
M  V30 3 C 3.716957 -3.019213 2.552798 0
M  V30 4 C 2.963891 -1.918791 2.250911 0
M  V30 5 C 2.538353 -1.063179 3.226862 0
M  V30 6 C 1.734173 0.106380 2.879455 0
M  V30 7 C 1.230985 1.058439 3.742569 0
M  V30 8 C 0.513412 2.021280 3.036555 0
M  V30 9 C 0.635118 1.566973 1.728882 0
M  V30 10 C 0.012025 2.298562 0.603859 0
M  V30 11 N -0.183784 3.599999 0.589267 0
M  V30 12 O -0.789345 3.912087 -0.630941 0
M  V30 13 C -0.357605 2.888773 -1.554792 0
M  V30 14 C 1.054919 3.196459 -1.865948 0
M  V30 15 C 1.242117 4.558635 -2.133706 0
M  V30 16 C 2.493509 5.088886 -2.454522 0
M  V30 17 N 3.556550 4.279664 -2.511192 0
M  V30 18 C 3.393505 2.970599 -2.256937 0
M  V30 19 C 2.172867 2.417924 -1.937952 0
M  V30 20 N -0.480394 1.744496 -0.637681 0
M  V30 21 C -0.931182 0.396348 -0.708247 0
M  V30 22 C -2.306202 0.252030 -0.476029 0
M  V30 23 C -2.940616 -0.971289 -0.498166 0
M  V30 24 C -2.242280 -2.131176 -0.753948 0
M  V30 25 N -2.799431 -3.438810 -0.799534 0
M  V30 26 C -2.091425 -4.681308 -1.060566 0
M  V30 27 C -2.246314 -5.695380 0.047228 0
M  V30 28 N -3.608751 -5.812901 0.495216 0
M  V30 29 C -4.258907 -4.548374 0.708619 0
M  V30 30 C -4.208023 -3.718926 -0.581186 0
M  V30 31 C -0.891847 -1.985339 -0.981494 0
M  V30 32 C -0.242012 -0.770232 -0.963023 0
M  V30 33 O 1.338735 0.472276 1.682418 0
M  V30 34 C 2.853752 -1.279575 4.552147 0
M  V30 35 C 3.623092 -2.400874 4.874766 0
M  V30 36 H 4.121646 -3.777274 1.897951 0
M  V30 37 H 2.747021 -1.795303 1.215413 0
M  V30 38 H 1.370521 1.062682 4.819613 0
M  V30 39 H 0.002822 2.883099 3.400931 0
M  V30 40 H -1.020587 2.824882 -2.415059 0
M  V30 41 H 0.468994 5.314951 -2.121197 0
M  V30 42 H 2.664261 6.119433 -2.662427 0
M  V30 43 H 4.227500 2.279136 -2.291670 0
M  V30 44 H 1.960124 1.384670 -1.721942 0
M  V30 45 H -2.947523 1.099180 -0.265458 0
M  V30 46 H -4.000641 -1.045764 -0.314592 0
M  V30 47 H -2.615141 -5.149442 -1.947618 0
M  V30 48 H -1.054639 -4.584643 -1.341194 0
M  V30 49 H -1.954540 -6.680484 -0.373787 0
M  V30 50 H -1.568328 -5.504048 0.902475 0
M  V30 51 H -3.753361 -6.497784 1.236120 0
M  V30 52 H -5.314195 -4.730510 0.921584 0
M  V30 53 H -3.796964 -3.957440 1.516571 0
M  V30 54 H -4.574887 -4.364042 -1.410384 0
M  V30 55 H -4.853997 -2.855310 -0.501361 0
M  V30 56 H -0.193212 -2.775536 -1.195688 0
M  V30 57 H 0.808749 -0.606307 -1.133107 0
M  V30 58 H 2.526775 -0.613394 5.344336 0
M  V30 59 H 3.852587 -2.539727 5.930065 0
M  V30 END ATOM
M  V30 BEGIN BOND
M  V30 1 1 1 2
M  V30 2 2 2 3
M  V30 3 1 3 4
M  V30 4 2 4 5
M  V30 5 1 5 6
M  V30 6 2 6 7
M  V30 7 1 7 8
M  V30 8 2 8 9
M  V30 9 1 9 10
M  V30 10 2 10 11
M  V30 11 1 11 12
M  V30 12 1 12 13
M  V30 13 1 13 14
M  V30 14 2 14 15
M  V30 15 1 15 16
M  V30 16 2 16 17
M  V30 17 1 17 18
M  V30 18 2 18 19
M  V30 19 1 13 20
M  V30 20 1 20 21
M  V30 21 2 21 22
M  V30 22 1 22 23
M  V30 23 2 23 24
M  V30 24 1 24 25
M  V30 25 1 25 26
M  V30 26 1 26 27
M  V30 27 1 27 28
M  V30 28 1 28 29
M  V30 29 1 29 30
M  V30 30 1 24 31
M  V30 31 2 31 32
M  V30 32 1 9 33
M  V30 33 1 5 34
M  V30 34 2 34 35
M  V30 35 1 35 2
M  V30 36 1 33 6
M  V30 37 1 20 10
M  V30 38 1 32 21
M  V30 39 1 19 14
M  V30 40 1 30 25
M  V30 41 1 3 36
M  V30 42 1 4 37
M  V30 43 1 7 38
M  V30 44 1 8 39
M  V30 45 1 13 40
M  V30 46 1 15 41
M  V30 47 1 16 42
M  V30 48 1 18 43
M  V30 49 1 19 44
M  V30 50 1 22 45
M  V30 51 1 23 46
M  V30 52 1 26 47
M  V30 53 1 26 48
M  V30 54 1 27 49
M  V30 55 1 27 50
M  V30 56 1 28 51
M  V30 57 1 29 52
M  V30 58 1 29 53
M  V30 59 1 30 54
M  V30 60 1 30 55
M  V30 61 1 31 56
M  V30 62 1 32 57
M  V30 63 1 34 58
M  V30 64 1 35 59
M  V30 END BOND
M  V30 END CTAB
M  END
>  <Dataset>  (651) 
ChEMBL_Kinases

>  <Ligand_Instance>  (651) 
nan

>  <PDB_ID>  (651) 
nan

>  <Standardized_SMILES>  (651) 
Clc1ccc(-c2ccc(C3=NOC(c4ccncc4)N3c3ccc(N4CCNCC4)cc3)o2)cc1

>  <Name>  (651) 
nan

>  <Pocket>  (651) 
nan

>  <ATP_Site>  (651) 
nan

>  <Peripheral>  (651) 
nan

>  <Num_H_Atoms_ProtBoundConf>  (651) 
nan

>  <Num_Resolved_Atoms>  (651) 
nan

>  <Num_Not_Resolved_Atoms>  (651) 
nan

$$$$
CHEMBL2031223
     RDKit          3D

  0  0  0  0  0  0  0  0  0  0999 V3000
M  V30 BEGIN CTAB
M  V30 COUNTS 64 68 0 0 0
M  V30 BEGIN ATOM
M  V30 1 C 2.267268 -2.271334 1.926435 0
M  V30 2 C 2.395766 -0.799281 1.776884 0
M  V30 3 C 3.319674 -0.131413 2.551222 0
M  V30 4 C 3.475269 1.248819 2.444785 0
M  V30 5 C 2.642472 1.874640 1.517528 0
M  V30 6 N 2.771046 3.306533 1.374180 0
M  V30 7 C 3.743751 3.562347 0.370428 0
M  V30 8 O 4.251836 2.551355 -0.145286 0
M  V30 9 C 4.170207 4.884626 -0.078911 0
M  V30 10 C 5.132229 4.903942 -1.068166 0
M  V30 11 C 5.602403 6.126308 -1.561470 0
M  V30 12 C 5.099396 7.321575 -1.054054 0
M  V30 13 C 4.132111 7.246322 -0.058911 0
M  V30 14 C 3.651713 6.050337 0.444721 0
M  V30 15 C 1.714299 1.213591 0.737781 0
M  V30 16 C 1.590082 -0.140503 0.869853 0
M  V30 17 N 0.625345 -0.796660 0.053974 0
M  V30 18 C 0.832038 -0.928806 -1.268865 0
M  V30 19 C 2.051965 -0.409389 -1.939824 0
M  V30 20 N -0.107101 -1.556096 -2.000930 0
M  V30 21 C -1.231466 -2.037878 -1.398528 0
M  V30 22 C -2.185530 -2.677641 -2.154724 0
M  V30 23 C -3.326978 -3.165733 -1.536023 0
M  V30 24 C -3.551277 -3.038148 -0.187134 0
M  V30 25 N -4.722875 -3.540184 0.434918 0
M  V30 26 C -5.821080 -4.192406 -0.252784 0
M  V30 27 C -5.707221 -5.672009 0.138502 0
M  V30 28 N -5.451125 -5.844905 1.530085 0
M  V30 29 C -4.039755 -6.132335 1.706459 0
M  V30 30 C -5.740139 -4.675096 2.326070 0
M  V30 31 C -4.967136 -3.462463 1.859479 0
M  V30 32 C -2.592575 -2.397187 0.561914 0
M  V30 33 C -1.439493 -1.900089 -0.040579 0
M  V30 34 C -0.466397 -1.259087 0.668399 0
M  V30 35 O -0.633292 -1.121527 1.906032 0
M  V30 36 H 3.303270 -2.649819 2.079218 0
M  V30 37 H 1.916884 -2.762733 0.981930 0
M  V30 38 H 1.572892 -2.531421 2.746120 0
M  V30 39 H 3.950205 -0.645623 3.260943 0
M  V30 40 H 4.172477 1.851427 3.010800 0
M  V30 41 H 2.321219 4.154312 1.830760 0
M  V30 42 H 5.574439 4.021069 -1.515774 0
M  V30 43 H 6.359395 6.160199 -2.339945 0
M  V30 44 H 5.463574 8.270549 -1.436157 0
M  V30 45 H 3.749127 8.188322 0.327070 0
M  V30 46 H 2.900687 6.014804 1.216960 0
M  V30 47 H 1.098814 1.773141 0.034498 0
M  V30 48 H 2.563144 -1.293423 -2.408159 0
M  V30 49 H 2.762319 -0.000492 -1.199945 0
M  V30 50 H 1.836639 0.392253 -2.670828 0
M  V30 51 H -2.014377 -2.782008 -3.223104 0
M  V30 52 H -4.012084 -3.646298 -2.192982 0
M  V30 53 H -6.797823 -3.816565 0.134558 0
M  V30 54 H -5.775853 -4.149952 -1.339837 0
M  V30 55 H -4.865869 -6.078450 -0.456529 0
M  V30 56 H -6.664082 -6.195903 -0.086465 0
M  V30 57 H -3.588443 -6.590432 0.796032 0
M  V30 58 H -3.504797 -5.170535 1.840393 0
M  V30 59 H -3.862372 -6.753454 2.608717 0
M  V30 60 H -5.567144 -4.920247 3.385881 0
M  V30 61 H -6.818791 -4.447494 2.200845 0
M  V30 62 H -4.095377 -3.330840 2.485304 0
M  V30 63 H -5.610202 -2.553317 2.004205 0
M  V30 64 H -2.642834 -2.232678 1.605746 0
M  V30 END ATOM
M  V30 BEGIN BOND
M  V30 1 1 1 2
M  V30 2 2 2 3
M  V30 3 1 3 4
M  V30 4 2 4 5
M  V30 5 1 5 6
M  V30 6 1 6 7
M  V30 7 2 7 8
M  V30 8 1 7 9
M  V30 9 2 9 10
M  V30 10 1 10 11
M  V30 11 2 11 12
M  V30 12 1 12 13
M  V30 13 2 13 14
M  V30 14 1 5 15
M  V30 15 2 15 16
M  V30 16 1 16 17
M  V30 17 1 17 18
M  V30 18 1 18 19
M  V30 19 2 18 20
M  V30 20 1 20 21
M  V30 21 2 21 22
M  V30 22 1 22 23
M  V30 23 2 23 24
M  V30 24 1 24 25
M  V30 25 1 25 26
M  V30 26 1 26 27
M  V30 27 1 27 28
M  V30 28 1 28 29
M  V30 29 1 28 30
M  V30 30 1 30 31
M  V30 31 1 24 32
M  V30 32 2 32 33
M  V30 33 1 33 34
M  V30 34 2 34 35
M  V30 35 1 16 2
M  V30 36 1 34 17
M  V30 37 1 14 9
M  V30 38 1 33 21
M  V30 39 1 31 25
M  V30 40 1 1 36
M  V30 41 1 1 37
M  V30 42 1 1 38
M  V30 43 1 3 39
M  V30 44 1 4 40
M  V30 45 1 6 41
M  V30 46 1 10 42
M  V30 47 1 11 43
M  V30 48 1 12 44
M  V30 49 1 13 45
M  V30 50 1 14 46
M  V30 51 1 15 47
M  V30 52 1 19 48
M  V30 53 1 19 49
M  V30 54 1 19 50
M  V30 55 1 22 51
M  V30 56 1 23 52
M  V30 57 1 26 53
M  V30 58 1 26 54
M  V30 59 1 27 55
M  V30 60 1 27 56
M  V30 61 1 29 57
M  V30 62 1 29 58
M  V30 63 1 29 59
M  V30 64 1 30 60
M  V30 65 1 30 61
M  V30 66 1 31 62
M  V30 67 1 31 63
M  V30 68 1 32 64
M  V30 END BOND
M  V30 END CTAB
M  END
>  <Dataset>  (652) 
ChEMBL_Kinases

>  <Ligand_Instance>  (652) 
nan

>  <PDB_ID>  (652) 
nan

>  <Standardized_SMILES>  (652) 
Cc1ccc(NC(=O)c2ccccc2)cc1-n1c(C)nc2ccc(N3CCN(C)CC3)cc2c1=O

>  <Name>  (652) 
nan

>  <Pocket>  (652) 
nan

>  <ATP_Site>  (652) 
nan

>  <Peripheral>  (652) 
nan

>  <Num_H_Atoms_ProtBoundConf>  (652) 
nan

>  <Num_Resolved_Atoms>  (652) 
nan

>  <Num_Not_Resolved_Atoms>  (652) 
nan

$$$$
CHEMBL2031224
     RDKit          3D

  0  0  0  0  0  0  0  0  0  0999 V3000
M  V30 BEGIN CTAB
M  V30 COUNTS 65 69 0 0 0
M  V30 BEGIN ATOM
M  V30 1 C 4.711436 -0.121046 4.539428 0
M  V30 2 O 4.356293 0.873885 3.626050 0
M  V30 3 C 5.228585 1.602964 2.836895 0
M  V30 4 C 6.552873 1.312343 2.974160 0
M  V30 5 C 7.457339 2.004694 2.216773 0
M  V30 6 C 6.987380 2.964221 1.349857 0
M  V30 7 C 5.637253 3.216330 1.252189 0
M  V30 8 C 4.694053 2.529615 2.008138 0
M  V30 9 C 3.306628 2.889928 1.810107 0
M  V30 10 O 2.991848 3.791971 0.982743 0
M  V30 11 N 2.156408 2.370053 2.427020 0
M  V30 12 C 0.821952 2.749293 2.206678 0
M  V30 13 C 0.093293 3.733118 2.847359 0
M  V30 14 C -1.219515 3.950638 2.483133 0
M  V30 15 C -1.873069 3.237068 1.499233 0
M  V30 16 C -3.290741 3.566257 1.198307 0
M  V30 17 C -1.123724 2.242420 0.857358 0
M  V30 18 N -1.796272 1.504983 -0.155530 0
M  V30 19 C -2.302339 2.049912 -1.272982 0
M  V30 20 N -2.940964 1.296161 -2.213824 0
M  V30 21 C -3.075075 -0.045343 -2.026104 0
M  V30 22 C -3.717164 -0.821148 -2.964044 0
M  V30 23 C -3.847213 -2.178538 -2.761412 0
M  V30 24 C -3.350562 -2.798989 -1.636995 0
M  V30 25 N -3.466752 -4.191833 -1.392332 0
M  V30 26 C -4.129884 -5.160801 -2.231851 0
M  V30 27 C -3.206135 -6.283858 -2.637424 0
M  V30 28 N -2.488856 -6.840876 -1.531349 0
M  V30 29 C -1.072111 -6.719168 -1.816517 0
M  V30 30 C -2.845784 -6.275467 -0.260157 0
M  V30 31 C -2.894624 -4.786209 -0.210859 0
M  V30 32 C -2.711058 -2.007971 -0.709000 0
M  V30 33 C -2.568687 -0.667467 -0.883088 0
M  V30 34 C -1.936843 0.161480 0.020639 0
M  V30 35 O -1.463216 -0.376295 1.075903 0
M  V30 36 C 0.194435 2.024456 1.223383 0
M  V30 37 H 5.004264 -1.073023 4.021430 0
M  V30 38 H 3.802819 -0.341127 5.147987 0
M  V30 39 H 5.551157 0.255017 5.163209 0
M  V30 40 H 6.910247 0.558834 3.656324 0
M  V30 41 H 8.521167 1.786649 2.312642 0
M  V30 42 H 7.675045 3.525405 0.740350 0
M  V30 43 H 5.330234 3.984814 0.550367 0
M  V30 44 H 2.286940 1.614877 3.132626 0
M  V30 45 H 0.633114 4.273967 3.612360 0
M  V30 46 H -1.758122 4.745657 3.022277 0
M  V30 47 H -3.422705 4.210614 0.317073 0
M  V30 48 H -3.903343 2.643666 0.993966 0
M  V30 49 H -3.740257 4.012160 2.096560 0
M  V30 50 H -2.199558 3.115587 -1.429832 0
M  V30 51 H -4.097370 -0.299147 -3.840691 0
M  V30 52 H -4.354204 -2.750424 -3.515339 0
M  V30 53 H -5.015899 -5.598710 -1.696572 0
M  V30 54 H -4.531175 -4.746407 -3.177952 0
M  V30 55 H -2.550563 -5.938757 -3.458620 0
M  V30 56 H -3.881339 -7.098575 -3.019411 0
M  V30 57 H -0.941433 -7.107177 -2.864618 0
M  V30 58 H -0.421505 -7.244164 -1.103098 0
M  V30 59 H -0.754215 -5.639896 -1.872717 0
M  V30 60 H -3.754758 -6.687621 0.174617 0
M  V30 61 H -2.013218 -6.582674 0.438987 0
M  V30 62 H -3.441437 -4.514154 0.720121 0
M  V30 63 H -1.850959 -4.366123 -0.113835 0
M  V30 64 H -2.280466 -2.380772 0.211134 0
M  V30 65 H 0.647289 1.236916 0.653563 0
M  V30 END ATOM
M  V30 BEGIN BOND
M  V30 1 1 1 2
M  V30 2 1 2 3
M  V30 3 2 3 4
M  V30 4 1 4 5
M  V30 5 2 5 6
M  V30 6 1 6 7
M  V30 7 2 7 8
M  V30 8 1 8 9
M  V30 9 2 9 10
M  V30 10 1 9 11
M  V30 11 1 11 12
M  V30 12 2 12 13
M  V30 13 1 13 14
M  V30 14 2 14 15
M  V30 15 1 15 16
M  V30 16 1 15 17
M  V30 17 1 17 18
M  V30 18 1 18 19
M  V30 19 2 19 20
M  V30 20 1 20 21
M  V30 21 2 21 22
M  V30 22 1 22 23
M  V30 23 2 23 24
M  V30 24 1 24 25
M  V30 25 1 25 26
M  V30 26 1 26 27
M  V30 27 1 27 28
M  V30 28 1 28 29
M  V30 29 1 28 30
M  V30 30 1 30 31
M  V30 31 1 24 32
M  V30 32 2 32 33
M  V30 33 1 33 34
M  V30 34 2 34 35
M  V30 35 2 17 36
M  V30 36 1 8 3
M  V30 37 1 36 12
M  V30 38 1 34 18
M  V30 39 1 33 21
M  V30 40 1 31 25
M  V30 41 1 1 37
M  V30 42 1 1 38
M  V30 43 1 1 39
M  V30 44 1 4 40
M  V30 45 1 5 41
M  V30 46 1 6 42
M  V30 47 1 7 43
M  V30 48 1 11 44
M  V30 49 1 13 45
M  V30 50 1 14 46
M  V30 51 1 16 47
M  V30 52 1 16 48
M  V30 53 1 16 49
M  V30 54 1 19 50
M  V30 55 1 22 51
M  V30 56 1 23 52
M  V30 57 1 26 53
M  V30 58 1 26 54
M  V30 59 1 27 55
M  V30 60 1 27 56
M  V30 61 1 29 57
M  V30 62 1 29 58
M  V30 63 1 29 59
M  V30 64 1 30 60
M  V30 65 1 30 61
M  V30 66 1 31 62
M  V30 67 1 31 63
M  V30 68 1 32 64
M  V30 69 1 36 65
M  V30 END BOND
M  V30 END CTAB
M  END
>  <Dataset>  (653) 
ChEMBL_Kinases

>  <Ligand_Instance>  (653) 
nan

>  <PDB_ID>  (653) 
nan

>  <Standardized_SMILES>  (653) 
COc1ccccc1C(=O)Nc1ccc(C)c(-n2cnc3ccc(N4CCN(C)CC4)cc3c2=O)c1

>  <Name>  (653) 
nan

>  <Pocket>  (653) 
nan

>  <ATP_Site>  (653) 
nan

>  <Peripheral>  (653) 
nan

>  <Num_H_Atoms_ProtBoundConf>  (653) 
nan

>  <Num_Resolved_Atoms>  (653) 
nan

>  <Num_Not_Resolved_Atoms>  (653) 
nan

$$$$
CHEMBL2031225
     RDKit          3D

  0  0  0  0  0  0  0  0  0  0999 V3000
M  V30 BEGIN CTAB
M  V30 COUNTS 65 69 0 0 0
M  V30 BEGIN ATOM
M  V30 1 C 6.496786 1.301548 5.340609 0
M  V30 2 O 7.056893 0.590461 4.260157 0
M  V30 3 C 6.397904 0.562323 3.038106 0
M  V30 4 C 7.051985 -0.175162 2.044522 0
M  V30 5 C 6.454237 -0.248675 0.797850 0
M  V30 6 C 5.239632 0.374996 0.492979 0
M  V30 7 C 4.643442 1.086771 1.512613 0
M  V30 8 C 3.377296 1.735273 1.189834 0
M  V30 9 O 2.910278 1.612652 0.031421 0
M  V30 10 N 2.602983 2.514205 2.090618 0
M  V30 11 C 1.427450 2.982907 1.407773 0
M  V30 12 C 1.400972 4.182286 0.723316 0
M  V30 13 C 0.240046 4.571785 0.089915 0
M  V30 14 C -0.904213 3.805102 0.113150 0
M  V30 15 C -2.194247 4.141673 -0.536705 0
M  V30 16 C -0.894936 2.605761 0.791448 0
M  V30 17 N -1.973631 1.665074 0.935910 0
M  V30 18 C -2.948081 1.772309 1.854148 0
M  V30 19 N -3.914423 0.819582 1.893137 0
M  V30 20 C -3.903491 -0.214361 1.032955 0
M  V30 21 C -4.872336 -1.185378 1.059167 0
M  V30 22 C -4.889778 -2.249145 0.198709 0
M  V30 23 C -3.914761 -2.403758 -0.759011 0
M  V30 24 N -3.860442 -3.476982 -1.688062 0
M  V30 25 C -2.886684 -3.731550 -2.726454 0
M  V30 26 C -2.207899 -5.082616 -2.558754 0
M  V30 27 N -2.712644 -5.736568 -1.353236 0
M  V30 28 C -2.150591 -7.068305 -1.276118 0
M  V30 29 C -4.152988 -5.873459 -1.438246 0
M  V30 30 C -4.821008 -4.550712 -1.752262 0
M  V30 31 C -2.937951 -1.434286 -0.793278 0
M  V30 32 C -2.914193 -0.357805 0.072290 0
M  V30 33 C -1.945761 0.623881 0.055309 0
M  V30 34 O -1.029718 0.524185 -0.806969 0
M  V30 35 C 0.272944 2.194469 1.439613 0
M  V30 36 C 5.207255 1.183540 2.767624 0
M  V30 37 H 6.922019 0.835445 6.273470 0
M  V30 38 H 5.413114 1.245762 5.428189 0
M  V30 39 H 6.829876 2.366144 5.358247 0
M  V30 40 H 8.004416 -0.690253 2.208558 0
M  V30 41 H 6.932344 -0.812690 -0.000184 0
M  V30 42 H 4.820941 0.281491 -0.501590 0
M  V30 43 H 2.965375 2.633754 3.059601 0
M  V30 44 H 2.282136 4.806593 0.686261 0
M  V30 45 H 0.150272 5.501496 -0.465336 0
M  V30 46 H -2.627224 3.251341 -1.017680 0
M  V30 47 H -2.939730 4.497024 0.225572 0
M  V30 48 H -2.085964 4.904972 -1.341132 0
M  V30 49 H -2.918438 2.618904 2.525764 0
M  V30 50 H -5.653448 -1.093907 1.799741 0
M  V30 51 H -5.672052 -2.960254 0.280311 0
M  V30 52 H -3.425656 -3.755847 -3.719425 0
M  V30 53 H -2.145086 -2.919854 -2.817436 0
M  V30 54 H -2.410979 -5.753530 -3.413673 0
M  V30 55 H -1.124178 -4.914809 -2.456976 0
M  V30 56 H -1.055321 -7.014945 -1.501090 0
M  V30 57 H -2.200348 -7.435713 -0.214286 0
M  V30 58 H -2.666881 -7.813061 -1.895252 0
M  V30 59 H -4.504328 -6.240492 -0.459689 0
M  V30 60 H -4.355006 -6.664654 -2.171894 0
M  V30 61 H -5.243955 -4.689318 -2.789694 0
M  V30 62 H -5.693803 -4.435217 -1.099117 0
M  V30 63 H -2.110532 -1.409799 -1.477504 0
M  V30 64 H 0.348256 1.248880 1.998720 0
M  V30 65 H 4.732790 1.742713 3.558236 0
M  V30 END ATOM
M  V30 BEGIN BOND
M  V30 1 1 1 2
M  V30 2 1 2 3
M  V30 3 2 3 4
M  V30 4 1 4 5
M  V30 5 2 5 6
M  V30 6 1 6 7
M  V30 7 1 7 8
M  V30 8 2 8 9
M  V30 9 1 8 10
M  V30 10 1 10 11
M  V30 11 2 11 12
M  V30 12 1 12 13
M  V30 13 2 13 14
M  V30 14 1 14 15
M  V30 15 1 14 16
M  V30 16 1 16 17
M  V30 17 1 17 18
M  V30 18 2 18 19
M  V30 19 1 19 20
M  V30 20 2 20 21
M  V30 21 1 21 22
M  V30 22 2 22 23
M  V30 23 1 23 24
M  V30 24 1 24 25
M  V30 25 1 25 26
M  V30 26 1 26 27
M  V30 27 1 27 28
M  V30 28 1 27 29
M  V30 29 1 29 30
M  V30 30 1 23 31
M  V30 31 2 31 32
M  V30 32 1 32 33
M  V30 33 2 33 34
M  V30 34 2 16 35
M  V30 35 2 7 36
M  V30 36 1 36 3
M  V30 37 1 35 11
M  V30 38 1 33 17
M  V30 39 1 32 20
M  V30 40 1 30 24
M  V30 41 1 1 37
M  V30 42 1 1 38
M  V30 43 1 1 39
M  V30 44 1 4 40
M  V30 45 1 5 41
M  V30 46 1 6 42
M  V30 47 1 10 43
M  V30 48 1 12 44
M  V30 49 1 13 45
M  V30 50 1 15 46
M  V30 51 1 15 47
M  V30 52 1 15 48
M  V30 53 1 18 49
M  V30 54 1 21 50
M  V30 55 1 22 51
M  V30 56 1 25 52
M  V30 57 1 25 53
M  V30 58 1 26 54
M  V30 59 1 26 55
M  V30 60 1 28 56
M  V30 61 1 28 57
M  V30 62 1 28 58
M  V30 63 1 29 59
M  V30 64 1 29 60
M  V30 65 1 30 61
M  V30 66 1 30 62
M  V30 67 1 31 63
M  V30 68 1 35 64
M  V30 69 1 36 65
M  V30 END BOND
M  V30 END CTAB
M  END
>  <Dataset>  (654) 
ChEMBL_Kinases

>  <Ligand_Instance>  (654) 
nan

>  <PDB_ID>  (654) 
nan

>  <Standardized_SMILES>  (654) 
COc1cccc(C(=O)Nc2ccc(C)c(-n3cnc4ccc(N5CCN(C)CC5)cc4c3=O)c2)c1

>  <Name>  (654) 
nan

>  <Pocket>  (654) 
nan

>  <ATP_Site>  (654) 
nan

>  <Peripheral>  (654) 
nan

>  <Num_H_Atoms_ProtBoundConf>  (654) 
nan

>  <Num_Resolved_Atoms>  (654) 
nan

>  <Num_Not_Resolved_Atoms>  (654) 
nan

$$$$
CHEMBL2031226
     RDKit          3D

  0  0  0  0  0  0  0  0  0  0999 V3000
M  V30 BEGIN CTAB
M  V30 COUNTS 62 66 0 0 0
M  V30 BEGIN ATOM
M  V30 1 C 1.680453 -2.002261 4.949370 0
M  V30 2 C 1.760900 -0.710010 4.220549 0
M  V30 3 C 2.918101 0.000571 4.463031 0
M  V30 4 C 3.112399 1.218700 3.844456 0
M  V30 5 C 2.139820 1.685708 3.002145 0
M  V30 6 N 2.355303 2.962710 2.359935 0
M  V30 7 C 3.018756 2.728240 1.128015 0
M  V30 8 O 3.250529 1.497534 0.902827 0
M  V30 9 C 3.435284 3.720848 0.151080 0
M  V30 10 C 4.065108 3.224283 -0.971526 0
M  V30 11 C 4.490699 4.130131 -1.950377 0
M  V30 12 C 4.276520 5.497740 -1.781287 0
M  V30 13 C 3.641449 5.912269 -0.634012 0
M  V30 14 C 3.430788 7.341505 -0.482489 0
M  V30 15 N 3.263831 8.478336 -0.375751 0
M  V30 16 C 3.193076 5.057368 0.379550 0
M  V30 17 C 0.959176 0.985373 2.739976 0
M  V30 18 C 0.773111 -0.247263 3.371983 0
M  V30 19 N -0.391787 -1.044130 3.176238 0
M  V30 20 C -1.175868 -1.556962 4.157361 0
M  V30 21 N -2.256564 -2.298976 3.859465 0
M  V30 22 C -2.588518 -2.552182 2.581538 0
M  V30 23 C -3.693812 -3.310115 2.324956 0
M  V30 24 C -4.018052 -3.558755 1.015234 0
M  V30 25 C -3.300768 -3.093466 -0.065425 0
M  V30 26 N -3.597821 -3.324546 -1.428463 0
M  V30 27 C -2.759290 -2.775461 -2.497613 0
M  V30 28 C -3.068664 -3.429377 -3.802178 0
M  V30 29 N -3.203584 -4.875278 -3.722979 0
M  V30 30 C -1.963823 -5.484809 -3.299417 0
M  V30 31 C -4.259729 -5.257254 -2.805337 0
M  V30 32 C -4.696854 -4.084296 -1.947672 0
M  V30 33 C -2.193050 -2.332836 0.240962 0
M  V30 34 C -1.832346 -2.059499 1.544949 0
M  V30 35 C -0.731251 -1.302696 1.885437 0
M  V30 36 O -0.021408 -0.839637 0.937701 0
M  V30 37 H 2.675127 -2.517375 4.982264 0
M  V30 38 H 1.302028 -1.868350 5.995855 0
M  V30 39 H 0.999778 -2.698919 4.443699 0
M  V30 40 H 3.715157 -0.330245 5.122238 0
M  V30 41 H 4.012662 1.809043 4.010472 0
M  V30 42 H 2.147057 3.980967 2.577642 0
M  V30 43 H 4.255013 2.178468 -1.151087 0
M  V30 44 H 4.990497 3.782403 -2.849470 0
M  V30 45 H 4.595542 6.212183 -2.521415 0
M  V30 46 H 2.698834 5.436745 1.262392 0
M  V30 47 H 0.192355 1.358919 2.072682 0
M  V30 48 H -0.885332 -1.337744 5.163396 0
M  V30 49 H -4.319290 -3.718836 3.128153 0
M  V30 50 H -4.891958 -4.158200 0.805849 0
M  V30 51 H -3.033154 -1.693374 -2.591299 0
M  V30 52 H -1.689547 -2.842016 -2.280290 0
M  V30 53 H -3.981322 -3.032768 -4.281023 0
M  V30 54 H -2.224952 -3.229362 -4.505134 0
M  V30 55 H -1.590174 -4.872721 -2.458408 0
M  V30 56 H -1.237855 -5.598363 -4.127652 0
M  V30 57 H -2.198664 -6.519374 -2.966473 0
M  V30 58 H -3.931362 -6.063124 -2.120002 0
M  V30 59 H -5.172247 -5.601121 -3.333541 0
M  V30 60 H -5.340771 -4.503134 -1.148353 0
M  V30 61 H -5.385603 -3.410553 -2.532133 0
M  V30 62 H -1.515113 -1.886896 -0.486892 0
M  V30 END ATOM
M  V30 BEGIN BOND
M  V30 1 1 1 2
M  V30 2 2 2 3
M  V30 3 1 3 4
M  V30 4 2 4 5
M  V30 5 1 5 6
M  V30 6 1 6 7
M  V30 7 2 7 8
M  V30 8 1 7 9
M  V30 9 2 9 10
M  V30 10 1 10 11
M  V30 11 2 11 12
M  V30 12 1 12 13
M  V30 13 1 13 14
M  V30 14 3 14 15
M  V30 15 2 13 16
M  V30 16 1 5 17
M  V30 17 2 17 18
M  V30 18 1 18 19
M  V30 19 1 19 20
M  V30 20 2 20 21
M  V30 21 1 21 22
M  V30 22 2 22 23
M  V30 23 1 23 24
M  V30 24 2 24 25
M  V30 25 1 25 26
M  V30 26 1 26 27
M  V30 27 1 27 28
M  V30 28 1 28 29
M  V30 29 1 29 30
M  V30 30 1 29 31
M  V30 31 1 31 32
M  V30 32 1 25 33
M  V30 33 2 33 34
M  V30 34 1 34 35
M  V30 35 2 35 36
M  V30 36 1 18 2
M  V30 37 1 35 19
M  V30 38 1 16 9
M  V30 39 1 34 22
M  V30 40 1 32 26
M  V30 41 1 1 37
M  V30 42 1 1 38
M  V30 43 1 1 39
M  V30 44 1 3 40
M  V30 45 1 4 41
M  V30 46 1 6 42
M  V30 47 1 10 43
M  V30 48 1 11 44
M  V30 49 1 12 45
M  V30 50 1 16 46
M  V30 51 1 17 47
M  V30 52 1 20 48
M  V30 53 1 23 49
M  V30 54 1 24 50
M  V30 55 1 27 51
M  V30 56 1 27 52
M  V30 57 1 28 53
M  V30 58 1 28 54
M  V30 59 1 30 55
M  V30 60 1 30 56
M  V30 61 1 30 57
M  V30 62 1 31 58
M  V30 63 1 31 59
M  V30 64 1 32 60
M  V30 65 1 32 61
M  V30 66 1 33 62
M  V30 END BOND
M  V30 END CTAB
M  END
>  <Dataset>  (655) 
ChEMBL_Kinases

>  <Ligand_Instance>  (655) 
nan

>  <PDB_ID>  (655) 
nan

>  <Standardized_SMILES>  (655) 
Cc1ccc(NC(=O)c2cccc(C#N)c2)cc1-n1cnc2ccc(N3CCN(C)CC3)cc2c1=O

>  <Name>  (655) 
nan

>  <Pocket>  (655) 
nan

>  <ATP_Site>  (655) 
nan

>  <Peripheral>  (655) 
nan

>  <Num_H_Atoms_ProtBoundConf>  (655) 
nan

>  <Num_Resolved_Atoms>  (655) 
nan

>  <Num_Not_Resolved_Atoms>  (655) 
nan

$$$$
CHEMBL2031227
     RDKit          3D

  0  0  0  0  0  0  0  0  0  0999 V3000
M  V30 BEGIN CTAB
M  V30 COUNTS 62 66 0 0 0
M  V30 BEGIN ATOM
M  V30 1 C 1.832525 -2.523794 4.098370 0
M  V30 2 C 2.111227 -1.160329 3.579030 0
M  V30 3 C 3.385331 -0.611397 3.691143 0
M  V30 4 C 3.641689 0.658515 3.206590 0
M  V30 5 C 2.650315 1.390893 2.612214 0
M  V30 6 N 3.110927 2.681401 2.175261 0
M  V30 7 C 3.592586 2.586193 0.839934 0
M  V30 8 O 3.519021 1.435001 0.335098 0
M  V30 9 C 4.137677 3.679510 0.059166 0
M  V30 10 C 4.546818 3.357803 -1.221390 0
M  V30 11 C 5.076398 4.399429 -1.992267 0
M  V30 12 C 5.196061 5.695332 -1.521583 0
M  V30 13 C 5.738663 6.753455 -2.316788 0
M  V30 14 N 6.198151 7.615265 -2.954192 0
M  V30 15 C 4.759957 5.922376 -0.227117 0
M  V30 16 C 4.233945 4.950488 0.576728 0
M  V30 17 C 1.382963 0.855148 2.496185 0
M  V30 18 C 1.126387 -0.395255 2.972161 0
M  V30 19 N -0.196287 -0.906187 2.829933 0
M  V30 20 C -0.982597 -1.031702 3.939135 0
M  V30 21 N -2.245912 -1.520046 3.802433 0
M  V30 22 C -2.733463 -1.879014 2.608428 0
M  V30 23 C -4.005885 -2.358345 2.554599 0
M  V30 24 C -4.514345 -2.729532 1.330850 0
M  V30 25 C -3.792308 -2.635781 0.168563 0
M  V30 26 N -4.249994 -2.998614 -1.127313 0
M  V30 27 C -3.453759 -2.894410 -2.343332 0
M  V30 28 C -3.933438 -3.864357 -3.390611 0
M  V30 29 N -4.351766 -5.129376 -2.824419 0
M  V30 30 C -3.219684 -5.880115 -2.317933 0
M  V30 31 C -5.395659 -4.967472 -1.834910 0
M  V30 32 C -5.568626 -3.522260 -1.426805 0
M  V30 33 C -2.506189 -2.147244 0.249910 0
M  V30 34 C -1.977349 -1.770061 1.463289 0
M  V30 35 C -0.709378 -1.273916 1.640706 0
M  V30 36 O 0.024504 -1.154074 0.623381 0
M  V30 37 H 1.916224 -3.249407 3.242750 0
M  V30 38 H 2.624242 -2.769949 4.842658 0
M  V30 39 H 0.863391 -2.605812 4.604400 0
M  V30 40 H 4.129924 -1.226391 4.165859 0
M  V30 41 H 4.675159 0.968927 3.356478 0
M  V30 42 H 3.153666 3.622548 2.634210 0
M  V30 43 H 4.479729 2.359859 -1.650410 0
M  V30 44 H 5.418135 4.232106 -3.000265 0
M  V30 45 H 4.846801 6.945272 0.164616 0
M  V30 46 H 3.912258 5.193809 1.577708 0
M  V30 47 H 0.677934 1.517557 2.011527 0
M  V30 48 H -0.643685 -0.756613 4.939906 0
M  V30 49 H -4.647672 -2.465419 3.428861 0
M  V30 50 H -5.522214 -3.113145 1.262210 0
M  V30 51 H -2.401219 -3.166650 -2.122015 0
M  V30 52 H -3.540554 -1.877946 -2.766234 0
M  V30 53 H -4.756499 -3.487339 -4.016464 0
M  V30 54 H -3.081121 -4.078831 -4.067034 0
M  V30 55 H -3.336809 -5.953398 -1.232536 0
M  V30 56 H -2.279993 -5.337014 -2.564371 0
M  V30 57 H -3.115155 -6.875511 -2.780109 0
M  V30 58 H -5.197421 -5.576856 -0.954134 0
M  V30 59 H -6.329626 -5.302177 -2.305678 0
M  V30 60 H -6.274050 -3.486726 -0.594832 0
M  V30 61 H -6.006642 -2.955957 -2.286423 0
M  V30 62 H -1.794490 -2.004706 -0.561417 0
M  V30 END ATOM
M  V30 BEGIN BOND
M  V30 1 1 1 2
M  V30 2 2 2 3
M  V30 3 1 3 4
M  V30 4 2 4 5
M  V30 5 1 5 6
M  V30 6 1 6 7
M  V30 7 2 7 8
M  V30 8 1 7 9
M  V30 9 2 9 10
M  V30 10 1 10 11
M  V30 11 2 11 12
M  V30 12 1 12 13
M  V30 13 3 13 14
M  V30 14 1 12 15
M  V30 15 2 15 16
M  V30 16 1 5 17
M  V30 17 2 17 18
M  V30 18 1 18 19
M  V30 19 1 19 20
M  V30 20 2 20 21
M  V30 21 1 21 22
M  V30 22 2 22 23
M  V30 23 1 23 24
M  V30 24 2 24 25
M  V30 25 1 25 26
M  V30 26 1 26 27
M  V30 27 1 27 28
M  V30 28 1 28 29
M  V30 29 1 29 30
M  V30 30 1 29 31
M  V30 31 1 31 32
M  V30 32 1 25 33
M  V30 33 2 33 34
M  V30 34 1 34 35
M  V30 35 2 35 36
M  V30 36 1 18 2
M  V30 37 1 35 19
M  V30 38 1 16 9
M  V30 39 1 34 22
M  V30 40 1 32 26
M  V30 41 1 1 37
M  V30 42 1 1 38
M  V30 43 1 1 39
M  V30 44 1 3 40
M  V30 45 1 4 41
M  V30 46 1 6 42
M  V30 47 1 10 43
M  V30 48 1 11 44
M  V30 49 1 15 45
M  V30 50 1 16 46
M  V30 51 1 17 47
M  V30 52 1 20 48
M  V30 53 1 23 49
M  V30 54 1 24 50
M  V30 55 1 27 51
M  V30 56 1 27 52
M  V30 57 1 28 53
M  V30 58 1 28 54
M  V30 59 1 30 55
M  V30 60 1 30 56
M  V30 61 1 30 57
M  V30 62 1 31 58
M  V30 63 1 31 59
M  V30 64 1 32 60
M  V30 65 1 32 61
M  V30 66 1 33 62
M  V30 END BOND
M  V30 END CTAB
M  END
>  <Dataset>  (656) 
ChEMBL_Kinases

>  <Ligand_Instance>  (656) 
nan

>  <PDB_ID>  (656) 
nan

>  <Standardized_SMILES>  (656) 
Cc1ccc(NC(=O)c2ccc(C#N)cc2)cc1-n1cnc2ccc(N3CCN(C)CC3)cc2c1=O

>  <Name>  (656) 
nan

>  <Pocket>  (656) 
nan

>  <ATP_Site>  (656) 
nan

>  <Peripheral>  (656) 
nan

>  <Num_H_Atoms_ProtBoundConf>  (656) 
nan

>  <Num_Resolved_Atoms>  (656) 
nan

>  <Num_Not_Resolved_Atoms>  (656) 
nan

$$$$
CHEMBL2031228
     RDKit          3D

  0  0  0  0  0  0  0  0  0  0999 V3000
M  V30 BEGIN CTAB
M  V30 COUNTS 65 69 0 0 0
M  V30 BEGIN ATOM
M  V30 1 C 1.785029 -3.326076 3.546725 0
M  V30 2 C 1.838605 -1.850556 3.582885 0
M  V30 3 C 2.932982 -1.225874 4.144041 0
M  V30 4 C 2.998806 0.168865 4.185928 0
M  V30 5 C 1.935317 0.897559 3.648616 0
M  V30 6 N 1.892411 2.340116 3.635370 0
M  V30 7 C 2.486767 2.803232 2.437625 0
M  V30 8 O 2.914787 1.913741 1.657711 0
M  V30 9 C 2.635304 4.202463 2.051575 0
M  V30 10 C 3.245991 4.440220 0.836748 0
M  V30 11 C 3.398595 5.775910 0.446896 0
M  V30 12 C 2.951251 6.821782 1.254321 0
M  V30 13 C 3.126311 8.196530 0.817654 0
M  V30 14 N 3.264365 9.297564 0.450442 0
M  V30 15 C 2.344938 6.551990 2.462739 0
M  V30 16 C 2.185602 5.222722 2.865363 0
M  V30 17 C 0.831177 0.279423 3.082532 0
M  V30 18 C 0.793462 -1.113926 3.054969 0
M  V30 19 N -0.357586 -1.712505 2.465092 0
M  V30 20 C -1.283920 -2.396186 3.166730 0
M  V30 21 C -1.110625 -2.543272 4.637408 0
M  V30 22 N -2.358600 -2.947831 2.573632 0
M  V30 23 C -2.542138 -2.829530 1.234290 0
M  V30 24 C -3.642354 -3.391585 0.611301 0
M  V30 25 C -3.751798 -3.222903 -0.759209 0
M  V30 26 C -2.872400 -2.552706 -1.548556 0
M  V30 27 N -2.989673 -2.384907 -2.940931 0
M  V30 28 C -2.004659 -1.656732 -3.717930 0
M  V30 29 C -2.063663 -2.222061 -5.137979 0
M  V30 30 N -2.271704 -3.636747 -5.141216 0
M  V30 31 C -1.172375 -4.410352 -4.654781 0
M  V30 32 C -3.543576 -4.029149 -4.583127 0
M  V30 33 C -4.088622 -2.914979 -3.720358 0
M  V30 34 C -1.781419 -1.998898 -0.910188 0
M  V30 35 C -1.605016 -2.129005 0.472761 0
M  V30 36 C -0.521754 -1.583740 1.133405 0
M  V30 37 O 0.341245 -0.944189 0.464542 0
M  V30 38 H 1.602723 -3.665545 4.600299 0
M  V30 39 H 0.947187 -3.683558 2.912938 0
M  V30 40 H 2.737062 -3.796499 3.240704 0
M  V30 41 H 3.776796 -1.762359 4.570617 0
M  V30 42 H 3.822333 0.729290 4.608761 0
M  V30 43 H 1.528262 3.054986 4.301727 0
M  V30 44 H 3.611448 3.670880 0.171360 0
M  V30 45 H 3.865819 6.071267 -0.490239 0
M  V30 46 H 1.987149 7.356541 3.110712 0
M  V30 47 H 1.708045 5.027231 3.816032 0
M  V30 48 H 0.004228 0.860696 2.664816 0
M  V30 49 H -0.373379 -1.825355 5.039589 0
M  V30 50 H -0.831095 -3.605453 4.823705 0
M  V30 51 H -2.108268 -2.303114 5.106642 0
M  V30 52 H -4.388732 -3.944815 1.190454 0
M  V30 53 H -4.618642 -3.674106 -1.201690 0
M  V30 54 H -2.238047 -0.580733 -3.801593 0
M  V30 55 H -0.962145 -1.816281 -3.385681 0
M  V30 56 H -1.077418 -2.036156 -5.626528 0
M  V30 57 H -2.869795 -1.745188 -5.729596 0
M  V30 58 H -0.641679 -3.969885 -3.784363 0
M  V30 59 H -1.546475 -5.433956 -4.401744 0
M  V30 60 H -0.450069 -4.555160 -5.490578 0
M  V30 61 H -4.243719 -4.144101 -5.449852 0
M  V30 62 H -3.494477 -4.982109 -4.020390 0
M  V30 63 H -4.971225 -3.196133 -3.151973 0
M  V30 64 H -4.410025 -2.111337 -4.443628 0
M  V30 65 H -0.987988 -1.435258 -1.382743 0
M  V30 END ATOM
M  V30 BEGIN BOND
M  V30 1 1 1 2
M  V30 2 2 2 3
M  V30 3 1 3 4
M  V30 4 2 4 5
M  V30 5 1 5 6
M  V30 6 1 6 7
M  V30 7 2 7 8
M  V30 8 1 7 9
M  V30 9 2 9 10
M  V30 10 1 10 11
M  V30 11 2 11 12
M  V30 12 1 12 13
M  V30 13 3 13 14
M  V30 14 1 12 15
M  V30 15 2 15 16
M  V30 16 1 5 17
M  V30 17 2 17 18
M  V30 18 1 18 19
M  V30 19 1 19 20
M  V30 20 1 20 21
M  V30 21 2 20 22
M  V30 22 1 22 23
M  V30 23 2 23 24
M  V30 24 1 24 25
M  V30 25 2 25 26
M  V30 26 1 26 27
M  V30 27 1 27 28
M  V30 28 1 28 29
M  V30 29 1 29 30
M  V30 30 1 30 31
M  V30 31 1 30 32
M  V30 32 1 32 33
M  V30 33 1 26 34
M  V30 34 2 34 35
M  V30 35 1 35 36
M  V30 36 2 36 37
M  V30 37 1 18 2
M  V30 38 1 36 19
M  V30 39 1 16 9
M  V30 40 1 35 23
M  V30 41 1 33 27
M  V30 42 1 1 38
M  V30 43 1 1 39
M  V30 44 1 1 40
M  V30 45 1 3 41
M  V30 46 1 4 42
M  V30 47 1 6 43
M  V30 48 1 10 44
M  V30 49 1 11 45
M  V30 50 1 15 46
M  V30 51 1 16 47
M  V30 52 1 17 48
M  V30 53 1 21 49
M  V30 54 1 21 50
M  V30 55 1 21 51
M  V30 56 1 24 52
M  V30 57 1 25 53
M  V30 58 1 28 54
M  V30 59 1 28 55
M  V30 60 1 29 56
M  V30 61 1 29 57
M  V30 62 1 31 58
M  V30 63 1 31 59
M  V30 64 1 31 60
M  V30 65 1 32 61
M  V30 66 1 32 62
M  V30 67 1 33 63
M  V30 68 1 33 64
M  V30 69 1 34 65
M  V30 END BOND
M  V30 END CTAB
M  END
>  <Dataset>  (657) 
ChEMBL_Kinases

>  <Ligand_Instance>  (657) 
nan

>  <PDB_ID>  (657) 
nan

>  <Standardized_SMILES>  (657) 
Cc1ccc(NC(=O)c2ccc(C#N)cc2)cc1-n1c(C)nc2ccc(N3CCN(C)CC3)cc2c1=O

>  <Name>  (657) 
nan

>  <Pocket>  (657) 
nan

>  <ATP_Site>  (657) 
nan

>  <Peripheral>  (657) 
nan

>  <Num_H_Atoms_ProtBoundConf>  (657) 
nan

>  <Num_Resolved_Atoms>  (657) 
nan

>  <Num_Not_Resolved_Atoms>  (657) 
nan

$$$$
CHEMBL2031229
     RDKit          3D

  0  0  0  0  0  0  0  0  0  0999 V3000
M  V30 BEGIN CTAB
M  V30 COUNTS 61 65 0 0 0
M  V30 BEGIN ATOM
M  V30 1 C -1.682657 -0.387052 4.885606 0
M  V30 2 C -0.634503 0.439412 4.224375 0
M  V30 3 C -0.316679 1.706440 4.687255 0
M  V30 4 C 0.664937 2.461707 4.055736 0
M  V30 5 C 1.339900 1.964427 2.958050 0
M  V30 6 N 2.357823 2.634426 2.227262 0
M  V30 7 C 3.714903 2.538323 2.542993 0
M  V30 8 O 3.866854 1.775018 3.559606 0
M  V30 9 C 4.845234 3.162515 1.887769 0
M  V30 10 C 6.103113 2.888456 2.428535 0
M  V30 11 C 7.254240 3.422735 1.895020 0
M  V30 12 C 7.230351 4.257243 0.798338 0
M  V30 13 C 6.005078 4.549126 0.238908 0
M  V30 14 C 4.875676 3.998763 0.796649 0
M  V30 15 F 3.670944 4.280848 0.252644 0
M  V30 16 C 1.005938 0.697170 2.513538 0
M  V30 17 C 0.021055 -0.066198 3.143434 0
M  V30 18 N -0.266773 -1.365164 2.624643 0
M  V30 19 C 0.158910 -2.506340 3.217057 0
M  V30 20 N -0.167404 -3.678848 2.645343 0
M  V30 21 C -0.891710 -3.787493 1.519383 0
M  V30 22 C -1.231590 -4.984513 0.924410 0
M  V30 23 C -1.980869 -4.963834 -0.233211 0
M  V30 24 C -2.418322 -3.808478 -0.842949 0
M  V30 25 N -3.189620 -3.755283 -2.035103 0
M  V30 26 C -3.605499 -2.490405 -2.579662 0
M  V30 27 C -4.539516 -2.718563 -3.726685 0
M  V30 28 N -3.875911 -3.464894 -4.759205 0
M  V30 29 C -2.882062 -2.728509 -5.479624 0
M  V30 30 C -3.391516 -4.737528 -4.284824 0
M  V30 31 C -3.619024 -4.909700 -2.794832 0
M  V30 32 C -2.060163 -2.632298 -0.220994 0
M  V30 33 C -1.311422 -2.610837 0.938172 0
M  V30 34 C -0.985363 -1.397242 1.512060 0
M  V30 35 O -1.402770 -0.346229 0.927518 0
M  V30 36 H -2.524520 0.229020 5.287971 0
M  V30 37 H -1.286513 -0.962312 5.754526 0
M  V30 38 H -2.140834 -1.098149 4.172565 0
M  V30 39 H -0.828187 2.124701 5.546502 0
M  V30 40 H 0.949980 3.460128 4.380828 0
M  V30 41 H 2.082008 3.224385 1.419083 0
M  V30 42 H 6.197393 2.233691 3.299822 0
M  V30 43 H 8.198102 3.172859 2.359149 0
M  V30 44 H 8.110352 4.695816 0.350838 0
M  V30 45 H 5.888453 5.188498 -0.615601 0
M  V30 46 H 1.502644 0.256406 1.656988 0
M  V30 47 H 0.742780 -2.437711 4.123607 0
M  V30 48 H -0.902623 -5.892884 1.381004 0
M  V30 49 H -2.229087 -5.903475 -0.670769 0
M  V30 50 H -2.754590 -1.845215 -2.884655 0
M  V30 51 H -4.166459 -1.882416 -1.822239 0
M  V30 52 H -4.888283 -1.775563 -4.194042 0
M  V30 53 H -5.400171 -3.334752 -3.377916 0
M  V30 54 H -1.960789 -3.356450 -5.633189 0
M  V30 55 H -2.579597 -1.830916 -4.916638 0
M  V30 56 H -3.258915 -2.347414 -6.466740 0
M  V30 57 H -2.322886 -4.872145 -4.536879 0
M  V30 58 H -3.957165 -5.521445 -4.818912 0
M  V30 59 H -4.712188 -5.095972 -2.615481 0
M  V30 60 H -3.061007 -5.826427 -2.518511 0
M  V30 61 H -2.387297 -1.700075 -0.673097 0
M  V30 END ATOM
M  V30 BEGIN BOND
M  V30 1 1 1 2
M  V30 2 2 2 3
M  V30 3 1 3 4
M  V30 4 2 4 5
M  V30 5 1 5 6
M  V30 6 1 6 7
M  V30 7 2 7 8
M  V30 8 1 7 9
M  V30 9 2 9 10
M  V30 10 1 10 11
M  V30 11 2 11 12
M  V30 12 1 12 13
M  V30 13 2 13 14
M  V30 14 1 14 15
M  V30 15 1 5 16
M  V30 16 2 16 17
M  V30 17 1 17 18
M  V30 18 1 18 19
M  V30 19 2 19 20
M  V30 20 1 20 21
M  V30 21 2 21 22
M  V30 22 1 22 23
M  V30 23 2 23 24
M  V30 24 1 24 25
M  V30 25 1 25 26
M  V30 26 1 26 27
M  V30 27 1 27 28
M  V30 28 1 28 29
M  V30 29 1 28 30
M  V30 30 1 30 31
M  V30 31 1 24 32
M  V30 32 2 32 33
M  V30 33 1 33 34
M  V30 34 2 34 35
M  V30 35 1 17 2
M  V30 36 1 34 18
M  V30 37 1 14 9
M  V30 38 1 33 21
M  V30 39 1 31 25
M  V30 40 1 1 36
M  V30 41 1 1 37
M  V30 42 1 1 38
M  V30 43 1 3 39
M  V30 44 1 4 40
M  V30 45 1 6 41
M  V30 46 1 10 42
M  V30 47 1 11 43
M  V30 48 1 12 44
M  V30 49 1 13 45
M  V30 50 1 16 46
M  V30 51 1 19 47
M  V30 52 1 22 48
M  V30 53 1 23 49
M  V30 54 1 26 50
M  V30 55 1 26 51
M  V30 56 1 27 52
M  V30 57 1 27 53
M  V30 58 1 29 54
M  V30 59 1 29 55
M  V30 60 1 29 56
M  V30 61 1 30 57
M  V30 62 1 30 58
M  V30 63 1 31 59
M  V30 64 1 31 60
M  V30 65 1 32 61
M  V30 END BOND
M  V30 END CTAB
M  END
>  <Dataset>  (658) 
ChEMBL_Kinases

>  <Ligand_Instance>  (658) 
nan

>  <PDB_ID>  (658) 
nan

>  <Standardized_SMILES>  (658) 
Cc1ccc(NC(=O)c2ccccc2F)cc1-n1cnc2ccc(N3CCN(C)CC3)cc2c1=O

>  <Name>  (658) 
nan

>  <Pocket>  (658) 
nan

>  <ATP_Site>  (658) 
nan

>  <Peripheral>  (658) 
nan

>  <Num_H_Atoms_ProtBoundConf>  (658) 
nan

>  <Num_Resolved_Atoms>  (658) 
nan

>  <Num_Not_Resolved_Atoms>  (658) 
nan

$$$$
CHEMBL2031239
     RDKit          3D

  0  0  0  0  0  0  0  0  0  0999 V3000
M  V30 BEGIN CTAB
M  V30 COUNTS 61 65 0 0 0
M  V30 BEGIN ATOM
M  V30 1 C -0.642688 0.064529 5.076467 0
M  V30 2 C 0.300048 0.850073 4.238853 0
M  V30 3 C 1.375561 1.472741 4.837272 0
M  V30 4 C 2.266770 2.213390 4.056684 0
M  V30 5 C 2.063372 2.316723 2.687460 0
M  V30 6 N 2.912987 3.047417 1.803554 0
M  V30 7 C 3.975024 2.261667 1.265920 0
M  V30 8 O 4.185664 1.049685 1.511891 0
M  V30 9 C 4.919899 2.889588 0.344566 0
M  V30 10 C 5.990914 2.253021 -0.249737 0
M  V30 11 C 6.638618 3.197609 -1.052938 0
M  V30 12 O 5.992858 4.332824 -0.945419 0
M  V30 13 C 4.973161 4.201316 -0.133399 0
M  V30 14 C 0.972837 1.674516 2.142276 0
M  V30 15 C 0.071369 0.934461 2.880044 0
M  V30 16 N -1.027366 0.306338 2.223305 0
M  V30 17 C -2.272657 0.790333 2.309720 0
M  V30 18 C -2.562945 2.005073 3.095377 0
M  V30 19 N -3.262418 0.130868 1.653033 0
M  V30 20 C -3.009978 -0.976475 0.934400 0
M  V30 21 C -3.987289 -1.655477 0.266613 0
M  V30 22 C -3.724839 -2.791793 -0.470137 0
M  V30 23 C -2.455187 -3.307625 -0.573749 0
M  V30 24 N -2.195568 -4.474345 -1.334194 0
M  V30 25 C -3.159701 -5.217620 -2.087634 0
M  V30 26 C -2.734579 -5.384803 -3.525464 0
M  V30 27 N -1.471879 -4.875634 -3.872023 0
M  V30 28 C -1.436045 -3.638222 -4.592269 0
M  V30 29 C -0.427391 -5.038563 -2.915917 0
M  V30 30 C -0.918220 -5.131814 -1.493453 0
M  V30 31 C -1.479205 -2.615456 0.102870 0
M  V30 32 C -1.728477 -1.478310 0.842857 0
M  V30 33 C -0.723633 -0.813019 1.506616 0
M  V30 34 O 0.470525 -1.236523 1.451965 0
M  V30 35 H -0.121396 -0.759755 5.633607 0
M  V30 36 H -1.399219 -0.432431 4.457933 0
M  V30 37 H -1.173576 0.723559 5.812993 0
M  V30 38 H 1.571106 1.417974 5.900391 0
M  V30 39 H 3.131483 2.733694 4.426045 0
M  V30 40 H 2.814148 4.052717 1.542371 0
M  V30 41 H 6.335418 1.230354 -0.167892 0
M  V30 42 H 7.509184 3.141525 -1.690004 0
M  V30 43 H 4.197238 4.881490 0.224057 0
M  V30 44 H 0.795787 1.743896 1.067266 0
M  V30 45 H -3.448532 2.561399 2.684195 0
M  V30 46 H -2.783569 1.801782 4.162705 0
M  V30 47 H -1.733107 2.729590 3.064327 0
M  V30 48 H -4.990676 -1.235633 0.356982 0
M  V30 49 H -4.580827 -3.210598 -0.932849 0
M  V30 50 H -4.203510 -4.869217 -1.997009 0
M  V30 51 H -3.187877 -6.260222 -1.646408 0
M  V30 52 H -3.519565 -4.861570 -4.144183 0
M  V30 53 H -2.798889 -6.442448 -3.851970 0
M  V30 54 H -0.806071 -2.902259 -4.019347 0
M  V30 55 H -2.406860 -3.229995 -4.889640 0
M  V30 56 H -0.855718 -3.813319 -5.532721 0
M  V30 57 H 0.120245 -5.971196 -3.142567 0
M  V30 58 H 0.272504 -4.189151 -2.987725 0
M  V30 59 H -0.195607 -4.713996 -0.779674 0
M  V30 60 H -1.010968 -6.217736 -1.193911 0
M  V30 61 H -0.448502 -2.925562 0.093048 0
M  V30 END ATOM
M  V30 BEGIN BOND
M  V30 1 1 1 2
M  V30 2 2 2 3
M  V30 3 1 3 4
M  V30 4 2 4 5
M  V30 5 1 5 6
M  V30 6 1 6 7
M  V30 7 2 7 8
M  V30 8 1 7 9
M  V30 9 1 9 10
M  V30 10 2 10 11
M  V30 11 1 11 12
M  V30 12 1 12 13
M  V30 13 1 5 14
M  V30 14 2 14 15
M  V30 15 1 15 16
M  V30 16 1 16 17
M  V30 17 1 17 18
M  V30 18 2 17 19
M  V30 19 1 19 20
M  V30 20 2 20 21
M  V30 21 1 21 22
M  V30 22 2 22 23
M  V30 23 1 23 24
M  V30 24 1 24 25
M  V30 25 1 25 26
M  V30 26 1 26 27
M  V30 27 1 27 28
M  V30 28 1 27 29
M  V30 29 1 29 30
M  V30 30 1 23 31
M  V30 31 2 31 32
M  V30 32 1 32 33
M  V30 33 2 33 34
M  V30 34 1 15 2
M  V30 35 1 33 16
M  V30 36 2 13 9
M  V30 37 1 32 20
M  V30 38 1 30 24
M  V30 39 1 1 35
M  V30 40 1 1 36
M  V30 41 1 1 37
M  V30 42 1 3 38
M  V30 43 1 4 39
M  V30 44 1 6 40
M  V30 45 1 10 41
M  V30 46 1 11 42
M  V30 47 1 13 43
M  V30 48 1 14 44
M  V30 49 1 18 45
M  V30 50 1 18 46
M  V30 51 1 18 47
M  V30 52 1 21 48
M  V30 53 1 22 49
M  V30 54 1 25 50
M  V30 55 1 25 51
M  V30 56 1 26 52
M  V30 57 1 26 53
M  V30 58 1 28 54
M  V30 59 1 28 55
M  V30 60 1 28 56
M  V30 61 1 29 57
M  V30 62 1 29 58
M  V30 63 1 30 59
M  V30 64 1 30 60
M  V30 65 1 31 61
M  V30 END BOND
M  V30 END CTAB
M  END
>  <Dataset>  (659) 
ChEMBL_Kinases

>  <Ligand_Instance>  (659) 
nan

>  <PDB_ID>  (659) 
nan

>  <Standardized_SMILES>  (659) 
Cc1ccc(NC(=O)c2ccoc2)cc1-n1c(C)nc2ccc(N3CCN(C)CC3)cc2c1=O

>  <Name>  (659) 
nan

>  <Pocket>  (659) 
nan

>  <ATP_Site>  (659) 
nan

>  <Peripheral>  (659) 
nan

>  <Num_H_Atoms_ProtBoundConf>  (659) 
nan

>  <Num_Resolved_Atoms>  (659) 
nan

>  <Num_Not_Resolved_Atoms>  (659) 
nan

$$$$
CHEMBL2031231
     RDKit          3D

  0  0  0  0  0  0  0  0  0  0999 V3000
M  V30 BEGIN CTAB
M  V30 COUNTS 65 69 0 0 0
M  V30 BEGIN ATOM
M  V30 1 C 0.066120 0.702514 5.524192 0
M  V30 2 C 1.181876 0.557695 4.546678 0
M  V30 3 C 2.397893 1.161813 4.835711 0
M  V30 4 C 3.460595 1.056498 3.962649 0
M  V30 5 C 3.268111 0.329231 2.794132 0
M  V30 6 N 4.272734 0.124829 1.782321 0
M  V30 7 C 4.235708 1.139769 0.809393 0
M  V30 8 O 3.332626 1.991379 1.049209 0
M  V30 9 C 5.214920 1.096767 -0.333514 0
M  V30 10 C 5.028543 2.249296 -1.263922 0
M  V30 11 C 4.128251 1.832568 -2.414562 0
M  V30 12 O 3.114616 1.057426 -1.891119 0
M  V30 13 C 3.629435 -0.241597 -1.737394 0
M  V30 14 C 5.001378 -0.204566 -1.106288 0
M  V30 15 C 2.053906 -0.274167 2.505212 0
M  V30 16 C 0.993618 -0.165631 3.382440 0
M  V30 17 N -0.261761 -0.786961 3.088159 0
M  V30 18 C -0.783985 -1.601876 4.023370 0
M  V30 19 N -1.981905 -2.199532 3.751711 0
M  V30 20 C -2.616764 -1.980775 2.589973 0
M  V30 21 C -3.819984 -2.567687 2.291577 0
M  V30 22 C -4.468379 -2.339310 1.095638 0
M  V30 23 C -3.944101 -1.509440 0.134552 0
M  V30 24 N -4.615795 -1.279499 -1.091453 0
M  V30 25 C -5.890722 -1.849326 -1.485204 0
M  V30 26 C -5.665212 -2.740183 -2.664450 0
M  V30 27 N -4.298151 -2.702491 -3.131474 0
M  V30 28 C -3.378000 -3.466771 -2.374753 0
M  V30 29 C -3.876402 -1.337923 -3.362346 0
M  V30 30 C -4.152097 -0.434395 -2.175164 0
M  V30 31 C -2.739213 -0.917009 0.424294 0
M  V30 32 C -2.091712 -1.147996 1.624129 0
M  V30 33 C -0.883726 -0.545344 1.898118 0
M  V30 34 O -0.321402 0.240749 1.064785 0
M  V30 35 H 0.182219 0.051387 6.415780 0
M  V30 36 H 0.152907 1.750316 5.937269 0
M  V30 37 H -0.920278 0.656167 5.046771 0
M  V30 38 H 2.573015 1.740464 5.751273 0
M  V30 39 H 4.437235 1.492522 4.107372 0
M  V30 40 H 4.977733 -0.667255 1.722703 0
M  V30 41 H 6.219187 1.021864 0.127539 0
M  V30 42 H 6.004223 2.508743 -1.730820 0
M  V30 43 H 4.664112 3.166925 -0.763658 0
M  V30 44 H 3.753748 2.714003 -2.977254 0
M  V30 45 H 4.710225 1.221836 -3.118505 0
M  V30 46 H 2.901249 -0.828835 -1.146577 0
M  V30 47 H 3.691093 -0.714545 -2.740494 0
M  V30 48 H 5.818677 -0.323674 -1.833655 0
M  V30 49 H 5.044666 -1.040813 -0.371647 0
M  V30 50 H 1.883142 -0.850694 1.590624 0
M  V30 51 H -0.302371 -1.802693 4.970946 0
M  V30 52 H -4.233387 -3.224359 3.053862 0
M  V30 53 H -5.399006 -2.859685 0.989374 0
M  V30 54 H -6.431392 -2.348169 -0.656099 0
M  V30 55 H -6.594078 -1.039496 -1.849215 0
M  V30 56 H -6.292072 -2.468321 -3.559833 0
M  V30 57 H -5.935368 -3.799410 -2.465672 0
M  V30 58 H -2.515192 -2.882524 -1.977677 0
M  V30 59 H -3.021303 -4.340815 -2.960334 0
M  V30 60 H -3.895223 -3.903326 -1.495469 0
M  V30 61 H -4.460674 -1.009642 -4.271694 0
M  V30 62 H -2.813757 -1.297665 -3.667339 0
M  V30 63 H -3.273945 0.186282 -1.918638 0
M  V30 64 H -4.962815 0.283940 -2.495928 0
M  V30 65 H -2.234652 -0.248389 -0.254813 0
M  V30 END ATOM
M  V30 BEGIN BOND
M  V30 1 1 1 2
M  V30 2 2 2 3
M  V30 3 1 3 4
M  V30 4 2 4 5
M  V30 5 1 5 6
M  V30 6 1 6 7
M  V30 7 2 7 8
M  V30 8 1 7 9
M  V30 9 1 9 10
M  V30 10 1 10 11
M  V30 11 1 11 12
M  V30 12 1 12 13
M  V30 13 1 13 14
M  V30 14 1 5 15
M  V30 15 2 15 16
M  V30 16 1 16 17
M  V30 17 1 17 18
M  V30 18 2 18 19
M  V30 19 1 19 20
M  V30 20 2 20 21
M  V30 21 1 21 22
M  V30 22 2 22 23
M  V30 23 1 23 24
M  V30 24 1 24 25
M  V30 25 1 25 26
M  V30 26 1 26 27
M  V30 27 1 27 28
M  V30 28 1 27 29
M  V30 29 1 29 30
M  V30 30 1 23 31
M  V30 31 2 31 32
M  V30 32 1 32 33
M  V30 33 2 33 34
M  V30 34 1 16 2
M  V30 35 1 33 17
M  V30 36 1 14 9
M  V30 37 1 32 20
M  V30 38 1 30 24
M  V30 39 1 1 35
M  V30 40 1 1 36
M  V30 41 1 1 37
M  V30 42 1 3 38
M  V30 43 1 4 39
M  V30 44 1 6 40
M  V30 45 1 9 41
M  V30 46 1 10 42
M  V30 47 1 10 43
M  V30 48 1 11 44
M  V30 49 1 11 45
M  V30 50 1 13 46
M  V30 51 1 13 47
M  V30 52 1 14 48
M  V30 53 1 14 49
M  V30 54 1 15 50
M  V30 55 1 18 51
M  V30 56 1 21 52
M  V30 57 1 22 53
M  V30 58 1 25 54
M  V30 59 1 25 55
M  V30 60 1 26 56
M  V30 61 1 26 57
M  V30 62 1 28 58
M  V30 63 1 28 59
M  V30 64 1 28 60
M  V30 65 1 29 61
M  V30 66 1 29 62
M  V30 67 1 30 63
M  V30 68 1 30 64
M  V30 69 1 31 65
M  V30 END BOND
M  V30 END CTAB
M  END
>  <Dataset>  (660) 
ChEMBL_Kinases

>  <Ligand_Instance>  (660) 
nan

>  <PDB_ID>  (660) 
nan

>  <Standardized_SMILES>  (660) 
Cc1ccc(NC(=O)C2CCOCC2)cc1-n1cnc2ccc(N3CCN(C)CC3)cc2c1=O

>  <Name>  (660) 
nan

>  <Pocket>  (660) 
nan

>  <ATP_Site>  (660) 
nan

>  <Peripheral>  (660) 
nan

>  <Num_H_Atoms_ProtBoundConf>  (660) 
nan

>  <Num_Resolved_Atoms>  (660) 
nan

>  <Num_Not_Resolved_Atoms>  (660) 
nan

$$$$
CHEMBL2031232
     RDKit          3D

  0  0  0  0  0  0  0  0  0  0999 V3000
M  V30 BEGIN CTAB
M  V30 COUNTS 61 65 0 0 0
M  V30 BEGIN ATOM
M  V30 1 C -0.151081 -0.173684 5.113746 0
M  V30 2 C 0.945208 0.363088 4.264027 0
M  V30 3 C 2.250840 0.584490 4.651756 0
M  V30 4 C 3.175899 1.091502 3.752785 0
M  V30 5 C 2.814956 1.391397 2.435302 0
M  V30 6 N 3.789950 1.915565 1.523467 0
M  V30 7 C 4.568918 1.032670 0.732081 0
M  V30 8 O 4.288164 -0.175299 0.943758 0
M  V30 9 C 5.561286 1.587722 -0.195239 0
M  V30 10 C 6.663591 2.428874 0.404702 0
M  V30 11 C 6.548764 3.341770 -0.809239 0
M  V30 12 C 5.146465 2.770718 -1.016709 0
M  V30 13 C 1.495294 1.162607 2.060069 0
M  V30 14 C 0.566628 0.652157 2.967396 0
M  V30 15 N -0.714881 0.503754 2.356926 0
M  V30 16 C -1.695220 1.396530 2.368420 0
M  V30 17 N -2.864862 1.118139 1.743029 0
M  V30 18 C -3.080589 -0.055505 1.093875 0
M  V30 19 C -4.254529 -0.349190 0.458809 0
M  V30 20 C -4.431420 -1.566579 -0.195254 0
M  V30 21 C -3.425007 -2.506054 -0.217889 0
M  V30 22 N -3.664363 -3.727386 -0.901468 0
M  V30 23 C -4.958725 -3.885732 -1.534719 0
M  V30 24 C -4.875226 -5.066482 -2.475115 0
M  V30 25 N -3.682875 -5.012784 -3.302114 0
M  V30 26 C -3.683559 -3.715298 -3.990648 0
M  V30 27 C -2.482725 -5.161262 -2.498278 0
M  V30 28 C -2.758249 -4.840411 -1.039509 0
M  V30 29 C -2.262256 -2.163211 0.435896 0
M  V30 30 C -2.054304 -0.974048 1.089667 0
M  V30 31 C -0.850146 -0.700829 1.727156 0
M  V30 32 O 0.048601 -1.594423 1.681161 0
M  V30 33 H -0.628209 -1.072507 4.668462 0
M  V30 34 H -0.920481 0.585777 5.354812 0
M  V30 35 H 0.319479 -0.526764 6.053504 0
M  V30 36 H 2.476367 0.335736 5.680274 0
M  V30 37 H 4.183126 1.243541 4.115042 0
M  V30 38 H 3.880103 2.966058 1.487570 0
M  V30 39 H 6.027159 0.821007 -0.869246 0
M  V30 40 H 6.310498 2.849327 1.357457 0
M  V30 41 H 7.633409 1.900895 0.468736 0
M  V30 42 H 7.287084 3.056641 -1.591467 0
M  V30 43 H 6.556367 4.434485 -0.542833 0
M  V30 44 H 4.404030 3.439907 -0.542349 0
M  V30 45 H 4.914546 2.494976 -2.076566 0
M  V30 46 H 1.301302 1.421960 1.022897 0
M  V30 47 H -1.513551 2.325859 2.886875 0
M  V30 48 H -5.031139 0.412356 0.493961 0
M  V30 49 H -5.401861 -1.665588 -0.651798 0
M  V30 50 H -5.733700 -4.089451 -0.773048 0
M  V30 51 H -5.189043 -3.007535 -2.171942 0
M  V30 52 H -5.777948 -5.065384 -3.109565 0
M  V30 53 H -4.805505 -5.986114 -1.856911 0
M  V30 54 H -3.177988 -2.990400 -3.319554 0
M  V30 55 H -4.735952 -3.406341 -4.196848 0
M  V30 56 H -3.142110 -3.759874 -4.955805 0
M  V30 57 H -1.648692 -4.577566 -2.906143 0
M  V30 58 H -2.197339 -6.235004 -2.538111 0
M  V30 59 H -1.790274 -4.601222 -0.570771 0
M  V30 60 H -3.147889 -5.761816 -0.546775 0
M  V30 61 H -1.454152 -2.876382 0.437723 0
M  V30 END ATOM
M  V30 BEGIN BOND
M  V30 1 1 1 2
M  V30 2 2 2 3
M  V30 3 1 3 4
M  V30 4 2 4 5
M  V30 5 1 5 6
M  V30 6 1 6 7
M  V30 7 2 7 8
M  V30 8 1 7 9
M  V30 9 1 9 10
M  V30 10 1 10 11
M  V30 11 1 11 12
M  V30 12 1 5 13
M  V30 13 2 13 14
M  V30 14 1 14 15
M  V30 15 1 15 16
M  V30 16 2 16 17
M  V30 17 1 17 18
M  V30 18 2 18 19
M  V30 19 1 19 20
M  V30 20 2 20 21
M  V30 21 1 21 22
M  V30 22 1 22 23
M  V30 23 1 23 24
M  V30 24 1 24 25
M  V30 25 1 25 26
M  V30 26 1 25 27
M  V30 27 1 27 28
M  V30 28 1 21 29
M  V30 29 2 29 30
M  V30 30 1 30 31
M  V30 31 2 31 32
M  V30 32 1 14 2
M  V30 33 1 31 15
M  V30 34 1 12 9
M  V30 35 1 30 18
M  V30 36 1 28 22
M  V30 37 1 1 33
M  V30 38 1 1 34
M  V30 39 1 1 35
M  V30 40 1 3 36
M  V30 41 1 4 37
M  V30 42 1 6 38
M  V30 43 1 9 39
M  V30 44 1 10 40
M  V30 45 1 10 41
M  V30 46 1 11 42
M  V30 47 1 11 43
M  V30 48 1 12 44
M  V30 49 1 12 45
M  V30 50 1 13 46
M  V30 51 1 16 47
M  V30 52 1 19 48
M  V30 53 1 20 49
M  V30 54 1 23 50
M  V30 55 1 23 51
M  V30 56 1 24 52
M  V30 57 1 24 53
M  V30 58 1 26 54
M  V30 59 1 26 55
M  V30 60 1 26 56
M  V30 61 1 27 57
M  V30 62 1 27 58
M  V30 63 1 28 59
M  V30 64 1 28 60
M  V30 65 1 29 61
M  V30 END BOND
M  V30 END CTAB
M  END
>  <Dataset>  (661) 
ChEMBL_Kinases

>  <Ligand_Instance>  (661) 
nan

>  <PDB_ID>  (661) 
nan

>  <Standardized_SMILES>  (661) 
Cc1ccc(NC(=O)C2CCC2)cc1-n1cnc2ccc(N3CCN(C)CC3)cc2c1=O

>  <Name>  (661) 
nan

>  <Pocket>  (661) 
nan

>  <ATP_Site>  (661) 
nan

>  <Peripheral>  (661) 
nan

>  <Num_H_Atoms_ProtBoundConf>  (661) 
nan

>  <Num_Resolved_Atoms>  (661) 
nan

>  <Num_Not_Resolved_Atoms>  (661) 
nan

$$$$
CHEMBL2031233
     RDKit          3D

  0  0  0  0  0  0  0  0  0  0999 V3000
M  V30 BEGIN CTAB
M  V30 COUNTS 58 62 0 0 0
M  V30 BEGIN ATOM
M  V30 1 C 0.261617 3.832935 -0.463286 0
M  V30 2 C 1.484500 3.079015 -0.052699 0
M  V30 3 C 2.654999 3.667776 -0.518724 0
M  V30 4 C 3.881836 3.076689 -0.214950 0
M  V30 5 C 3.913147 1.913637 0.545514 0
M  V30 6 N 5.174762 1.324051 0.845720 0
M  V30 7 C 6.146766 1.408887 1.849158 0
M  V30 8 O 6.052310 2.165844 2.847759 0
M  V30 9 C 7.320532 0.506447 1.621255 0
M  V30 10 C 7.754563 0.172241 0.259342 0
M  V30 11 C 7.023788 -0.884579 1.054343 0
M  V30 12 C 2.736079 1.352834 0.993628 0
M  V30 13 C 1.517631 1.924023 0.702360 0
M  V30 14 N 0.249135 1.418385 1.120331 0
M  V30 15 C -0.541418 2.116488 1.981141 0
M  V30 16 N -1.756704 1.646488 2.389469 0
M  V30 17 C -2.202557 0.456563 1.935971 0
M  V30 18 C -3.405319 -0.058325 2.310231 0
M  V30 19 C -3.839876 -1.276890 1.833060 0
M  V30 20 C -3.114055 -2.033354 0.974363 0
M  V30 21 N -3.560533 -3.288328 0.485023 0
M  V30 22 C -4.795252 -3.933152 0.865037 0
M  V30 23 C -5.728892 -3.914503 -0.322354 0
M  V30 24 N -5.168922 -4.687511 -1.375219 0
M  V30 25 C -5.689039 -6.032015 -1.404993 0
M  V30 26 C -3.777828 -4.592671 -1.594386 0
M  V30 27 C -2.929939 -4.158352 -0.448414 0
M  V30 28 C -1.903864 -1.492585 0.611166 0
M  V30 29 C -1.445081 -0.286435 1.067212 0
M  V30 30 C -0.224773 0.235365 0.686757 0
M  V30 31 O 0.492929 -0.435239 -0.116446 0
M  V30 32 H 0.285596 4.050761 -1.563124 0
M  V30 33 H -0.632890 3.238009 -0.249619 0
M  V30 34 H 0.244529 4.858524 0.000368 0
M  V30 35 H 2.693001 4.581603 -1.120660 0
M  V30 36 H 4.806587 3.539999 -0.582041 0
M  V30 37 H 5.213048 0.711104 0.001901 0
M  V30 38 H 8.071174 0.587746 2.418592 0
M  V30 39 H 7.188923 0.682467 -0.564312 0
M  V30 40 H 8.825949 -0.023605 0.047597 0
M  V30 41 H 7.640308 -1.744516 1.406898 0
M  V30 42 H 5.956456 -1.112501 0.817543 0
M  V30 43 H 2.728337 0.449910 1.586457 0
M  V30 44 H -0.184592 3.071282 2.345609 0
M  V30 45 H -3.999843 0.543434 3.002882 0
M  V30 46 H -4.808021 -1.566750 2.207387 0
M  V30 47 H -5.345947 -3.428276 1.681521 0
M  V30 48 H -4.615811 -4.963769 1.246545 0
M  V30 49 H -5.924081 -2.880639 -0.602448 0
M  V30 50 H -6.673996 -4.446869 -0.009680 0
M  V30 51 H -5.202041 -6.665820 -0.646432 0
M  V30 52 H -5.464406 -6.438107 -2.432380 0
M  V30 53 H -6.794960 -6.059795 -1.341562 0
M  V30 54 H -3.433195 -5.578645 -2.006890 0
M  V30 55 H -3.598368 -3.867467 -2.441090 0
M  V30 56 H -2.605410 -5.106926 0.071763 0
M  V30 57 H -1.980820 -3.703584 -0.788940 0
M  V30 58 H -1.225461 -1.989150 -0.065989 0
M  V30 END ATOM
M  V30 BEGIN BOND
M  V30 1 1 1 2
M  V30 2 2 2 3
M  V30 3 1 3 4
M  V30 4 2 4 5
M  V30 5 1 5 6
M  V30 6 1 6 7
M  V30 7 2 7 8
M  V30 8 1 7 9
M  V30 9 1 9 10
M  V30 10 1 10 11
M  V30 11 1 5 12
M  V30 12 2 12 13
M  V30 13 1 13 14
M  V30 14 1 14 15
M  V30 15 2 15 16
M  V30 16 1 16 17
M  V30 17 2 17 18
M  V30 18 1 18 19
M  V30 19 2 19 20
M  V30 20 1 20 21
M  V30 21 1 21 22
M  V30 22 1 22 23
M  V30 23 1 23 24
M  V30 24 1 24 25
M  V30 25 1 24 26
M  V30 26 1 26 27
M  V30 27 1 20 28
M  V30 28 2 28 29
M  V30 29 1 29 30
M  V30 30 2 30 31
M  V30 31 1 13 2
M  V30 32 1 30 14
M  V30 33 1 11 9
M  V30 34 1 29 17
M  V30 35 1 27 21
M  V30 36 1 1 32
M  V30 37 1 1 33
M  V30 38 1 1 34
M  V30 39 1 3 35
M  V30 40 1 4 36
M  V30 41 1 6 37
M  V30 42 1 9 38
M  V30 43 1 10 39
M  V30 44 1 10 40
M  V30 45 1 11 41
M  V30 46 1 11 42
M  V30 47 1 12 43
M  V30 48 1 15 44
M  V30 49 1 18 45
M  V30 50 1 19 46
M  V30 51 1 22 47
M  V30 52 1 22 48
M  V30 53 1 23 49
M  V30 54 1 23 50
M  V30 55 1 25 51
M  V30 56 1 25 52
M  V30 57 1 25 53
M  V30 58 1 26 54
M  V30 59 1 26 55
M  V30 60 1 27 56
M  V30 61 1 27 57
M  V30 62 1 28 58
M  V30 END BOND
M  V30 END CTAB
M  END
>  <Dataset>  (662) 
ChEMBL_Kinases

>  <Ligand_Instance>  (662) 
nan

>  <PDB_ID>  (662) 
nan

>  <Standardized_SMILES>  (662) 
Cc1ccc(NC(=O)C2CC2)cc1-n1cnc2ccc(N3CCN(C)CC3)cc2c1=O

>  <Name>  (662) 
nan

>  <Pocket>  (662) 
nan

>  <ATP_Site>  (662) 
nan

>  <Peripheral>  (662) 
nan

>  <Num_H_Atoms_ProtBoundConf>  (662) 
nan

>  <Num_Resolved_Atoms>  (662) 
nan

>  <Num_Not_Resolved_Atoms>  (662) 
nan

$$$$
CHEMBL2031234
     RDKit          3D

  0  0  0  0  0  0  0  0  0  0999 V3000
M  V30 BEGIN CTAB
M  V30 COUNTS 60 64 0 0 0
M  V30 BEGIN ATOM
M  V30 1 C 0.016509 -0.131685 4.668063 0
M  V30 2 C 0.465293 1.010079 3.838712 0
M  V30 3 C 1.498717 1.790211 4.318577 0
M  V30 4 C 1.904382 2.846435 3.532217 0
M  V30 5 C 1.331877 3.135320 2.330544 0
M  V30 6 N 1.655298 4.198136 1.403941 0
M  V30 7 C 2.613476 3.692173 0.502328 0
M  V30 8 O 2.909926 2.484123 0.755835 0
M  V30 9 C 3.237973 4.392728 -0.610010 0
M  V30 10 C 2.934145 5.709516 -0.917788 0
M  V30 11 C 3.498318 6.408015 -1.968958 0
M  V30 12 C 4.399153 5.659220 -2.685400 0
M  V30 13 N 4.747290 4.363958 -2.441771 0
M  V30 14 C 4.163805 3.707884 -1.388749 0
M  V30 15 C 0.279788 2.366623 1.808573 0
M  V30 16 C -0.116491 1.297158 2.625728 0
M  V30 17 N -1.180933 0.467631 2.171031 0
M  V30 18 C -2.472549 0.751636 2.190427 0
M  V30 19 N -3.451597 -0.063049 1.745887 0
M  V30 20 C -3.159695 -1.282935 1.227351 0
M  V30 21 C -4.064469 -2.197549 0.743306 0
M  V30 22 C -3.680630 -3.416217 0.230690 0
M  V30 23 C -2.350982 -3.778218 0.180113 0
M  V30 24 N -1.955502 -5.053129 -0.362810 0
M  V30 25 C -2.888865 -5.967431 -0.959969 0
M  V30 26 C -2.341633 -6.846104 -2.029674 0
M  V30 27 N -0.935385 -6.732095 -2.277270 0
M  V30 28 C -0.617884 -5.672001 -3.214252 0
M  V30 29 C -0.166034 -6.610018 -1.052542 0
M  V30 30 C -0.526568 -5.390917 -0.272119 0
M  V30 31 C -1.386976 -2.903780 0.652296 0
M  V30 32 C -1.815271 -1.694840 1.156244 0
M  V30 33 C -0.923649 -0.744602 1.652992 0
M  V30 34 O 0.306100 -1.103858 1.595061 0
M  V30 35 H -0.865971 -0.646588 4.239092 0
M  V30 36 H 0.854331 -0.844290 4.864548 0
M  V30 37 H -0.305007 0.260608 5.657127 0
M  V30 38 H 2.023997 1.657622 5.249666 0
M  V30 39 H 2.681403 3.556481 3.732605 0
M  V30 40 H 1.353173 5.207527 1.259947 0
M  V30 41 H 2.209163 6.205037 -0.285989 0
M  V30 42 H 3.263586 7.432315 -2.209407 0
M  V30 43 H 4.874310 6.172688 -3.537107 0
M  V30 44 H 4.472591 2.688051 -1.239645 0
M  V30 45 H -0.244154 2.499392 0.876744 0
M  V30 46 H -2.767246 1.722122 2.599232 0
M  V30 47 H -5.107052 -1.900893 0.789387 0
M  V30 48 H -4.477433 -4.025767 -0.104663 0
M  V30 49 H -3.238044 -6.624285 -0.109320 0
M  V30 50 H -3.803559 -5.455561 -1.309500 0
M  V30 51 H -2.537930 -7.932201 -1.832686 0
M  V30 52 H -2.862445 -6.588295 -2.997555 0
M  V30 53 H 0.045442 -4.903968 -2.767229 0
M  V30 54 H -0.078265 -6.130655 -4.068490 0
M  V30 55 H -1.572069 -5.228722 -3.595949 0
M  V30 56 H -0.292601 -7.515642 -0.448510 0
M  V30 57 H 0.896783 -6.534759 -1.339641 0
M  V30 58 H -0.179455 -5.474081 0.774573 0
M  V30 59 H 0.025201 -4.526248 -0.732038 0
M  V30 60 H -0.339011 -3.107269 0.651073 0
M  V30 END ATOM
M  V30 BEGIN BOND
M  V30 1 1 1 2
M  V30 2 2 2 3
M  V30 3 1 3 4
M  V30 4 2 4 5
M  V30 5 1 5 6
M  V30 6 1 6 7
M  V30 7 2 7 8
M  V30 8 1 7 9
M  V30 9 2 9 10
M  V30 10 1 10 11
M  V30 11 2 11 12
M  V30 12 1 12 13
M  V30 13 2 13 14
M  V30 14 1 5 15
M  V30 15 2 15 16
M  V30 16 1 16 17
M  V30 17 1 17 18
M  V30 18 2 18 19
M  V30 19 1 19 20
M  V30 20 2 20 21
M  V30 21 1 21 22
M  V30 22 2 22 23
M  V30 23 1 23 24
M  V30 24 1 24 25
M  V30 25 1 25 26
M  V30 26 1 26 27
M  V30 27 1 27 28
M  V30 28 1 27 29
M  V30 29 1 29 30
M  V30 30 1 23 31
M  V30 31 2 31 32
M  V30 32 1 32 33
M  V30 33 2 33 34
M  V30 34 1 16 2
M  V30 35 1 33 17
M  V30 36 1 14 9
M  V30 37 1 32 20
M  V30 38 1 30 24
M  V30 39 1 1 35
M  V30 40 1 1 36
M  V30 41 1 1 37
M  V30 42 1 3 38
M  V30 43 1 4 39
M  V30 44 1 6 40
M  V30 45 1 10 41
M  V30 46 1 11 42
M  V30 47 1 12 43
M  V30 48 1 14 44
M  V30 49 1 15 45
M  V30 50 1 18 46
M  V30 51 1 21 47
M  V30 52 1 22 48
M  V30 53 1 25 49
M  V30 54 1 25 50
M  V30 55 1 26 51
M  V30 56 1 26 52
M  V30 57 1 28 53
M  V30 58 1 28 54
M  V30 59 1 28 55
M  V30 60 1 29 56
M  V30 61 1 29 57
M  V30 62 1 30 58
M  V30 63 1 30 59
M  V30 64 1 31 60
M  V30 END BOND
M  V30 END CTAB
M  END
>  <Dataset>  (663) 
ChEMBL_Kinases

>  <Ligand_Instance>  (663) 
nan

>  <PDB_ID>  (663) 
nan

>  <Standardized_SMILES>  (663) 
Cc1ccc(NC(=O)c2cccnc2)cc1-n1cnc2ccc(N3CCN(C)CC3)cc2c1=O

>  <Name>  (663) 
nan

>  <Pocket>  (663) 
nan

>  <ATP_Site>  (663) 
nan

>  <Peripheral>  (663) 
nan

>  <Num_H_Atoms_ProtBoundConf>  (663) 
nan

>  <Num_Resolved_Atoms>  (663) 
nan

>  <Num_Not_Resolved_Atoms>  (663) 
nan

$$$$
CHEMBL2031235
     RDKit          3D

  0  0  0  0  0  0  0  0  0  0999 V3000
M  V30 BEGIN CTAB
M  V30 COUNTS 57 61 0 0 0
M  V30 BEGIN ATOM
M  V30 1 C 1.549791 -0.484335 4.866968 0
M  V30 2 C 2.199205 0.316120 3.796689 0
M  V30 3 C 3.484457 0.772952 3.968141 0
M  V30 4 C 4.115054 1.508177 3.013990 0
M  V30 5 C 3.523126 1.845807 1.821159 0
M  V30 6 N 4.242361 2.614732 0.874720 0
M  V30 7 C 3.876290 3.090307 -0.398738 0
M  V30 8 O 2.726198 2.815970 -0.819361 0
M  V30 9 C 4.752779 3.879570 -1.252528 0
M  V30 10 C 4.411266 4.353427 -2.501383 0
M  V30 11 C 5.537419 5.038171 -2.932199 0
M  V30 12 N 6.470781 4.949954 -1.961830 0
M  V30 13 O 5.976714 4.249723 -0.963283 0
M  V30 14 C 2.242771 1.376193 1.679610 0
M  V30 15 C 1.560144 0.629007 2.613789 0
M  V30 16 N 0.227974 0.176100 2.394195 0
M  V30 17 C -0.644834 0.579482 3.338988 0
M  V30 18 N -1.939644 0.181102 3.192540 0
M  V30 19 C -2.333142 -0.579095 2.155357 0
M  V30 20 C -3.645880 -0.977543 2.017966 0
M  V30 21 C -3.997144 -1.757244 0.937598 0
M  V30 22 C -3.124105 -2.181989 -0.040322 0
M  V30 23 N -3.490874 -2.989798 -1.151598 0
M  V30 24 C -4.796321 -3.510958 -1.399326 0
M  V30 25 C -4.792326 -4.983308 -1.741064 0
M  V30 26 N -3.633710 -5.359552 -2.518360 0
M  V30 27 C -2.743666 -6.212371 -1.792559 0
M  V30 28 C -2.990631 -4.224904 -3.137201 0
M  V30 29 C -2.441798 -3.301979 -2.105752 0
M  V30 30 C -1.828323 -1.752772 0.150756 0
M  V30 31 C -1.417654 -0.972896 1.209603 0
M  V30 32 C -0.097121 -0.584055 1.331811 0
M  V30 33 O 0.768703 -0.911811 0.507328 0
M  V30 34 H 0.757405 -1.145408 4.471137 0
M  V30 35 H 2.326405 -1.176701 5.274374 0
M  V30 36 H 1.209510 0.157576 5.708325 0
M  V30 37 H 4.012387 0.545866 4.881617 0
M  V30 38 H 5.139055 1.842465 3.211403 0
M  V30 39 H 5.224230 2.902881 1.124389 0
M  V30 40 H 3.479420 4.230034 -3.042685 0
M  V30 41 H 5.576833 5.531034 -3.895908 0
M  V30 42 H 1.689831 1.586114 0.780137 0
M  V30 43 H -0.371525 1.190217 4.187224 0
M  V30 44 H -4.334388 -0.653758 2.771511 0
M  V30 45 H -5.030813 -2.027254 0.895687 0
M  V30 46 H -5.440519 -3.417430 -0.502700 0
M  V30 47 H -5.342806 -2.958544 -2.212677 0
M  V30 48 H -5.689653 -5.187849 -2.359356 0
M  V30 49 H -4.876338 -5.609061 -0.826890 0
M  V30 50 H -1.731981 -5.802765 -1.632315 0
M  V30 51 H -3.174951 -6.336522 -0.757347 0
M  V30 52 H -2.645235 -7.229089 -2.254749 0
M  V30 53 H -3.629653 -3.763620 -3.888690 0
M  V30 54 H -2.098182 -4.654363 -3.680608 0
M  V30 55 H -2.111805 -2.331099 -2.527444 0
M  V30 56 H -1.558743 -3.765791 -1.626769 0
M  V30 57 H -1.064328 -2.032867 -0.562279 0
M  V30 END ATOM
M  V30 BEGIN BOND
M  V30 1 1 1 2
M  V30 2 2 2 3
M  V30 3 1 3 4
M  V30 4 2 4 5
M  V30 5 1 5 6
M  V30 6 1 6 7
M  V30 7 2 7 8
M  V30 8 1 7 9
M  V30 9 2 9 10
M  V30 10 1 10 11
M  V30 11 2 11 12
M  V30 12 1 12 13
M  V30 13 1 5 14
M  V30 14 2 14 15
M  V30 15 1 15 16
M  V30 16 1 16 17
M  V30 17 2 17 18
M  V30 18 1 18 19
M  V30 19 2 19 20
M  V30 20 1 20 21
M  V30 21 2 21 22
M  V30 22 1 22 23
M  V30 23 1 23 24
M  V30 24 1 24 25
M  V30 25 1 25 26
M  V30 26 1 26 27
M  V30 27 1 26 28
M  V30 28 1 28 29
M  V30 29 1 22 30
M  V30 30 2 30 31
M  V30 31 1 31 32
M  V30 32 2 32 33
M  V30 33 1 15 2
M  V30 34 1 32 16
M  V30 35 1 13 9
M  V30 36 1 31 19
M  V30 37 1 29 23
M  V30 38 1 1 34
M  V30 39 1 1 35
M  V30 40 1 1 36
M  V30 41 1 3 37
M  V30 42 1 4 38
M  V30 43 1 6 39
M  V30 44 1 10 40
M  V30 45 1 11 41
M  V30 46 1 14 42
M  V30 47 1 17 43
M  V30 48 1 20 44
M  V30 49 1 21 45
M  V30 50 1 24 46
M  V30 51 1 24 47
M  V30 52 1 25 48
M  V30 53 1 25 49
M  V30 54 1 27 50
M  V30 55 1 27 51
M  V30 56 1 27 52
M  V30 57 1 28 53
M  V30 58 1 28 54
M  V30 59 1 29 55
M  V30 60 1 29 56
M  V30 61 1 30 57
M  V30 END BOND
M  V30 END CTAB
M  END
>  <Dataset>  (664) 
ChEMBL_Kinases

>  <Ligand_Instance>  (664) 
nan

>  <PDB_ID>  (664) 
nan

>  <Standardized_SMILES>  (664) 
Cc1ccc(NC(=O)c2ccno2)cc1-n1cnc2ccc(N3CCN(C)CC3)cc2c1=O

>  <Name>  (664) 
nan

>  <Pocket>  (664) 
nan

>  <ATP_Site>  (664) 
nan

>  <Peripheral>  (664) 
nan

>  <Num_H_Atoms_ProtBoundConf>  (664) 
nan

>  <Num_Resolved_Atoms>  (664) 
nan

>  <Num_Not_Resolved_Atoms>  (664) 
nan

$$$$
CHEMBL2031236
     RDKit          3D

  0  0  0  0  0  0  0  0  0  0999 V3000
M  V30 BEGIN CTAB
M  V30 COUNTS 57 61 0 0 0
M  V30 BEGIN ATOM
M  V30 1 C 0.407281 0.572061 5.283379 0
M  V30 2 C 1.314793 1.099865 4.243792 0
M  V30 3 C 2.604652 1.426787 4.624502 0
M  V30 4 C 3.498874 1.928960 3.678565 0
M  V30 5 C 3.053736 2.085413 2.364783 0
M  V30 6 N 3.920593 2.596112 1.343116 0
M  V30 7 C 4.672242 1.634324 0.635133 0
M  V30 8 O 4.477268 0.454711 0.999770 0
M  V30 9 C 5.588185 2.027946 -0.425838 0
M  V30 10 C 6.335666 0.887197 -1.106388 0
M  V30 11 S 7.313237 1.859925 -2.308812 0
M  V30 12 C 6.605068 3.529378 -1.738660 0
M  V30 13 N 5.787291 3.288229 -0.805363 0
M  V30 14 C 1.777179 1.766607 1.967146 0
M  V30 15 C 0.921179 1.272277 2.932449 0
M  V30 16 N -0.405873 0.936921 2.536171 0
M  V30 17 C -1.555700 1.425541 3.030587 0
M  V30 18 N -2.740708 1.005440 2.547191 0
M  V30 19 C -2.842765 0.089832 1.560158 0
M  V30 20 C -4.056691 -0.332688 1.073346 0
M  V30 21 C -4.129586 -1.283841 0.048872 0
M  V30 22 C -2.925345 -1.756642 -0.427071 0
M  V30 23 N -3.034459 -2.719306 -1.464646 0
M  V30 24 C -4.334468 -3.141188 -1.948445 0
M  V30 25 C -4.230379 -4.270519 -2.934756 0
M  V30 26 N -3.397785 -5.346044 -2.499088 0
M  V30 27 C -3.030606 -6.150413 -3.648839 0
M  V30 28 C -2.190838 -4.892708 -1.857349 0
M  V30 29 C -2.009570 -3.428873 -2.203620 0
M  V30 30 C -1.684772 -1.362005 0.030475 0
M  V30 31 C -1.671240 -0.414674 1.049242 0
M  V30 32 C -0.428878 0.006030 1.534836 0
M  V30 33 O 0.612285 -0.501505 1.017158 0
M  V30 34 H 0.898831 -0.273160 5.848193 0
M  V30 35 H 0.166157 1.332190 6.078587 0
M  V30 36 H -0.533851 0.172321 4.903882 0
M  V30 37 H 2.991953 1.318859 5.643719 0
M  V30 38 H 4.512486 2.210977 3.867641 0
M  V30 39 H 4.053064 3.604208 1.069176 0
M  V30 40 H 6.261413 -0.110867 -0.897914 0
M  V30 41 H 6.820069 4.526507 -2.102370 0
M  V30 42 H 1.438328 1.890527 0.945994 0
M  V30 43 H -1.439568 2.158381 3.821522 0
M  V30 44 H -4.950639 0.098387 1.512756 0
M  V30 45 H -5.094868 -1.595270 -0.311979 0
M  V30 46 H -4.940391 -3.480933 -1.072360 0
M  V30 47 H -4.784026 -2.268705 -2.471455 0
M  V30 48 H -3.983998 -3.871786 -3.931054 0
M  V30 49 H -5.267121 -4.703523 -3.030945 0
M  V30 50 H -3.747821 -5.995983 -4.494198 0
M  V30 51 H -1.973048 -5.971401 -3.938513 0
M  V30 52 H -3.181724 -7.229402 -3.353629 0
M  V30 53 H -2.241996 -4.957199 -0.749356 0
M  V30 54 H -1.320383 -5.505383 -2.207147 0
M  V30 55 H -2.087004 -3.255696 -3.298453 0
M  V30 56 H -0.979470 -3.150433 -1.911153 0
M  V30 57 H -0.774246 -1.749520 -0.361653 0
M  V30 END ATOM
M  V30 BEGIN BOND
M  V30 1 1 1 2
M  V30 2 2 2 3
M  V30 3 1 3 4
M  V30 4 2 4 5
M  V30 5 1 5 6
M  V30 6 1 6 7
M  V30 7 2 7 8
M  V30 8 1 7 9
M  V30 9 2 9 10
M  V30 10 1 10 11
M  V30 11 1 11 12
M  V30 12 2 12 13
M  V30 13 1 5 14
M  V30 14 2 14 15
M  V30 15 1 15 16
M  V30 16 1 16 17
M  V30 17 2 17 18
M  V30 18 1 18 19
M  V30 19 2 19 20
M  V30 20 1 20 21
M  V30 21 2 21 22
M  V30 22 1 22 23
M  V30 23 1 23 24
M  V30 24 1 24 25
M  V30 25 1 25 26
M  V30 26 1 26 27
M  V30 27 1 26 28
M  V30 28 1 28 29
M  V30 29 1 22 30
M  V30 30 2 30 31
M  V30 31 1 31 32
M  V30 32 2 32 33
M  V30 33 1 15 2
M  V30 34 1 32 16
M  V30 35 1 13 9
M  V30 36 1 31 19
M  V30 37 1 29 23
M  V30 38 1 1 34
M  V30 39 1 1 35
M  V30 40 1 1 36
M  V30 41 1 3 37
M  V30 42 1 4 38
M  V30 43 1 6 39
M  V30 44 1 10 40
M  V30 45 1 12 41
M  V30 46 1 14 42
M  V30 47 1 17 43
M  V30 48 1 20 44
M  V30 49 1 21 45
M  V30 50 1 24 46
M  V30 51 1 24 47
M  V30 52 1 25 48
M  V30 53 1 25 49
M  V30 54 1 27 50
M  V30 55 1 27 51
M  V30 56 1 27 52
M  V30 57 1 28 53
M  V30 58 1 28 54
M  V30 59 1 29 55
M  V30 60 1 29 56
M  V30 61 1 30 57
M  V30 END BOND
M  V30 END CTAB
M  END
>  <Dataset>  (665) 
ChEMBL_Kinases

>  <Ligand_Instance>  (665) 
nan

>  <PDB_ID>  (665) 
nan

>  <Standardized_SMILES>  (665) 
Cc1ccc(NC(=O)c2cscn2)cc1-n1cnc2ccc(N3CCN(C)CC3)cc2c1=O

>  <Name>  (665) 
nan

>  <Pocket>  (665) 
nan

>  <ATP_Site>  (665) 
nan

>  <Peripheral>  (665) 
nan

>  <Num_H_Atoms_ProtBoundConf>  (665) 
nan

>  <Num_Resolved_Atoms>  (665) 
nan

>  <Num_Not_Resolved_Atoms>  (665) 
nan

$$$$
CHEMBL2031237
     RDKit          3D

  0  0  0  0  0  0  0  0  0  0999 V3000
M  V30 BEGIN CTAB
M  V30 COUNTS 57 61 0 0 0
M  V30 BEGIN ATOM
M  V30 1 C 0.336669 -0.109753 4.916665 0
M  V30 2 C 1.291802 0.601100 4.033084 0
M  V30 3 C 2.584192 0.770403 4.546628 0
M  V30 4 C 3.484730 1.430138 3.735203 0
M  V30 5 C 3.195142 1.922356 2.476013 0
M  V30 6 N 4.222871 2.596795 1.714641 0
M  V30 7 C 5.013375 1.774840 0.867041 0
M  V30 8 O 4.870957 0.530488 0.747278 0
M  V30 9 C 6.030208 2.420914 0.110052 0
M  V30 10 C 6.538533 3.664447 -0.087578 0
M  V30 11 N 7.541003 3.814992 -0.929091 0
M  V30 12 C 8.067809 2.959281 -1.554724 0
M  V30 13 S 7.084961 1.399151 -1.006988 0
M  V30 14 C 1.903172 1.740589 1.989824 0
M  V30 15 C 0.977885 1.084239 2.777000 0
M  V30 16 N -0.359252 0.869357 2.329763 0
M  V30 17 C -1.470123 1.503547 2.749971 0
M  V30 18 N -2.673873 1.192675 2.233664 0
M  V30 19 C -2.850936 0.247089 1.281687 0
M  V30 20 C -4.100676 -0.047429 0.773618 0
M  V30 21 C -4.224701 -1.032387 -0.206767 0
M  V30 22 C -3.057146 -1.650290 -0.601120 0
M  V30 23 N -3.214204 -2.648231 -1.598447 0
M  V30 24 C -4.507007 -3.003358 -2.152495 0
M  V30 25 C -4.461532 -4.191956 -3.038496 0
M  V30 26 N -3.766892 -5.324307 -2.478902 0
M  V30 27 C -3.731590 -6.445763 -3.364278 0
M  V30 28 C -2.515592 -4.942367 -1.916607 0
M  V30 29 C -2.242965 -3.493712 -2.266062 0
M  V30 30 C -1.793185 -1.382804 -0.116817 0
M  V30 31 C -1.698989 -0.389219 0.866686 0
M  V30 32 C -0.439064 -0.101073 1.370840 0
M  V30 33 O 0.565661 -0.739534 0.927626 0
M  V30 34 H -0.577651 -0.431850 4.383543 0
M  V30 35 H 0.003977 0.506016 5.779214 0
M  V30 36 H 0.766192 -1.049721 5.357015 0
M  V30 37 H 2.900690 0.420233 5.517527 0
M  V30 38 H 4.497842 1.576707 4.108125 0
M  V30 39 H 4.384168 3.631377 1.776529 0
M  V30 40 H 6.005592 4.411427 0.521948 0
M  V30 41 H 8.874743 2.918879 -2.263788 0
M  V30 42 H 1.654015 2.113538 1.015450 0
M  V30 43 H -1.311755 2.254759 3.509434 0
M  V30 44 H -4.987273 0.487760 1.137253 0
M  V30 45 H -5.199366 -1.231629 -0.573894 0
M  V30 46 H -5.183111 -3.148573 -1.261978 0
M  V30 47 H -4.942219 -2.169690 -2.750790 0
M  V30 48 H -4.117766 -3.902384 -4.037351 0
M  V30 49 H -5.530332 -4.535677 -3.159629 0
M  V30 50 H -4.136925 -6.219143 -4.373834 0
M  V30 51 H -2.708886 -6.808383 -3.490056 0
M  V30 52 H -4.314450 -7.274304 -2.914978 0
M  V30 53 H -1.658281 -5.570124 -2.226134 0
M  V30 54 H -2.602644 -5.009797 -0.812800 0
M  V30 55 H -2.220596 -3.327384 -3.360769 0
M  V30 56 H -1.222787 -3.297572 -1.874685 0
M  V30 57 H -0.912405 -1.878438 -0.443175 0
M  V30 END ATOM
M  V30 BEGIN BOND
M  V30 1 1 1 2
M  V30 2 2 2 3
M  V30 3 1 3 4
M  V30 4 2 4 5
M  V30 5 1 5 6
M  V30 6 1 6 7
M  V30 7 2 7 8
M  V30 8 1 7 9
M  V30 9 2 9 10
M  V30 10 1 10 11
M  V30 11 2 11 12
M  V30 12 1 12 13
M  V30 13 1 5 14
M  V30 14 2 14 15
M  V30 15 1 15 16
M  V30 16 1 16 17
M  V30 17 2 17 18
M  V30 18 1 18 19
M  V30 19 2 19 20
M  V30 20 1 20 21
M  V30 21 2 21 22
M  V30 22 1 22 23
M  V30 23 1 23 24
M  V30 24 1 24 25
M  V30 25 1 25 26
M  V30 26 1 26 27
M  V30 27 1 26 28
M  V30 28 1 28 29
M  V30 29 1 22 30
M  V30 30 2 30 31
M  V30 31 1 31 32
M  V30 32 2 32 33
M  V30 33 1 15 2
M  V30 34 1 32 16
M  V30 35 1 13 9
M  V30 36 1 31 19
M  V30 37 1 29 23
M  V30 38 1 1 34
M  V30 39 1 1 35
M  V30 40 1 1 36
M  V30 41 1 3 37
M  V30 42 1 4 38
M  V30 43 1 6 39
M  V30 44 1 10 40
M  V30 45 1 12 41
M  V30 46 1 14 42
M  V30 47 1 17 43
M  V30 48 1 20 44
M  V30 49 1 21 45
M  V30 50 1 24 46
M  V30 51 1 24 47
M  V30 52 1 25 48
M  V30 53 1 25 49
M  V30 54 1 27 50
M  V30 55 1 27 51
M  V30 56 1 27 52
M  V30 57 1 28 53
M  V30 58 1 28 54
M  V30 59 1 29 55
M  V30 60 1 29 56
M  V30 61 1 30 57
M  V30 END BOND
M  V30 END CTAB
M  END
>  <Dataset>  (666) 
ChEMBL_Kinases

>  <Ligand_Instance>  (666) 
nan

>  <PDB_ID>  (666) 
nan

>  <Standardized_SMILES>  (666) 
Cc1ccc(NC(=O)c2cncs2)cc1-n1cnc2ccc(N3CCN(C)CC3)cc2c1=O

>  <Name>  (666) 
nan

>  <Pocket>  (666) 
nan

>  <ATP_Site>  (666) 
nan

>  <Peripheral>  (666) 
nan

>  <Num_H_Atoms_ProtBoundConf>  (666) 
nan

>  <Num_Resolved_Atoms>  (666) 
nan

>  <Num_Not_Resolved_Atoms>  (666) 
nan

$$$$
CHEMBL2031238
     RDKit          3D

  0  0  0  0  0  0  0  0  0  0999 V3000
M  V30 BEGIN CTAB
M  V30 COUNTS 58 62 0 0 0
M  V30 BEGIN ATOM
M  V30 1 C 2.945953 -2.104333 1.384733 0
M  V30 2 C 3.146262 -0.649711 1.591764 0
M  V30 3 C 4.224206 -0.149778 2.293550 0
M  V30 4 C 4.389747 1.212585 2.473164 0
M  V30 5 C 3.440597 2.057838 1.927048 0
M  V30 6 N 3.520923 3.494036 2.056410 0
M  V30 7 C 4.251772 4.002277 0.965657 0
M  V30 8 O 4.663769 3.143358 0.144235 0
M  V30 9 C 4.560561 5.407175 0.719272 0
M  V30 10 C 5.286611 5.819531 -0.379983 0
M  V30 11 C 5.358580 7.211004 -0.246250 0
M  V30 12 O 4.730270 7.554909 0.830916 0
M  V30 13 C 4.219150 6.512898 1.469718 0
M  V30 14 C 2.342599 1.557561 1.212739 0
M  V30 15 C 2.187004 0.176779 1.038319 0
M  V30 16 N 1.049632 -0.202203 0.305953 0
M  V30 17 C 1.031549 0.308614 -0.947367 0
M  V30 18 N -0.024587 0.011483 -1.759105 0
M  V30 19 C -1.026505 -0.786715 -1.288962 0
M  V30 20 C -2.093237 -1.097615 -2.083278 0
M  V30 21 C -3.141435 -1.896143 -1.679321 0
M  V30 22 C -3.125920 -2.417866 -0.403666 0
M  V30 23 N -4.165767 -3.251491 0.090955 0
M  V30 24 C -4.332675 -3.850710 1.400599 0
M  V30 25 C -4.054948 -5.332345 1.256721 0
M  V30 26 N -4.858124 -5.900531 0.206507 0
M  V30 27 C -4.029174 -6.417504 -0.836447 0
M  V30 28 C -5.875831 -4.991957 -0.269601 0
M  V30 29 C -5.305359 -3.661125 -0.705563 0
M  V30 30 C -2.059520 -2.117749 0.416061 0
M  V30 31 C -1.022535 -1.316998 -0.009343 0
M  V30 32 C 0.067147 -0.990234 0.779753 0
M  V30 33 O 0.140596 -1.426272 1.933373 0
M  V30 34 H 2.321878 -2.314146 0.514333 0
M  V30 35 H 3.926884 -2.620828 1.165260 0
M  V30 36 H 2.584857 -2.631860 2.301523 0
M  V30 37 H 4.954736 -0.858274 2.710606 0
M  V30 38 H 5.226378 1.623260 3.018982 0
M  V30 39 H 3.162728 4.195703 2.762415 0
M  V30 40 H 5.727377 5.237575 -1.196867 0
M  V30 41 H 5.877664 7.816716 -0.976258 0
M  V30 42 H 3.657273 6.520968 2.379211 0
M  V30 43 H 1.617556 2.272806 0.799631 0
M  V30 44 H 1.779506 0.934227 -1.369853 0
M  V30 45 H -2.105708 -0.688178 -3.084807 0
M  V30 46 H -3.951716 -2.097287 -2.364416 0
M  V30 47 H -5.334006 -3.660340 1.843687 0
M  V30 48 H -3.553981 -3.462697 2.086641 0
M  V30 49 H -4.228558 -5.840004 2.215373 0
M  V30 50 H -2.993445 -5.448924 0.991205 0
M  V30 51 H -4.413140 -7.289546 -1.365645 0
M  V30 52 H -3.042604 -6.696667 -0.375136 0
M  V30 53 H -3.774013 -5.562471 -1.512668 0
M  V30 54 H -6.305714 -5.474225 -1.178775 0
M  V30 55 H -6.672540 -4.901181 0.468316 0
M  V30 56 H -5.123528 -3.643860 -1.789892 0
M  V30 57 H -6.104193 -2.900693 -0.460099 0
M  V30 58 H -1.930392 -2.456689 1.415938 0
M  V30 END ATOM
M  V30 BEGIN BOND
M  V30 1 1 1 2
M  V30 2 2 2 3
M  V30 3 1 3 4
M  V30 4 2 4 5
M  V30 5 1 5 6
M  V30 6 1 6 7
M  V30 7 2 7 8
M  V30 8 1 7 9
M  V30 9 1 9 10
M  V30 10 2 10 11
M  V30 11 1 11 12
M  V30 12 1 12 13
M  V30 13 1 5 14
M  V30 14 2 14 15
M  V30 15 1 15 16
M  V30 16 1 16 17
M  V30 17 2 17 18
M  V30 18 1 18 19
M  V30 19 2 19 20
M  V30 20 1 20 21
M  V30 21 2 21 22
M  V30 22 1 22 23
M  V30 23 1 23 24
M  V30 24 1 24 25
M  V30 25 1 25 26
M  V30 26 1 26 27
M  V30 27 1 26 28
M  V30 28 1 28 29
M  V30 29 1 22 30
M  V30 30 2 30 31
M  V30 31 1 31 32
M  V30 32 2 32 33
M  V30 33 1 15 2
M  V30 34 1 32 16
M  V30 35 2 13 9
M  V30 36 1 31 19
M  V30 37 1 29 23
M  V30 38 1 1 34
M  V30 39 1 1 35
M  V30 40 1 1 36
M  V30 41 1 3 37
M  V30 42 1 4 38
M  V30 43 1 6 39
M  V30 44 1 10 40
M  V30 45 1 11 41
M  V30 46 1 13 42
M  V30 47 1 14 43
M  V30 48 1 17 44
M  V30 49 1 20 45
M  V30 50 1 21 46
M  V30 51 1 24 47
M  V30 52 1 24 48
M  V30 53 1 25 49
M  V30 54 1 25 50
M  V30 55 1 27 51
M  V30 56 1 27 52
M  V30 57 1 27 53
M  V30 58 1 28 54
M  V30 59 1 28 55
M  V30 60 1 29 56
M  V30 61 1 29 57
M  V30 62 1 30 58
M  V30 END BOND
M  V30 END CTAB
M  END
>  <Dataset>  (667) 
ChEMBL_Kinases

>  <Ligand_Instance>  (667) 
nan

>  <PDB_ID>  (667) 
nan

>  <Standardized_SMILES>  (667) 
Cc1ccc(NC(=O)c2ccoc2)cc1-n1cnc2ccc(N3CCN(C)CC3)cc2c1=O

>  <Name>  (667) 
nan

>  <Pocket>  (667) 
nan

>  <ATP_Site>  (667) 
nan

>  <Peripheral>  (667) 
nan

>  <Num_H_Atoms_ProtBoundConf>  (667) 
nan

>  <Num_Resolved_Atoms>  (667) 
nan

>  <Num_Not_Resolved_Atoms>  (667) 
nan

$$$$
CHEMBL2031230
     RDKit          3D

  0  0  0  0  0  0  0  0  0  0999 V3000
M  V30 BEGIN CTAB
M  V30 COUNTS 61 65 0 0 0
M  V30 BEGIN ATOM
M  V30 1 C -1.775346 0.193942 5.217101 0
M  V30 2 C -0.516476 0.645341 4.626015 0
M  V30 3 C 0.125368 1.778272 5.103443 0
M  V30 4 C 1.312500 2.186971 4.531312 0
M  V30 5 C 1.887107 1.493708 3.485544 0
M  V30 6 N 3.117582 1.865010 2.847420 0
M  V30 7 C 2.844295 2.749776 1.753248 0
M  V30 8 O 1.586427 2.956017 1.657135 0
M  V30 9 C 3.875048 3.317865 0.890086 0
M  V30 10 C 5.222865 3.063333 1.034666 0
M  V30 11 C 6.063839 3.684232 0.129472 0
M  V30 12 C 5.563960 4.515876 -0.865276 0
M  V30 13 C 4.200054 4.758857 -0.992933 0
M  V30 14 F 3.843883 5.587708 -2.003000 0
M  V30 15 C 3.388063 4.140081 -0.094349 0
M  V30 16 C 1.212804 0.370276 3.041564 0
M  V30 17 C 0.013838 -0.084043 3.583639 0
M  V30 18 N -0.577721 -1.263010 3.027447 0
M  V30 19 C -0.699874 -2.344974 3.817593 0
M  V30 20 N -1.262232 -3.474673 3.297706 0
M  V30 21 C -1.686059 -3.506165 2.020938 0
M  V30 22 C -2.247628 -4.644586 1.512987 0
M  V30 23 C -2.685857 -4.689670 0.206192 0
M  V30 24 C -2.585428 -3.611023 -0.647656 0
M  V30 25 N -3.010380 -3.575512 -1.998027 0
M  V30 26 C -2.874054 -2.424556 -2.877173 0
M  V30 27 C -2.892844 -2.848883 -4.328754 0
M  V30 28 N -2.166549 -4.080538 -4.547150 0
M  V30 29 C -0.755423 -3.910259 -4.408577 0
M  V30 30 C -2.627620 -5.160967 -3.736653 0
M  V30 31 C -3.641501 -4.678556 -2.695277 0
M  V30 32 C -2.017894 -2.467313 -0.126778 0
M  V30 33 C -1.571913 -2.398262 1.178125 0
M  V30 34 C -0.999416 -1.287794 1.749965 0
M  V30 35 O -0.868501 -0.270168 1.056224 0
M  V30 36 H -2.285982 1.107569 5.632030 0
M  V30 37 H -1.525406 -0.417884 6.129495 0
M  V30 38 H -2.463413 -0.329651 4.539273 0
M  V30 39 H -0.325892 2.312815 5.916158 0
M  V30 40 H 1.825135 3.069919 4.893649 0
M  V30 41 H 4.129547 1.608719 3.040243 0
M  V30 42 H 5.544674 2.418188 1.815207 0
M  V30 43 H 7.122976 3.482682 0.244984 0
M  V30 44 H 6.318385 4.931430 -1.496689 0
M  V30 45 H 2.318818 4.359382 -0.231361 0
M  V30 46 H 1.646853 -0.187872 2.221810 0
M  V30 47 H -0.351539 -2.291700 4.837472 0
M  V30 48 H -2.344271 -5.513247 2.151518 0
M  V30 49 H -3.121523 -5.585216 -0.174775 0
M  V30 50 H -1.969195 -1.820868 -2.653415 0
M  V30 51 H -3.769960 -1.788140 -2.717680 0
M  V30 52 H -2.415721 -2.020538 -4.885065 0
M  V30 53 H -3.914781 -2.971561 -4.687733 0
M  V30 54 H -0.326987 -4.837518 -3.930616 0
M  V30 55 H -0.519031 -3.087625 -3.694908 0
M  V30 56 H -0.204014 -3.797286 -5.374640 0
M  V30 57 H -3.103531 -5.909297 -4.408953 0
M  V30 58 H -1.786132 -5.601928 -3.197702 0
M  V30 59 H -4.529146 -4.320514 -3.288776 0
M  V30 60 H -3.913314 -5.525309 -2.045602 0
M  V30 61 H -1.859286 -1.531479 -0.644711 0
M  V30 END ATOM
M  V30 BEGIN BOND
M  V30 1 1 1 2
M  V30 2 2 2 3
M  V30 3 1 3 4
M  V30 4 2 4 5
M  V30 5 1 5 6
M  V30 6 1 6 7
M  V30 7 2 7 8
M  V30 8 1 7 9
M  V30 9 2 9 10
M  V30 10 1 10 11
M  V30 11 2 11 12
M  V30 12 1 12 13
M  V30 13 1 13 14
M  V30 14 2 13 15
M  V30 15 1 5 16
M  V30 16 2 16 17
M  V30 17 1 17 18
M  V30 18 1 18 19
M  V30 19 2 19 20
M  V30 20 1 20 21
M  V30 21 2 21 22
M  V30 22 1 22 23
M  V30 23 2 23 24
M  V30 24 1 24 25
M  V30 25 1 25 26
M  V30 26 1 26 27
M  V30 27 1 27 28
M  V30 28 1 28 29
M  V30 29 1 28 30
M  V30 30 1 30 31
M  V30 31 1 24 32
M  V30 32 2 32 33
M  V30 33 1 33 34
M  V30 34 2 34 35
M  V30 35 1 17 2
M  V30 36 1 34 18
M  V30 37 1 15 9
M  V30 38 1 33 21
M  V30 39 1 31 25
M  V30 40 1 1 36
M  V30 41 1 1 37
M  V30 42 1 1 38
M  V30 43 1 3 39
M  V30 44 1 4 40
M  V30 45 1 6 41
M  V30 46 1 10 42
M  V30 47 1 11 43
M  V30 48 1 12 44
M  V30 49 1 15 45
M  V30 50 1 16 46
M  V30 51 1 19 47
M  V30 52 1 22 48
M  V30 53 1 23 49
M  V30 54 1 26 50
M  V30 55 1 26 51
M  V30 56 1 27 52
M  V30 57 1 27 53
M  V30 58 1 29 54
M  V30 59 1 29 55
M  V30 60 1 29 56
M  V30 61 1 30 57
M  V30 62 1 30 58
M  V30 63 1 31 59
M  V30 64 1 31 60
M  V30 65 1 32 61
M  V30 END BOND
M  V30 END CTAB
M  END
>  <Dataset>  (668) 
ChEMBL_Kinases

>  <Ligand_Instance>  (668) 
nan

>  <PDB_ID>  (668) 
nan

>  <Standardized_SMILES>  (668) 
Cc1ccc(NC(=O)c2cccc(F)c2)cc1-n1cnc2ccc(N3CCN(C)CC3)cc2c1=O

>  <Name>  (668) 
nan

>  <Pocket>  (668) 
nan

>  <ATP_Site>  (668) 
nan

>  <Peripheral>  (668) 
nan

>  <Num_H_Atoms_ProtBoundConf>  (668) 
nan

>  <Num_Resolved_Atoms>  (668) 
nan

>  <Num_Not_Resolved_Atoms>  (668) 
nan

$$$$
CHEMBL2036456
     RDKit          3D

  0  0  0  0  0  0  0  0  0  0999 V3000
M  V30 BEGIN CTAB
M  V30 COUNTS 59 64 0 0 0
M  V30 BEGIN ATOM
M  V30 1 Cl 4.055348 -4.886695 5.032103 0
M  V30 2 C 3.645139 -3.563578 3.952585 0
M  V30 3 C 2.371198 -3.037154 3.794466 0
M  V30 4 C 2.142680 -1.998070 2.923815 0
M  V30 5 C 3.166054 -1.459343 2.193416 0
M  V30 6 C 2.948953 -0.360580 1.266614 0
M  V30 7 C 3.933693 0.233706 0.494786 0
M  V30 8 C 3.266747 1.221426 -0.222607 0
M  V30 9 C 1.924414 1.172791 0.150256 0
M  V30 10 C 0.944209 2.089475 -0.426974 0
M  V30 11 N 1.245437 3.282350 -0.833366 0
M  V30 12 O 0.098186 3.900019 -1.328890 0
M  V30 13 C -1.028655 3.231982 -0.749268 0
M  V30 14 C -1.275077 3.708546 0.629477 0
M  V30 15 C -1.212419 5.093615 0.772763 0
M  V30 16 C -1.417718 5.706046 1.990136 0
M  V30 17 C -1.698468 4.959744 3.136386 0
M  V30 18 C -1.747582 3.614292 2.939086 0
M  V30 19 N -1.546888 3.021502 1.750875 0
M  V30 20 N -0.466171 1.894935 -0.658038 0
M  V30 21 C -0.938897 0.546948 -0.738147 0
M  V30 22 C -1.373539 -0.195572 0.326997 0
M  V30 23 C -1.813702 -1.479224 0.182962 0
M  V30 24 C -1.852859 -2.117889 -1.036449 0
M  V30 25 N -2.303126 -3.452300 -1.236270 0
M  V30 26 C -2.344483 -4.164426 -2.500227 0
M  V30 27 C -1.350520 -5.311649 -2.362250 0
M  V30 28 N -1.714304 -6.146422 -1.234256 0
M  V30 29 C -1.757279 -5.412042 0.001361 0
M  V30 30 C -2.792739 -4.297024 -0.164191 0
M  V30 31 C -1.417575 -1.375463 -2.105654 0
M  V30 32 C -0.964040 -0.064559 -1.984076 0
M  V30 33 O 1.792064 0.215233 1.036885 0
M  V30 34 C 4.420897 -2.002503 2.371148 0
M  V30 35 C 4.697730 -3.051163 3.238522 0
M  V30 36 H 1.637639 -3.528044 4.411493 0
M  V30 37 H 1.138204 -1.624495 2.836048 0
M  V30 38 H 4.991908 -0.024109 0.465035 0
M  V30 39 H 3.741520 1.900298 -0.944635 0
M  V30 40 H -1.906330 3.274070 -1.412889 0
M  V30 41 H -1.002747 5.778133 -0.041736 0
M  V30 42 H -1.367676 6.800062 2.100533 0
M  V30 43 H -1.858959 5.435549 4.087315 0
M  V30 44 H -1.958830 2.946222 3.766212 0
M  V30 45 H -1.358488 0.269498 1.303169 0
M  V30 46 H -2.132276 -1.984608 1.057668 0
M  V30 47 H -3.373476 -4.593180 -2.627054 0
M  V30 48 H -2.094453 -3.582132 -3.377496 0
M  V30 49 H -1.466390 -5.933436 -3.258539 0
M  V30 50 H -0.347542 -4.911880 -2.209151 0
M  V30 51 H -0.974124 -6.895069 -1.186521 0
M  V30 52 H -2.106749 -6.106385 0.789693 0
M  V30 53 H -0.764292 -4.981766 0.254467 0
M  V30 54 H -3.732846 -4.818999 -0.511227 0
M  V30 55 H -2.984168 -3.780322 0.781555 0
M  V30 56 H -1.382018 -1.722086 -3.127867 0
M  V30 57 H -0.616776 0.525495 -2.842305 0
M  V30 58 H 5.248415 -1.575713 1.788554 0
M  V30 59 H 5.702616 -3.398996 3.303249 0
M  V30 END ATOM
M  V30 BEGIN BOND
M  V30 1 1 1 2
M  V30 2 2 2 3
M  V30 3 1 3 4
M  V30 4 2 4 5
M  V30 5 1 5 6
M  V30 6 2 6 7
M  V30 7 1 7 8
M  V30 8 2 8 9
M  V30 9 1 9 10
M  V30 10 2 10 11
M  V30 11 1 11 12
M  V30 12 1 12 13
M  V30 13 1 13 14
M  V30 14 2 14 15
M  V30 15 1 15 16
M  V30 16 2 16 17
M  V30 17 1 17 18
M  V30 18 2 18 19
M  V30 19 1 13 20
M  V30 20 1 20 21
M  V30 21 2 21 22
M  V30 22 1 22 23
M  V30 23 2 23 24
M  V30 24 1 24 25
M  V30 25 1 25 26
M  V30 26 1 26 27
M  V30 27 1 27 28
M  V30 28 1 28 29
M  V30 29 1 29 30
M  V30 30 1 24 31
M  V30 31 2 31 32
M  V30 32 1 9 33
M  V30 33 1 5 34
M  V30 34 2 34 35
M  V30 35 1 35 2
M  V30 36 1 33 6
M  V30 37 1 20 10
M  V30 38 1 32 21
M  V30 39 1 19 14
M  V30 40 1 30 25
M  V30 41 1 3 36
M  V30 42 1 4 37
M  V30 43 1 7 38
M  V30 44 1 8 39
M  V30 45 1 13 40
M  V30 46 1 15 41
M  V30 47 1 16 42
M  V30 48 1 17 43
M  V30 49 1 18 44
M  V30 50 1 22 45
M  V30 51 1 23 46
M  V30 52 1 26 47
M  V30 53 1 26 48
M  V30 54 1 27 49
M  V30 55 1 27 50
M  V30 56 1 28 51
M  V30 57 1 29 52
M  V30 58 1 29 53
M  V30 59 1 30 54
M  V30 60 1 30 55
M  V30 61 1 31 56
M  V30 62 1 32 57
M  V30 63 1 34 58
M  V30 64 1 35 59
M  V30 END BOND
M  V30 END CTAB
M  END
>  <Dataset>  (669) 
ChEMBL_Kinases

>  <Ligand_Instance>  (669) 
nan

>  <PDB_ID>  (669) 
nan

>  <Standardized_SMILES>  (669) 
Clc1ccc(-c2ccc(C3=NOC(c4ccccn4)N3c3ccc(N4CCNCC4)cc3)o2)cc1

>  <Name>  (669) 
nan

>  <Pocket>  (669) 
nan

>  <ATP_Site>  (669) 
nan

>  <Peripheral>  (669) 
nan

>  <Num_H_Atoms_ProtBoundConf>  (669) 
nan

>  <Num_Resolved_Atoms>  (669) 
nan

>  <Num_Not_Resolved_Atoms>  (669) 
nan

$$$$
CHEMBL2036452
     RDKit          3D

  0  0  0  0  0  0  0  0  0  0999 V3000
M  V30 BEGIN CTAB
M  V30 COUNTS 60 65 0 0 0
M  V30 BEGIN ATOM
M  V30 1 Cl 4.614304 -5.810006 3.781357 0
M  V30 2 C 4.170997 -4.355377 2.938213 0
M  V30 3 C 5.059188 -3.764922 2.043188 0
M  V30 4 C 4.702393 -2.611803 1.377590 0
M  V30 5 C 3.464210 -2.017072 1.579851 0
M  V30 6 C 3.041865 -0.789014 0.892945 0
M  V30 7 C 3.876141 -0.136243 -0.020136 0
M  V30 8 C 3.093577 0.944907 -0.412296 0
M  V30 9 C 1.885024 0.875099 0.264650 0
M  V30 10 C 0.835329 1.898966 0.052978 0
M  V30 11 N 1.135204 3.141141 -0.263864 0
M  V30 12 O -0.087701 3.813490 -0.382645 0
M  V30 13 C -0.973839 3.120286 0.528840 0
M  V30 14 C -0.525152 3.342593 1.915346 0
M  V30 15 C -0.219933 4.701080 2.068181 0
M  V30 16 C 0.235681 5.228750 3.282028 0
M  V30 17 C 0.394040 4.380889 4.381417 0
M  V30 18 C 0.088652 3.050346 4.209607 0
M  V30 19 C -0.354956 2.544860 3.022405 0
M  V30 20 N -0.601575 1.747803 0.143415 0
M  V30 21 C -1.250253 0.504587 -0.132956 0
M  V30 22 C -1.672757 0.417601 -1.468914 0
M  V30 23 C -2.322497 -0.688327 -1.973749 0
M  V30 24 C -2.590309 -1.776587 -1.173562 0
M  V30 25 N -3.257173 -2.969106 -1.586581 0
M  V30 26 C -3.492147 -4.160098 -0.798454 0
M  V30 27 C -3.079070 -5.361367 -1.611546 0
M  V30 28 N -2.246049 -5.049752 -2.746038 0
M  V30 29 C -2.847270 -4.081003 -3.631958 0
M  V30 30 C -3.826010 -3.183892 -2.903068 0
M  V30 31 C -2.174532 -1.684836 0.130885 0
M  V30 32 C -1.524953 -0.584912 0.644353 0
M  V30 33 O 1.890641 -0.170451 1.032663 0
M  V30 34 C 2.615507 -2.634982 2.474683 0
M  V30 35 C 2.924657 -3.797824 3.172108 0
M  V30 36 H 6.037541 -4.220828 1.873036 0
M  V30 37 H 5.388538 -2.149951 0.681949 0
M  V30 38 H 4.865125 -0.439848 -0.308117 0
M  V30 39 H 3.453759 1.674918 -1.136969 0
M  V30 40 H -2.019423 3.347261 0.327056 0
M  V30 41 H -0.278381 5.507301 1.338272 0
M  V30 42 H 0.487853 6.244050 3.478713 0
M  V30 43 H 0.741646 4.729111 5.343173 0
M  V30 44 H 0.183982 2.335666 5.005615 0
M  V30 45 H -0.622869 1.529260 2.773986 0
M  V30 46 H -1.516154 1.221201 -2.203263 0
M  V30 47 H -2.634560 -0.727218 -3.006772 0
M  V30 48 H -4.617555 -4.243419 -0.719792 0
M  V30 49 H -3.069068 -4.152177 0.202513 0
M  V30 50 H -3.923638 -5.960497 -1.998868 0
M  V30 51 H -2.452739 -5.997823 -0.939453 0
M  V30 52 H -1.261854 -4.838795 -2.490266 0
M  V30 53 H -2.046436 -3.476762 -4.095253 0
M  V30 54 H -3.378133 -4.607670 -4.446009 0
M  V30 55 H -3.890856 -2.227020 -3.437412 0
M  V30 56 H -4.846517 -3.664498 -2.860840 0
M  V30 57 H -2.298372 -2.436172 0.898795 0
M  V30 58 H -1.179955 -0.467486 1.652164 0
M  V30 59 H 1.660095 -2.180661 2.634140 0
M  V30 60 H 2.193411 -4.227729 3.867532 0
M  V30 END ATOM
M  V30 BEGIN BOND
M  V30 1 1 1 2
M  V30 2 2 2 3
M  V30 3 1 3 4
M  V30 4 2 4 5
M  V30 5 1 5 6
M  V30 6 2 6 7
M  V30 7 1 7 8
M  V30 8 2 8 9
M  V30 9 1 9 10
M  V30 10 2 10 11
M  V30 11 1 11 12
M  V30 12 1 12 13
M  V30 13 1 13 14
M  V30 14 2 14 15
M  V30 15 1 15 16
M  V30 16 2 16 17
M  V30 17 1 17 18
M  V30 18 2 18 19
M  V30 19 1 13 20
M  V30 20 1 20 21
M  V30 21 2 21 22
M  V30 22 1 22 23
M  V30 23 2 23 24
M  V30 24 1 24 25
M  V30 25 1 25 26
M  V30 26 1 26 27
M  V30 27 1 27 28
M  V30 28 1 28 29
M  V30 29 1 29 30
M  V30 30 1 24 31
M  V30 31 2 31 32
M  V30 32 1 9 33
M  V30 33 1 5 34
M  V30 34 2 34 35
M  V30 35 1 35 2
M  V30 36 1 33 6
M  V30 37 1 20 10
M  V30 38 1 32 21
M  V30 39 1 19 14
M  V30 40 1 30 25
M  V30 41 1 3 36
M  V30 42 1 4 37
M  V30 43 1 7 38
M  V30 44 1 8 39
M  V30 45 1 13 40
M  V30 46 1 15 41
M  V30 47 1 16 42
M  V30 48 1 17 43
M  V30 49 1 18 44
M  V30 50 1 19 45
M  V30 51 1 22 46
M  V30 52 1 23 47
M  V30 53 1 26 48
M  V30 54 1 26 49
M  V30 55 1 27 50
M  V30 56 1 27 51
M  V30 57 1 28 52
M  V30 58 1 29 53
M  V30 59 1 29 54
M  V30 60 1 30 55
M  V30 61 1 30 56
M  V30 62 1 31 57
M  V30 63 1 32 58
M  V30 64 1 34 59
M  V30 65 1 35 60
M  V30 END BOND
M  V30 END CTAB
M  END
>  <Dataset>  (670) 
ChEMBL_Kinases

>  <Ligand_Instance>  (670) 
nan

>  <PDB_ID>  (670) 
nan

>  <Standardized_SMILES>  (670) 
Clc1ccc(-c2ccc(C3=NOC(c4ccccc4)N3c3ccc(N4CCNCC4)cc3)o2)cc1

>  <Name>  (670) 
nan

>  <Pocket>  (670) 
nan

>  <ATP_Site>  (670) 
nan

>  <Peripheral>  (670) 
nan

>  <Num_H_Atoms_ProtBoundConf>  (670) 
nan

>  <Num_Resolved_Atoms>  (670) 
nan

>  <Num_Not_Resolved_Atoms>  (670) 
nan

$$$$
CHEMBL203624
     RDKit          3D

  0  0  0  0  0  0  0  0  0  0999 V3000
M  V30 BEGIN CTAB
M  V30 COUNTS 51 54 0 0 0
M  V30 BEGIN ATOM
M  V30 1 N -0.367242 -1.343645 0.287752 0
M  V30 2 C -1.114579 -1.387571 -0.934335 0 CFG=2
M  V30 3 C -0.878970 -0.267689 -1.887084 0
M  V30 4 N 0.428607 -0.085888 -2.388387 0
M  V30 5 C 1.687827 0.369600 -1.946395 0
M  V30 6 C 2.819262 0.350043 -2.773621 0
M  V30 7 N 4.015344 0.793128 -2.374811 0
M  V30 8 C 4.195182 1.286348 -1.143154 0
M  V30 9 C 3.152370 1.358970 -0.231063 0
M  V30 10 C 3.363590 1.894048 1.108173 0
M  V30 11 C 2.490990 2.037538 2.075800 0
M  V30 12 C 2.765329 2.580275 3.397852 0
M  V30 13 C 3.989920 3.024610 3.835822 0
M  V30 14 C 4.217273 3.533467 5.095731 0
M  V30 15 N 3.207700 3.617132 5.978741 0
M  V30 16 C 1.964917 3.190075 5.599717 0
M  V30 17 C 1.755991 2.682151 4.330681 0
M  V30 18 C 1.963568 0.892141 -0.700810 0
M  V30 19 C -2.597379 -1.278317 -0.537263 0
M  V30 20 C -2.991398 -2.388541 0.343326 0
M  V30 21 C -3.182416 -2.297926 1.714341 0
M  V30 22 N -3.536271 -3.470765 2.247961 0
M  V30 23 C -3.580369 -4.348606 1.218104 0
M  V30 24 C -3.879419 -5.707695 1.117617 0
M  V30 25 C -3.860510 -6.416005 -0.063208 0
M  V30 26 C -3.526471 -5.748911 -1.225675 0
M  V30 27 C -3.225763 -4.386738 -1.132001 0
M  V30 28 C -3.246011 -3.692568 0.037489 0
M  V30 29 H -0.514395 -0.500377 0.847555 0
M  V30 30 H 0.641141 -1.507519 0.135480 0
M  V30 31 H -1.028940 -2.390989 -1.420312 0
M  V30 32 H -1.133618 0.684094 -1.304697 0
M  V30 33 H -1.632980 -0.290293 -2.695981 0
M  V30 34 H 0.464374 -0.393814 -3.412812 0
M  V30 35 H 2.750003 -0.035313 -3.785113 0
M  V30 36 H 5.191752 1.622228 -0.901298 0
M  V30 37 H 4.375547 2.222265 1.350845 0
M  V30 38 H 1.485977 1.717224 1.846861 0
M  V30 39 H 4.834675 2.979213 3.164989 0
M  V30 40 H 5.188021 3.872267 5.407028 0
M  V30 41 H 1.186011 3.277247 6.345223 0
M  V30 42 H 0.741074 2.361095 4.098912 0
M  V30 43 H 1.149332 0.957999 0.008374 0
M  V30 44 H -3.238739 -1.194736 -1.449262 0
M  V30 45 H -2.688864 -0.310936 -0.003172 0
M  V30 46 H -3.069542 -1.396820 2.334817 0
M  V30 47 H -3.745316 -3.708788 3.241471 0
M  V30 48 H -4.131021 -6.175259 2.046846 0
M  V30 49 H -4.114465 -7.468758 0.004084 0
M  V30 50 H -3.526926 -6.346200 -2.119119 0
M  V30 51 H -2.966468 -3.889197 -2.067360 0
M  V30 END ATOM
M  V30 BEGIN BOND
M  V30 1 1 1 2
M  V30 2 1 2 3
M  V30 3 1 3 4
M  V30 4 1 4 5
M  V30 5 2 5 6
M  V30 6 1 6 7
M  V30 7 2 7 8
M  V30 8 1 8 9
M  V30 9 1 9 10
M  V30 10 2 10 11
M  V30 11 1 11 12
M  V30 12 2 12 13
M  V30 13 1 13 14
M  V30 14 2 14 15
M  V30 15 1 15 16
M  V30 16 2 16 17
M  V30 17 2 9 18
M  V30 18 1 2 19
M  V30 19 1 19 20
M  V30 20 2 20 21
M  V30 21 1 21 22
M  V30 22 1 22 23
M  V30 23 2 23 24
M  V30 24 1 24 25
M  V30 25 2 25 26
M  V30 26 1 26 27
M  V30 27 2 27 28
M  V30 28 1 18 5
M  V30 29 1 28 20
M  V30 30 1 17 12
M  V30 31 1 28 23
M  V30 32 1 1 29
M  V30 33 1 1 30
M  V30 34 1 2 31 CFG=3
M  V30 35 1 3 32
M  V30 36 1 3 33
M  V30 37 1 4 34
M  V30 38 1 6 35
M  V30 39 1 8 36
M  V30 40 1 10 37
M  V30 41 1 11 38
M  V30 42 1 13 39
M  V30 43 1 14 40
M  V30 44 1 16 41
M  V30 45 1 17 42
M  V30 46 1 18 43
M  V30 47 1 19 44
M  V30 48 1 19 45
M  V30 49 1 21 46
M  V30 50 1 22 47
M  V30 51 1 24 48
M  V30 52 1 25 49
M  V30 53 1 26 50
M  V30 54 1 27 51
M  V30 END BOND
M  V30 END CTAB
M  END
>  <Dataset>  (671) 
ChEMBL_Kinases

>  <Ligand_Instance>  (671) 
nan

>  <PDB_ID>  (671) 
nan

>  <Standardized_SMILES>  (671) 
N[C@H](CNc1cncc(/C=C/c2ccncc2)c1)Cc1c[nH]c2ccccc12

>  <Name>  (671) 
nan

>  <Pocket>  (671) 
nan

>  <ATP_Site>  (671) 
nan

>  <Peripheral>  (671) 
nan

>  <Num_H_Atoms_ProtBoundConf>  (671) 
nan

>  <Num_Resolved_Atoms>  (671) 
nan

>  <Num_Not_Resolved_Atoms>  (671) 
nan

$$$$
CHEMBL203619
     RDKit          3D

  0  0  0  0  0  0  0  0  0  0999 V3000
M  V30 BEGIN CTAB
M  V30 COUNTS 48 52 0 0 0
M  V30 BEGIN ATOM
M  V30 1 O 1.447169 -3.333505 3.885761 0
M  V30 2 C 2.004591 -4.433669 3.225869 0
M  V30 3 C 1.912166 -4.101828 1.747764 0
M  V30 4 C 2.683183 -2.843272 1.476030 0
M  V30 5 N 2.652314 -2.445811 0.086273 0
M  V30 6 C 3.494131 -2.775111 -0.915264 0
M  V30 7 N 3.080542 -2.179147 -2.026020 0
M  V30 8 C 1.975432 -1.462635 -1.760832 0
M  V30 9 C 1.138096 -0.656207 -2.532585 0
M  V30 10 C 0.034134 -0.021124 -1.969630 0
M  V30 11 C -0.245209 -0.179683 -0.648625 0
M  V30 12 C -1.373943 0.438076 0.035505 0
M  V30 13 C -1.257389 1.351124 1.063497 0
M  V30 14 C -0.083786 1.920776 1.709872 0
M  V30 15 C -0.015548 3.310011 1.564203 0
M  V30 16 C 1.028035 4.070006 2.104763 0
M  V30 17 C 1.985802 3.341376 2.793664 0
M  V30 18 C 1.927159 1.970570 2.942727 0
M  V30 19 N 0.894724 1.304893 2.396224 0
M  V30 20 N -2.546038 1.631662 1.370653 0
M  V30 21 N -3.379689 0.952374 0.600893 0
M  V30 22 C -2.695391 0.178876 -0.264941 0
M  V30 23 C -3.589837 -0.604181 -1.152770 0
M  V30 24 C -4.926826 -0.438807 -0.472851 0
M  V30 25 C -4.786903 0.785772 0.404586 0
M  V30 26 C 0.593880 -0.985475 0.116078 0
M  V30 27 C 1.688638 -1.621197 -0.419959 0
M  V30 28 H 0.500531 -3.237800 3.570237 0
M  V30 29 H 1.328562 -5.294761 3.462880 0
M  V30 30 H 3.036124 -4.606688 3.554728 0
M  V30 31 H 2.265682 -4.973478 1.203362 0
M  V30 32 H 0.825392 -3.876151 1.577935 0
M  V30 33 H 3.745398 -3.016332 1.749943 0
M  V30 34 H 2.319331 -2.048316 2.160569 0
M  V30 35 H 4.338843 -3.438523 -0.691620 0
M  V30 36 H 1.365023 -0.531590 -3.589563 0
M  V30 37 H -0.607213 0.600912 -2.577138 0
M  V30 38 H -0.760823 3.911387 1.023620 0
M  V30 39 H 1.064417 5.140870 1.982381 0
M  V30 40 H 2.805758 3.903706 3.223026 0
M  V30 41 H 2.670385 1.399237 3.477966 0
M  V30 42 H -3.293028 -1.683318 -1.193358 0
M  V30 43 H -3.570687 -0.168568 -2.173144 0
M  V30 44 H -5.098191 -1.305405 0.173580 0
M  V30 45 H -5.698617 -0.298934 -1.248848 0
M  V30 46 H -5.239208 1.681116 -0.086656 0
M  V30 47 H -5.320752 0.651046 1.382227 0
M  V30 48 H 0.427661 -1.149487 1.151716 0
M  V30 END ATOM
M  V30 BEGIN BOND
M  V30 1 1 1 2
M  V30 2 1 2 3
M  V30 3 1 3 4
M  V30 4 1 4 5
M  V30 5 1 5 6
M  V30 6 2 6 7
M  V30 7 1 7 8
M  V30 8 2 8 9
M  V30 9 1 9 10
M  V30 10 2 10 11
M  V30 11 1 11 12
M  V30 12 1 12 13
M  V30 13 1 13 14
M  V30 14 2 14 15
M  V30 15 1 15 16
M  V30 16 2 16 17
M  V30 17 1 17 18
M  V30 18 2 18 19
M  V30 19 2 13 20
M  V30 20 1 20 21
M  V30 21 1 21 22
M  V30 22 1 22 23
M  V30 23 1 23 24
M  V30 24 1 24 25
M  V30 25 1 11 26
M  V30 26 2 26 27
M  V30 27 1 27 5
M  V30 28 1 27 8
M  V30 29 2 22 12
M  V30 30 1 19 14
M  V30 31 1 25 21
M  V30 32 1 1 28
M  V30 33 1 2 29
M  V30 34 1 2 30
M  V30 35 1 3 31
M  V30 36 1 3 32
M  V30 37 1 4 33
M  V30 38 1 4 34
M  V30 39 1 6 35
M  V30 40 1 9 36
M  V30 41 1 10 37
M  V30 42 1 15 38
M  V30 43 1 16 39
M  V30 44 1 17 40
M  V30 45 1 18 41
M  V30 46 1 23 42
M  V30 47 1 23 43
M  V30 48 1 24 44
M  V30 49 1 24 45
M  V30 50 1 25 46
M  V30 51 1 25 47
M  V30 52 1 26 48
M  V30 END BOND
M  V30 END CTAB
M  END
>  <Dataset>  (672) 
ChEMBL_Kinases

>  <Ligand_Instance>  (672) 
nan

>  <PDB_ID>  (672) 
nan

>  <Standardized_SMILES>  (672) 
OCCCn1cnc2ccc(-c3c(-c4ccccn4)nn4c3CCC4)cc21

>  <Name>  (672) 
nan

>  <Pocket>  (672) 
nan

>  <ATP_Site>  (672) 
nan

>  <Peripheral>  (672) 
nan

>  <Num_H_Atoms_ProtBoundConf>  (672) 
nan

>  <Num_Resolved_Atoms>  (672) 
nan

>  <Num_Not_Resolved_Atoms>  (672) 
nan

$$$$
CHEMBL203607
     RDKit          3D

  0  0  0  0  0  0  0  0  0  0999 V3000
M  V30 BEGIN CTAB
M  V30 COUNTS 83 83 0 0 0
M  V30 BEGIN ATOM
M  V30 1 C 5.246029 -0.900912 3.090649 0
M  V30 2 C 3.806475 -0.606532 3.091966 0
M  V30 3 C 3.379048 -0.383816 4.545811 0
M  V30 4 C 3.210118 0.361613 2.165485 0
M  V30 5 C 3.585086 1.774038 2.134243 0
M  V30 6 C 2.671899 2.471364 1.063788 0
M  V30 7 C 1.293085 2.310911 1.485843 0
M  V30 8 C 0.366771 1.697611 0.791088 0
M  V30 9 C -1.101601 1.461092 1.110659 0
M  V30 10 C -1.602239 1.554769 -0.345507 0
M  V30 11 C -1.210873 2.957479 -0.782362 0
M  V30 12 O -2.022883 3.941145 -0.198618 0
M  V30 13 C -3.036423 1.268246 -0.524837 0
M  V30 14 O -3.442088 0.090269 0.018335 0
M  V30 15 C -3.182474 -1.189830 -0.107215 0
M  V30 16 O -3.420111 0.012586 0.004411 0
M  V30 17 C -2.533059 -2.394883 -0.627767 0
M  V30 18 C -3.424351 -3.227655 -1.451760 0
M  V30 19 C -4.597303 -3.732991 -0.673106 0
M  V30 20 C -5.565762 -2.794403 -0.087833 0
M  V30 21 C -6.227212 -1.971763 -1.190821 0
M  V30 22 C -6.685419 -3.643695 0.552254 0
M  V30 23 C -2.783039 -4.451232 -2.057888 0
M  V30 24 C -1.644396 -4.259988 -2.964508 0
M  V30 25 C -1.906117 -3.409360 -4.184990 0
M  V30 26 C -0.338256 -3.981357 -2.298014 0
M  V30 27 O -0.750556 0.587830 -0.951286 0
M  V30 28 C 0.535595 1.043791 -0.540417 0
M  V30 29 O 1.611192 0.923158 -1.170738 0
M  V30 30 C 4.955938 2.252138 1.960752 0
M  V30 31 C 5.785617 2.011613 0.797807 0
M  V30 32 C 6.145844 0.658539 0.344009 0
M  V30 33 C 5.422493 2.841693 -0.432655 0
M  V30 34 H 5.910583 -0.083264 3.399743 0
M  V30 35 H 5.600483 -1.456727 2.190333 0
M  V30 36 H 5.408728 -1.679205 3.919127 0
M  V30 37 H 3.274199 -1.606400 2.849829 0
M  V30 38 H 4.020790 -1.091374 5.153811 0
M  V30 39 H 2.354814 -0.714090 4.729945 0
M  V30 40 H 3.632985 0.624192 4.908677 0
M  V30 41 H 2.083442 0.354552 2.413079 0
M  V30 42 H 3.196772 -0.131766 1.153208 0
M  V30 43 H 3.188313 2.239284 3.065051 0
M  V30 44 H 2.966748 2.258338 0.068166 0
M  V30 45 H 2.936415 3.559720 1.243287 0
M  V30 46 H 1.025687 2.737958 2.463228 0
M  V30 47 H -1.519326 2.237605 1.735325 0
M  V30 48 H -1.171396 0.427848 1.454150 0
M  V30 49 H -1.254627 3.046649 -1.870725 0
M  V30 50 H -0.167461 3.207568 -0.464763 0
M  V30 51 H -1.501558 4.784834 -0.290113 0
M  V30 52 H -3.215718 1.289071 -1.654832 0
M  V30 53 H -3.652096 2.150555 -0.165757 0
M  V30 54 H -2.226044 -3.033314 0.264535 0
M  V30 55 H -1.558055 -2.157619 -1.107441 0
M  V30 56 H -3.868945 -2.642096 -2.314158 0
M  V30 57 H -5.204180 -4.471806 -1.287701 0
M  V30 58 H -4.247105 -4.394674 0.184010 0
M  V30 59 H -5.197102 -2.085141 0.667105 0
M  V30 60 H -6.755295 -1.120182 -0.675296 0
M  V30 61 H -6.926876 -2.622179 -1.764473 0
M  V30 62 H -5.447431 -1.538319 -1.808750 0
M  V30 63 H -7.335232 -4.025601 -0.229393 0
M  V30 64 H -7.237862 -3.032527 1.254779 0
M  V30 65 H -6.213019 -4.500926 1.089935 0
M  V30 66 H -2.488196 -5.126952 -1.205758 0
M  V30 67 H -3.602380 -5.002831 -2.578776 0
M  V30 68 H -1.489697 -5.309599 -3.442809 0
M  V30 69 H -2.078984 -2.338619 -3.965442 0
M  V30 70 H -0.994871 -3.474461 -4.807579 0
M  V30 71 H -2.740679 -3.856413 -4.773956 0
M  V30 72 H 0.485540 -4.676401 -2.667583 0
M  V30 73 H -0.362787 -4.175959 -1.210305 0
M  V30 74 H 0.047737 -2.977096 -2.579410 0
M  V30 75 H 5.525737 2.119383 2.904344 0
M  V30 76 H 4.843058 3.414571 1.967656 0
M  V30 77 H 6.801578 2.466210 1.084750 0
M  V30 78 H 6.725220 0.805524 -0.626151 0
M  V30 79 H 5.312115 -0.003448 0.033009 0
M  V30 80 H 6.903158 0.172906 0.992701 0
M  V30 81 H 6.339891 3.221722 -0.966102 0
M  V30 82 H 4.850945 3.741168 -0.189797 0
M  V30 83 H 4.957416 2.179193 -1.200091 0
M  V30 END ATOM
M  V30 BEGIN BOND
M  V30 1 1 1 2
M  V30 2 1 2 3
M  V30 3 1 2 4
M  V30 4 1 4 5
M  V30 5 1 5 6
M  V30 6 1 6 7
M  V30 7 2 7 8
M  V30 8 1 8 9
M  V30 9 1 9 10
M  V30 10 1 10 11
M  V30 11 1 11 12
M  V30 12 1 10 13
M  V30 13 1 13 14
M  V30 14 1 14 15
M  V30 15 2 15 16
M  V30 16 1 15 17
M  V30 17 1 17 18
M  V30 18 1 18 19
M  V30 19 1 19 20
M  V30 20 1 20 21
M  V30 21 1 20 22
M  V30 22 1 18 23
M  V30 23 1 23 24
M  V30 24 1 24 25
M  V30 25 1 24 26
M  V30 26 1 10 27
M  V30 27 1 27 28
M  V30 28 2 28 29
M  V30 29 1 5 30
M  V30 30 1 30 31
M  V30 31 1 31 32
M  V30 32 1 31 33
M  V30 33 1 28 8
M  V30 34 1 1 34
M  V30 35 1 1 35
M  V30 36 1 1 36
M  V30 37 1 2 37
M  V30 38 1 3 38
M  V30 39 1 3 39
M  V30 40 1 3 40
M  V30 41 1 4 41
M  V30 42 1 4 42
M  V30 43 1 5 43
M  V30 44 1 6 44
M  V30 45 1 6 45
M  V30 46 1 7 46
M  V30 47 1 9 47
M  V30 48 1 9 48
M  V30 49 1 11 49
M  V30 50 1 11 50
M  V30 51 1 12 51
M  V30 52 1 13 52
M  V30 53 1 13 53
M  V30 54 1 17 54
M  V30 55 1 17 55
M  V30 56 1 18 56
M  V30 57 1 19 57
M  V30 58 1 19 58
M  V30 59 1 20 59
M  V30 60 1 21 60
M  V30 61 1 21 61
M  V30 62 1 21 62
M  V30 63 1 22 63
M  V30 64 1 22 64
M  V30 65 1 22 65
M  V30 66 1 23 66
M  V30 67 1 23 67
M  V30 68 1 24 68
M  V30 69 1 25 69
M  V30 70 1 25 70
M  V30 71 1 25 71
M  V30 72 1 26 72
M  V30 73 1 26 73
M  V30 74 1 26 74
M  V30 75 1 30 75
M  V30 76 1 30 76
M  V30 77 1 31 77
M  V30 78 1 32 78
M  V30 79 1 32 79
M  V30 80 1 32 80
M  V30 81 1 33 81
M  V30 82 1 33 82
M  V30 83 1 33 83
M  V30 END BOND
M  V30 END CTAB
M  END
>  <Dataset>  (673) 
ChEMBL_Kinases

>  <Ligand_Instance>  (673) 
nan

>  <PDB_ID>  (673) 
nan

>  <Standardized_SMILES>  (673) 
CC(C)CC(C/C=C1/CC(CO)(COC(=O)CC(CC(C)C)CC(C)C)OC1=O)CC(C)C

>  <Name>  (673) 
nan

>  <Pocket>  (673) 
nan

>  <ATP_Site>  (673) 
nan

>  <Peripheral>  (673) 
nan

>  <Num_H_Atoms_ProtBoundConf>  (673) 
nan

>  <Num_Resolved_Atoms>  (673) 
nan

>  <Num_Not_Resolved_Atoms>  (673) 
nan

$$$$
CHEMBL203573
     RDKit          3D

  0  0  0  0  0  0  0  0  0  0999 V3000
M  V30 BEGIN CTAB
M  V30 COUNTS 49 52 0 0 0
M  V30 BEGIN ATOM
M  V30 1 N 3.436178 -6.246102 3.017487 0
M  V30 2 S 2.216286 -6.786070 1.905269 0
M  V30 3 O 1.089054 -7.348787 2.709145 0
M  V30 4 O 2.827753 -7.918464 1.116874 0
M  V30 5 C 1.683660 -5.492755 0.861215 0
M  V30 6 C 2.265544 -5.281268 -0.376252 0
M  V30 7 C 1.830555 -4.252736 -1.187105 0
M  V30 8 C 0.811636 -3.445999 -0.741643 0
M  V30 9 N 0.305771 -2.375913 -1.533443 0
M  V30 10 C -0.616727 -1.347493 -1.190054 0
M  V30 11 C -0.055144 -0.149143 -0.812735 0
M  V30 12 C -0.867630 0.934047 -0.448767 0
M  V30 13 N -0.398117 2.219341 -0.058753 0
M  V30 14 C -1.157024 3.356622 0.331031 0 CFG=1
M  V30 15 C -1.923386 3.027542 1.579781 0
M  V30 16 C -1.073021 3.115211 2.821526 0
M  V30 17 C 0.400911 2.972572 2.538047 0 CFG=2
M  V30 18 O 1.044718 3.243779 3.761851 0
M  V30 19 C 0.927244 3.986365 1.552848 0
M  V30 20 C -0.211088 4.487860 0.691611 0
M  V30 21 N -2.217090 0.745143 -0.485293 0
M  V30 22 C -2.765424 -0.434830 -0.856591 0
M  V30 23 N -4.029917 -0.876406 -0.976214 0
M  V30 24 C -4.012244 -2.166845 -1.393370 0
M  V30 25 N -2.711835 -2.489182 -1.521203 0
M  V30 26 N -1.955491 -1.452839 -1.200089 0
M  V30 27 C 0.234355 -3.659833 0.493135 0
M  V30 28 C 0.637810 -4.678119 1.338519 0
M  V30 29 H 3.962214 -5.432621 2.584706 0
M  V30 30 H 2.997028 -5.869655 3.900923 0
M  V30 31 H 3.074239 -5.915291 -0.738157 0
M  V30 32 H 2.233891 -4.020924 -2.170197 0
M  V30 33 H 0.579705 -2.215772 -2.539908 0
M  V30 34 H 0.997530 0.049813 -0.766828 0
M  V30 35 H 0.660133 2.267278 -0.084194 0
M  V30 36 H -1.858242 3.711252 -0.454251 0
M  V30 37 H -2.452090 2.060161 1.476941 0
M  V30 38 H -2.731031 3.810056 1.687665 0
M  V30 39 H -1.354374 2.254332 3.461590 0
M  V30 40 H -1.221310 4.035844 3.401328 0
M  V30 41 H 0.695785 1.928228 2.297011 0
M  V30 42 H 1.982162 3.509612 3.509262 0
M  V30 43 H 1.787111 3.598765 0.965909 0
M  V30 44 H 1.348067 4.906044 2.059152 0
M  V30 45 H 0.126517 5.062818 -0.195582 0
M  V30 46 H -0.745484 5.249908 1.325872 0
M  V30 47 H -4.843964 -2.858260 -1.601112 0
M  V30 48 H -0.584219 -3.033029 0.878623 0
M  V30 49 H 0.221897 -4.891710 2.310023 0
M  V30 END ATOM
M  V30 BEGIN BOND
M  V30 1 1 1 2
M  V30 2 2 2 3
M  V30 3 2 2 4
M  V30 4 1 2 5
M  V30 5 2 5 6
M  V30 6 1 6 7
M  V30 7 2 7 8
M  V30 8 1 8 9
M  V30 9 1 9 10
M  V30 10 2 10 11
M  V30 11 1 11 12
M  V30 12 1 12 13
M  V30 13 1 13 14
M  V30 14 1 14 15
M  V30 15 1 15 16
M  V30 16 1 16 17
M  V30 17 1 17 18
M  V30 18 1 17 19
M  V30 19 1 19 20
M  V30 20 2 12 21
M  V30 21 1 21 22
M  V30 22 2 22 23
M  V30 23 1 23 24
M  V30 24 2 24 25
M  V30 25 1 25 26
M  V30 26 1 8 27
M  V30 27 2 27 28
M  V30 28 1 28 5
M  V30 29 1 26 10
M  V30 30 1 20 14
M  V30 31 1 26 22
M  V30 32 1 1 29
M  V30 33 1 1 30
M  V30 34 1 6 31
M  V30 35 1 7 32
M  V30 36 1 9 33
M  V30 37 1 11 34
M  V30 38 1 13 35
M  V30 39 1 14 36 CFG=3
M  V30 40 1 15 37
M  V30 41 1 15 38
M  V30 42 1 16 39
M  V30 43 1 16 40
M  V30 44 1 17 41 CFG=3
M  V30 45 1 18 42
M  V30 46 1 19 43
M  V30 47 1 19 44
M  V30 48 1 20 45
M  V30 49 1 20 46
M  V30 50 1 24 47
M  V30 51 1 27 48
M  V30 52 1 28 49
M  V30 END BOND
M  V30 END CTAB
M  END
>  <Dataset>  (674) 
ChEMBL_Kinases

>  <Ligand_Instance>  (674) 
nan

>  <PDB_ID>  (674) 
nan

>  <Standardized_SMILES>  (674) 
NS(=O)(=O)c1ccc(Nc2cc(N[C@H]3CC[C@H](O)CC3)nc3ncnn23)cc1

>  <Name>  (674) 
nan

>  <Pocket>  (674) 
nan

>  <ATP_Site>  (674) 
nan

>  <Peripheral>  (674) 
nan

>  <Num_H_Atoms_ProtBoundConf>  (674) 
nan

>  <Num_Resolved_Atoms>  (674) 
nan

>  <Num_Not_Resolved_Atoms>  (674) 
nan

$$$$
CHEMBL203524
     RDKit          3D

  0  0  0  0  0  0  0  0  0  0999 V3000
M  V30 BEGIN CTAB
M  V30 COUNTS 65 65 0 0 0
M  V30 BEGIN ATOM
M  V30 1 C 1.099296 -3.687795 5.497839 0
M  V30 2 C 0.572805 -2.335494 5.100158 0
M  V30 3 C 0.697405 -1.426896 6.339343 0
M  V30 4 C 1.269452 -1.664051 4.003357 0
M  V30 5 C 1.364632 -2.123028 2.634113 0
M  V30 6 C 2.248964 -1.193748 1.745015 0
M  V30 7 C 1.744667 0.160275 1.672971 0
M  V30 8 C 1.333370 0.853233 0.631240 0
M  V30 9 C 0.794079 2.244821 0.417059 0
M  V30 10 C -0.115369 1.972423 -0.767192 0 CFG=1
M  V30 11 C -1.169634 0.998951 -0.244537 0
M  V30 12 O -1.865477 0.424334 -1.278568 0
M  V30 13 C -0.698312 3.186985 -1.358977 0
M  V30 14 O -1.491682 2.886070 -2.473692 0
M  V30 15 C -1.012114 2.326532 -3.626509 0
M  V30 16 O 0.158997 1.993587 -3.910957 0
M  V30 17 C -2.029317 2.090686 -4.665263 0
M  V30 18 C -1.392445 1.475446 -5.884070 0
M  V30 19 C -3.126201 1.169613 -4.179300 0
M  V30 20 C -2.697262 3.395354 -5.041446 0
M  V30 21 O 0.736245 1.199413 -1.573342 0
M  V30 22 C 1.331926 0.277191 -0.718879 0
M  V30 23 O 1.777360 -0.842255 -1.081892 0
M  V30 24 C 1.312180 -3.495115 2.153907 0
M  V30 25 C 0.103889 -4.320251 2.321127 0
M  V30 26 C -1.129562 -3.753185 1.650112 0
M  V30 27 C 0.276250 -5.704429 1.651329 0
M  V30 28 H 1.722795 -4.187781 4.752037 0
M  V30 29 H 1.729173 -3.587567 6.433862 0
M  V30 30 H 0.239017 -4.321707 5.810355 0
M  V30 31 H -0.532796 -2.426765 4.964126 0
M  V30 32 H -0.194920 -1.479012 6.981580 0
M  V30 33 H 0.811384 -0.357451 6.048969 0
M  V30 34 H 1.590258 -1.666074 6.939106 0
M  V30 35 H 0.971078 -0.544447 3.983975 0
M  V30 36 H 2.359110 -1.535709 4.376313 0
M  V30 37 H 0.303155 -1.708998 2.189075 0
M  V30 38 H 3.190973 -1.117326 2.379120 0
M  V30 39 H 2.587641 -1.708158 0.869026 0
M  V30 40 H 1.680314 0.734831 2.595805 0
M  V30 41 H 0.256430 2.630995 1.286301 0
M  V30 42 H 1.656101 2.890492 0.110546 0
M  V30 43 H -1.759014 1.524589 0.506254 0
M  V30 44 H -0.578322 0.178607 0.252522 0
M  V30 45 H -2.846320 0.502646 -1.086722 0
M  V30 46 H -1.330830 3.670894 -0.597405 0
M  V30 47 H 0.139407 3.880223 -1.615443 0
M  V30 48 H -2.101047 1.407313 -6.730260 0
M  V30 49 H -0.979001 0.484558 -5.684140 0
M  V30 50 H -0.567953 2.148552 -6.229636 0
M  V30 51 H -2.698896 0.171711 -3.897761 0
M  V30 52 H -3.814035 0.959405 -5.023467 0
M  V30 53 H -3.735388 1.623075 -3.371007 0
M  V30 54 H -1.969999 4.206951 -5.208792 0
M  V30 55 H -3.385299 3.688612 -4.195840 0
M  V30 56 H -3.392619 3.226719 -5.896960 0
M  V30 57 H 1.474121 -3.436223 1.016822 0
M  V30 58 H 2.229124 -4.113637 2.437407 0
M  V30 59 H -0.178479 -4.549285 3.340352 0
M  V30 60 H -1.895576 -4.557011 1.661579 0
M  V30 61 H -0.955030 -3.491067 0.596087 0
M  V30 62 H -1.560838 -2.883288 2.153993 0
M  V30 63 H -0.751911 -6.142609 1.645481 0
M  V30 64 H 0.973290 -6.334706 2.202329 0
M  V30 65 H 0.539698 -5.497826 0.596252 0
M  V30 END ATOM
M  V30 BEGIN BOND
M  V30 1 1 1 2
M  V30 2 1 2 3
M  V30 3 1 2 4
M  V30 4 1 4 5
M  V30 5 1 5 6
M  V30 6 1 6 7
M  V30 7 2 7 8
M  V30 8 1 8 9
M  V30 9 1 9 10
M  V30 10 1 10 11 CFG=1
M  V30 11 1 11 12
M  V30 12 1 10 13
M  V30 13 1 13 14
M  V30 14 1 14 15
M  V30 15 2 15 16
M  V30 16 1 15 17
M  V30 17 1 17 18
M  V30 18 1 17 19
M  V30 19 1 17 20
M  V30 20 1 10 21
M  V30 21 1 21 22
M  V30 22 2 22 23
M  V30 23 1 5 24
M  V30 24 1 24 25
M  V30 25 1 25 26
M  V30 26 1 25 27
M  V30 27 1 22 8
M  V30 28 1 1 28
M  V30 29 1 1 29
M  V30 30 1 1 30
M  V30 31 1 2 31
M  V30 32 1 3 32
M  V30 33 1 3 33
M  V30 34 1 3 34
M  V30 35 1 4 35
M  V30 36 1 4 36
M  V30 37 1 5 37
M  V30 38 1 6 38
M  V30 39 1 6 39
M  V30 40 1 7 40
M  V30 41 1 9 41
M  V30 42 1 9 42
M  V30 43 1 11 43
M  V30 44 1 11 44
M  V30 45 1 12 45
M  V30 46 1 13 46
M  V30 47 1 13 47
M  V30 48 1 18 48
M  V30 49 1 18 49
M  V30 50 1 18 50
M  V30 51 1 19 51
M  V30 52 1 19 52
M  V30 53 1 19 53
M  V30 54 1 20 54
M  V30 55 1 20 55
M  V30 56 1 20 56
M  V30 57 1 24 57
M  V30 58 1 24 58
M  V30 59 1 25 59
M  V30 60 1 26 60
M  V30 61 1 26 61
M  V30 62 1 26 62
M  V30 63 1 27 63
M  V30 64 1 27 64
M  V30 65 1 27 65
M  V30 END BOND
M  V30 END CTAB
M  END
>  <Dataset>  (675) 
ChEMBL_Kinases

>  <Ligand_Instance>  (675) 
nan

>  <PDB_ID>  (675) 
nan

>  <Standardized_SMILES>  (675) 
CC(C)CC(C/C=C1/C[C@@](CO)(COC(=O)C(C)(C)C)OC1=O)CC(C)C

>  <Name>  (675) 
nan

>  <Pocket>  (675) 
nan

>  <ATP_Site>  (675) 
nan

>  <Peripheral>  (675) 
nan

>  <Num_H_Atoms_ProtBoundConf>  (675) 
nan

>  <Num_Resolved_Atoms>  (675) 
nan

>  <Num_Not_Resolved_Atoms>  (675) 
nan

$$$$
CHEMBL203521
     RDKit          3D

  0  0  0  0  0  0  0  0  0  0999 V3000
M  V30 BEGIN CTAB
M  V30 COUNTS 68 68 0 0 0
M  V30 BEGIN ATOM
M  V30 1 C -0.416524 -2.265611 3.996597 0
M  V30 2 C 0.927587 -1.911449 4.585383 0
M  V30 3 C 1.342095 -0.492267 4.227493 0
M  V30 4 C 2.672109 -0.218829 4.869370 0
M  V30 5 C 3.103813 1.186611 4.535477 0
M  V30 6 C 3.281671 1.371174 3.089018 0
M  V30 7 O 4.062234 0.440832 2.798586 0
M  V30 8 O 2.767791 2.294463 2.226065 0
M  V30 9 C 3.020791 2.388391 0.866945 0
M  V30 10 C 2.626737 1.230932 0.053227 0
M  V30 11 C 2.897742 1.547779 -1.410148 0
M  V30 12 O 2.278212 2.691879 -1.838967 0
M  V30 13 C 1.155672 0.868373 0.125024 0
M  V30 14 C 1.177490 -0.553233 -0.405505 0
M  V30 15 C 0.427815 -1.280786 -1.213560 0
M  V30 16 C -0.774424 -0.668122 -1.823968 0
M  V30 17 C -2.034815 -1.419358 -1.537389 0
M  V30 18 C -1.947657 -2.830302 -2.082880 0
M  V30 19 C -1.746091 -2.880519 -3.562613 0
M  V30 20 C -2.938915 -2.172679 -4.196495 0
M  V30 21 C -1.874533 -4.351078 -3.985102 0
M  V30 22 C -2.470979 -1.482906 -0.127444 0
M  V30 23 C -2.745710 -0.164627 0.521005 0
M  V30 24 C -3.823837 0.626516 -0.171075 0
M  V30 25 C -3.336832 -0.515577 1.896491 0
M  V30 26 C 2.405088 -1.040335 0.261779 0
M  V30 27 O 2.667621 -2.239747 0.633555 0
M  V30 28 O 3.293824 0.050286 0.442100 0
M  V30 29 H -1.177597 -2.364833 4.807915 0
M  V30 30 H -0.333624 -3.237876 3.476828 0
M  V30 31 H -0.691198 -1.468297 3.281901 0
M  V30 32 H 1.716053 -2.586210 4.169709 0
M  V30 33 H 0.900902 -2.042591 5.683487 0
M  V30 34 H 0.563169 0.166890 4.701446 0
M  V30 35 H 1.377220 -0.406339 3.133561 0
M  V30 36 H 3.424997 -0.977619 4.555232 0
M  V30 37 H 2.555228 -0.299748 5.974828 0
M  V30 38 H 2.358872 1.908474 4.976095 0
M  V30 39 H 4.055445 1.392372 5.083037 0
M  V30 40 H 4.124649 2.570952 0.658383 0
M  V30 41 H 2.560815 3.339978 0.457405 0
M  V30 42 H 3.979921 1.640691 -1.607731 0
M  V30 43 H 2.487737 0.711055 -2.032981 0
M  V30 44 H 1.557895 3.046025 -1.272631 0
M  V30 45 H 0.511969 1.500534 -0.483635 0
M  V30 46 H 0.786247 0.804469 1.160632 0
M  V30 47 H 0.715911 -2.305751 -1.403440 0
M  V30 48 H -0.803989 0.389118 -1.550788 0
M  V30 49 H -0.626542 -0.683502 -2.929968 0
M  V30 50 H -2.863289 -0.918406 -2.118397 0
M  V30 51 H -1.087693 -3.307812 -1.526279 0
M  V30 52 H -2.845771 -3.377793 -1.746722 0
M  V30 53 H -0.801106 -2.459348 -3.907209 0
M  V30 54 H -2.917575 -2.513309 -5.278596 0
M  V30 55 H -2.896315 -1.083914 -4.130278 0
M  V30 56 H -3.873887 -2.603598 -3.748354 0
M  V30 57 H -0.971831 -4.650436 -4.574081 0
M  V30 58 H -2.010570 -5.020257 -3.109699 0
M  V30 59 H -2.741801 -4.526936 -4.644190 0
M  V30 60 H -3.380658 -2.100612 -0.058418 0
M  V30 61 H -1.683891 -2.004270 0.473074 0
M  V30 62 H -1.891532 0.479640 0.698928 0
M  V30 63 H -3.504159 1.009176 -1.156586 0
M  V30 64 H -4.760717 0.012597 -0.226008 0
M  V30 65 H -4.075149 1.491166 0.481826 0
M  V30 66 H -3.293191 0.337267 2.586389 0
M  V30 67 H -4.400694 -0.816384 1.652305 0
M  V30 68 H -2.859453 -1.435238 2.254810 0
M  V30 END ATOM
M  V30 BEGIN BOND
M  V30 1 1 1 2
M  V30 2 1 2 3
M  V30 3 1 3 4
M  V30 4 1 4 5
M  V30 5 1 5 6
M  V30 6 2 6 7
M  V30 7 1 6 8
M  V30 8 1 8 9
M  V30 9 1 9 10
M  V30 10 1 10 11
M  V30 11 1 11 12
M  V30 12 1 10 13
M  V30 13 1 13 14
M  V30 14 2 14 15
M  V30 15 1 15 16
M  V30 16 1 16 17
M  V30 17 1 17 18
M  V30 18 1 18 19
M  V30 19 1 19 20
M  V30 20 1 19 21
M  V30 21 1 17 22
M  V30 22 1 22 23
M  V30 23 1 23 24
M  V30 24 1 23 25
M  V30 25 1 14 26
M  V30 26 2 26 27
M  V30 27 1 26 28
M  V30 28 1 28 10
M  V30 29 1 1 29
M  V30 30 1 1 30
M  V30 31 1 1 31
M  V30 32 1 2 32
M  V30 33 1 2 33
M  V30 34 1 3 34
M  V30 35 1 3 35
M  V30 36 1 4 36
M  V30 37 1 4 37
M  V30 38 1 5 38
M  V30 39 1 5 39
M  V30 40 1 9 40
M  V30 41 1 9 41
M  V30 42 1 11 42
M  V30 43 1 11 43
M  V30 44 1 12 44
M  V30 45 1 13 45
M  V30 46 1 13 46
M  V30 47 1 15 47
M  V30 48 1 16 48
M  V30 49 1 16 49
M  V30 50 1 17 50
M  V30 51 1 18 51
M  V30 52 1 18 52
M  V30 53 1 19 53
M  V30 54 1 20 54
M  V30 55 1 20 55
M  V30 56 1 20 56
M  V30 57 1 21 57
M  V30 58 1 21 58
M  V30 59 1 21 59
M  V30 60 1 22 60
M  V30 61 1 22 61
M  V30 62 1 23 62
M  V30 63 1 24 63
M  V30 64 1 24 64
M  V30 65 1 24 65
M  V30 66 1 25 66
M  V30 67 1 25 67
M  V30 68 1 25 68
M  V30 END BOND
M  V30 END CTAB
M  END
>  <Dataset>  (676) 
ChEMBL_Kinases

>  <Ligand_Instance>  (676) 
nan

>  <PDB_ID>  (676) 
nan

>  <Standardized_SMILES>  (676) 
CCCCCC(=O)OCC1(CO)C/C(=C\CC(CC(C)C)CC(C)C)C(=O)O1

>  <Name>  (676) 
nan

>  <Pocket>  (676) 
nan

>  <ATP_Site>  (676) 
nan

>  <Peripheral>  (676) 
nan

>  <Num_H_Atoms_ProtBoundConf>  (676) 
nan

>  <Num_Resolved_Atoms>  (676) 
nan

>  <Num_Not_Resolved_Atoms>  (676) 
nan

$$$$
CHEMBL203508
     RDKit          3D

  0  0  0  0  0  0  0  0  0  0999 V3000
M  V30 BEGIN CTAB
M  V30 COUNTS 41 43 0 0 0
M  V30 BEGIN ATOM
M  V30 1 N -1.482818 -2.667040 0.176362 0
M  V30 2 C -0.917391 -2.001580 1.298016 0
M  V30 3 C 0.116231 -1.098831 1.500761 0
M  V30 4 C 0.880279 -0.633256 0.355957 0
M  V30 5 O 0.498672 -1.046097 -0.776334 0
M  V30 6 C 2.031581 0.247942 0.315555 0
M  V30 7 C 2.953514 0.490994 1.307427 0
M  V30 8 C 4.021427 1.360127 1.232068 0
M  V30 9 C 4.196572 2.059930 0.057770 0
M  V30 10 C 3.317039 1.873401 -0.984817 0
M  V30 11 C 3.462368 2.599509 -2.266433 0
M  V30 12 O 3.289873 1.753794 -3.362491 0
M  V30 13 C 2.618049 3.846086 -2.334192 0
M  V30 14 O 2.895817 4.596639 -1.167798 0
M  V30 15 C 2.278732 0.994321 -0.840128 0
M  V30 16 C 0.145658 -0.843868 2.853082 0
M  V30 17 N -0.838554 -1.569723 3.447806 0
M  V30 18 N -1.482166 -2.269124 2.513689 0
M  V30 19 C -2.566477 -3.115883 2.890061 0
M  V30 20 C -3.867790 -2.636750 2.984825 0
M  V30 21 C -4.859356 -3.519892 3.356057 0
M  V30 22 C -4.582670 -4.852058 3.631082 0
M  V30 23 F -5.512334 -5.763345 4.001475 0
M  V30 24 C -3.295602 -5.343646 3.541595 0
M  V30 25 C -2.278243 -4.457241 3.165204 0
M  V30 26 H -2.311328 -2.278295 -0.359910 0
M  V30 27 H -1.048380 -3.584118 -0.120326 0
M  V30 28 H 2.852314 -0.044172 2.224898 0
M  V30 29 H 4.689790 1.479573 2.072510 0
M  V30 30 H 5.020805 2.753193 -0.045442 0
M  V30 31 H 4.537819 2.940524 -2.310638 0
M  V30 32 H 2.332162 1.801374 -3.622803 0
M  V30 33 H 2.876349 4.442939 -3.215634 0
M  V30 34 H 1.529570 3.560267 -2.304353 0
M  V30 35 H 3.782732 5.042156 -1.322968 0
M  V30 36 H 1.589770 0.862178 -1.685307 0
M  V30 37 H 0.832856 -0.175534 3.338474 0
M  V30 38 H -4.091953 -1.588830 2.771054 0
M  V30 39 H -5.886585 -3.181544 3.440441 0
M  V30 40 H -2.943278 -6.342267 3.723724 0
M  V30 41 H -1.232224 -4.787903 3.074761 0
M  V30 END ATOM
M  V30 BEGIN BOND
M  V30 1 1 1 2
M  V30 2 2 2 3
M  V30 3 1 3 4
M  V30 4 2 4 5
M  V30 5 1 4 6
M  V30 6 2 6 7
M  V30 7 1 7 8
M  V30 8 2 8 9
M  V30 9 1 9 10
M  V30 10 1 10 11
M  V30 11 1 11 12
M  V30 12 1 11 13
M  V30 13 1 13 14
M  V30 14 2 10 15
M  V30 15 1 3 16
M  V30 16 2 16 17
M  V30 17 1 17 18
M  V30 18 1 18 19
M  V30 19 2 19 20
M  V30 20 1 20 21
M  V30 21 2 21 22
M  V30 22 1 22 23
M  V30 23 1 22 24
M  V30 24 2 24 25
M  V30 25 1 18 2
M  V30 26 1 25 19
M  V30 27 1 15 6
M  V30 28 1 1 26
M  V30 29 1 1 27
M  V30 30 1 7 28
M  V30 31 1 8 29
M  V30 32 1 9 30
M  V30 33 1 11 31
M  V30 34 1 12 32
M  V30 35 1 13 33
M  V30 36 1 13 34
M  V30 37 1 14 35
M  V30 38 1 15 36
M  V30 39 1 16 37
M  V30 40 1 20 38
M  V30 41 1 21 39
M  V30 42 1 24 40
M  V30 43 1 25 41
M  V30 END BOND
M  V30 END CTAB
M  END
>  <Dataset>  (677) 
ChEMBL_Kinases

>  <Ligand_Instance>  (677) 
nan

>  <PDB_ID>  (677) 
nan

>  <Standardized_SMILES>  (677) 
Nc1c(C(=O)c2cccc(C(O)CO)c2)cnn1-c1ccc(F)cc1

>  <Name>  (677) 
nan

>  <Pocket>  (677) 
nan

>  <ATP_Site>  (677) 
nan

>  <Peripheral>  (677) 
nan

>  <Num_H_Atoms_ProtBoundConf>  (677) 
nan

>  <Num_Resolved_Atoms>  (677) 
nan

>  <Num_Not_Resolved_Atoms>  (677) 
nan

$$$$
CHEMBL203507
     RDKit          3D

  0  0  0  0  0  0  0  0  0  0999 V3000
M  V30 BEGIN CTAB
M  V30 COUNTS 66 70 0 0 0
M  V30 BEGIN ATOM
M  V30 1 C 1.480162 -4.331720 -1.875857 0
M  V30 2 O 0.909713 -4.341215 -0.583938 0
M  V30 3 C 1.345962 -3.379649 0.320112 0
M  V30 4 C 2.318956 -2.483313 -0.140561 0
M  V30 5 C 2.807729 -1.493558 0.699215 0
M  V30 6 C 3.766293 -0.590519 0.290405 0
M  V30 7 N 4.283441 -0.657728 -1.055931 0
M  V30 8 C 3.601687 0.156910 -2.029352 0
M  V30 9 C 3.972828 0.196276 -3.372790 0
M  V30 10 N 3.299754 0.980992 -4.236658 0
M  V30 11 C 2.264739 1.746912 -3.866218 0
M  V30 12 N 1.514570 2.594755 -4.719460 0
M  V30 13 C 0.433969 3.393822 -4.315460 0
M  V30 14 O 0.159106 3.304037 -3.086434 0
M  V30 15 C -0.329144 4.257118 -5.178178 0
M  V30 16 C -1.354315 4.974611 -4.613262 0
M  V30 17 C -2.156290 5.834861 -5.334328 0
M  V30 18 N -1.917066 5.976428 -6.667496 0
M  V30 19 C -0.901270 5.257807 -7.197696 0
M  V30 20 C -0.076838 4.387057 -6.509658 0
M  V30 21 N 1.888225 1.729981 -2.593064 0
M  V30 22 C 2.520258 0.968562 -1.686989 0
M  V30 23 N 4.230997 0.365533 1.125414 0
M  V30 24 C 3.763958 0.465952 2.401307 0
M  V30 25 N 2.813926 -0.417679 2.828574 0
M  V30 26 C 2.355862 -1.365622 1.994808 0
M  V30 27 C 1.400892 -2.274318 2.389798 0
M  V30 28 C 0.863068 -3.280061 1.629502 0
M  V30 29 O -0.059714 -4.211707 1.896490 0
M  V30 30 C -0.826711 -4.503617 3.012041 0
M  V30 31 C -1.785735 -3.422279 3.449299 0
M  V30 32 C -2.542292 -3.879211 4.673090 0
M  V30 33 N -3.470545 -2.900601 5.128491 0
M  V30 34 C -4.206177 -3.350694 6.306822 0
M  V30 35 C -5.413193 -2.407839 6.395711 0
M  V30 36 O -5.275074 -1.316620 5.573883 0
M  V30 37 C -4.076385 -0.647670 5.666365 0
M  V30 38 C -2.933751 -1.619012 5.464895 0
M  V30 39 H 2.569388 -4.527806 -1.882380 0
M  V30 40 H 1.335212 -3.335081 -2.368756 0
M  V30 41 H 0.990527 -5.084376 -2.545373 0
M  V30 42 H 2.737526 -2.499926 -1.137116 0
M  V30 43 H 5.072675 -1.210444 -1.407850 0
M  V30 44 H 4.793108 -0.412633 -3.658602 0
M  V30 45 H 1.801939 2.614241 -5.720201 0
M  V30 46 H -1.624418 4.931306 -3.560646 0
M  V30 47 H -2.979997 6.417274 -4.902471 0
M  V30 48 H -0.768020 5.419969 -8.263656 0
M  V30 49 H 0.710864 3.845740 -6.983727 0
M  V30 50 H 2.198688 0.969520 -0.658653 0
M  V30 51 H 4.137458 1.232476 3.069172 0
M  V30 52 H 1.043619 -2.200152 3.397589 0
M  V30 53 H -0.168219 -4.759823 3.883972 0
M  V30 54 H -1.458828 -5.427389 2.857960 0
M  V30 55 H -1.250598 -2.489201 3.546787 0
M  V30 56 H -2.565052 -3.240053 2.651270 0
M  V30 57 H -1.835698 -4.234719 5.446636 0
M  V30 58 H -3.128475 -4.767856 4.363194 0
M  V30 59 H -3.616962 -3.129401 7.223815 0
M  V30 60 H -4.490461 -4.400301 6.287792 0
M  V30 61 H -5.625633 -2.093056 7.425732 0
M  V30 62 H -6.314394 -2.970754 6.039424 0
M  V30 63 H -4.062582 0.073173 4.814621 0
M  V30 64 H -3.963650 -0.084389 6.618776 0
M  V30 65 H -2.419358 -1.742872 6.467231 0
M  V30 66 H -2.233477 -1.184752 4.729807 0
M  V30 END ATOM
M  V30 BEGIN BOND
M  V30 1 1 1 2
M  V30 2 1 2 3
M  V30 3 2 3 4
M  V30 4 1 4 5
M  V30 5 2 5 6
M  V30 6 1 6 7
M  V30 7 1 7 8
M  V30 8 2 8 9
M  V30 9 1 9 10
M  V30 10 2 10 11
M  V30 11 1 11 12
M  V30 12 1 12 13
M  V30 13 2 13 14
M  V30 14 1 13 15
M  V30 15 2 15 16
M  V30 16 1 16 17
M  V30 17 2 17 18
M  V30 18 1 18 19
M  V30 19 2 19 20
M  V30 20 1 11 21
M  V30 21 2 21 22
M  V30 22 1 6 23
M  V30 23 2 23 24
M  V30 24 1 24 25
M  V30 25 2 25 26
M  V30 26 1 26 27
M  V30 27 2 27 28
M  V30 28 1 28 29
M  V30 29 1 29 30
M  V30 30 1 30 31
M  V30 31 1 31 32
M  V30 32 1 32 33
M  V30 33 1 33 34
M  V30 34 1 34 35
M  V30 35 1 35 36
M  V30 36 1 36 37
M  V30 37 1 37 38
M  V30 38 1 28 3
M  V30 39 1 38 33
M  V30 40 1 26 5
M  V30 41 1 22 8
M  V30 42 1 20 15
M  V30 43 1 1 39
M  V30 44 1 1 40
M  V30 45 1 1 41
M  V30 46 1 4 42
M  V30 47 1 7 43
M  V30 48 1 9 44
M  V30 49 1 12 45
M  V30 50 1 16 46
M  V30 51 1 17 47
M  V30 52 1 19 48
M  V30 53 1 20 49
M  V30 54 1 22 50
M  V30 55 1 24 51
M  V30 56 1 27 52
M  V30 57 1 30 53
M  V30 58 1 30 54
M  V30 59 1 31 55
M  V30 60 1 31 56
M  V30 61 1 32 57
M  V30 62 1 32 58
M  V30 63 1 34 59
M  V30 64 1 34 60
M  V30 65 1 35 61
M  V30 66 1 35 62
M  V30 67 1 37 63
M  V30 68 1 37 64
M  V30 69 1 38 65
M  V30 70 1 38 66
M  V30 END BOND
M  V30 END CTAB
M  END
>  <Dataset>  (678) 
ChEMBL_Kinases

>  <Ligand_Instance>  (678) 
nan

>  <PDB_ID>  (678) 
nan

>  <Standardized_SMILES>  (678) 
COc1cc2c(Nc3cnc(NC(=O)c4ccncc4)nc3)ncnc2cc1OCCCN1CCOCC1

>  <Name>  (678) 
nan

>  <Pocket>  (678) 
nan

>  <ATP_Site>  (678) 
nan

>  <Peripheral>  (678) 
nan

>  <Num_H_Atoms_ProtBoundConf>  (678) 
nan

>  <Num_Resolved_Atoms>  (678) 
nan

>  <Num_Not_Resolved_Atoms>  (678) 
nan

$$$$
CHEMBL203483
     RDKit          3D

  0  0  0  0  0  0  0  0  0  0999 V3000
M  V30 BEGIN CTAB
M  V30 COUNTS 61 65 0 0 0
M  V30 BEGIN ATOM
M  V30 1 N 4.912049 -2.080680 0.995464 0
M  V30 2 C 3.532932 -2.313470 0.500746 0 CFG=2
M  V30 3 C 3.102731 -3.595076 1.141648 0
M  V30 4 O 3.150086 -3.480198 2.519969 0
M  V30 5 C 2.396042 -2.637306 3.267237 0
M  V30 6 C 2.877516 -2.905053 4.569168 0
M  V30 7 N 2.419383 -2.288623 5.711188 0
M  V30 8 C 1.430694 -1.347718 5.608157 0
M  V30 9 C 0.946058 -1.071884 4.348233 0
M  V30 10 C -0.087030 -0.070420 4.124334 0
M  V30 11 C -0.713387 0.276389 3.022617 0
M  V30 12 C -1.735731 1.304085 2.915173 0
M  V30 13 C -2.193241 2.128801 3.912487 0
M  V30 14 C -3.174517 3.063657 3.671816 0
M  V30 15 N -3.715511 3.190862 2.435924 0
M  V30 16 C -3.299081 2.394560 1.406914 0
M  V30 17 S -4.194705 2.684910 -0.080005 0
M  V30 18 C -4.242597 1.346510 -1.229495 0
M  V30 19 C -3.938618 0.005255 -1.200750 0
M  V30 20 C -4.016776 -0.868501 -2.243556 0
M  V30 21 C -4.437431 -0.413478 -3.473709 0
M  V30 22 C -4.765535 0.942655 -3.578659 0
M  V30 23 C -4.671227 1.800827 -2.484815 0
M  V30 24 C -2.323964 1.482733 1.687986 0
M  V30 25 C 1.411483 -1.695270 3.211840 0
M  V30 26 C 3.670966 -2.391235 -1.006344 0
M  V30 27 C 2.418357 -2.618784 -1.723191 0
M  V30 28 C 1.926307 -3.751459 -2.313506 0
M  V30 29 N 0.731421 -3.466850 -2.855554 0
M  V30 30 C 0.401405 -2.192907 -2.654990 0
M  V30 31 C -0.691391 -1.410065 -2.999435 0
M  V30 32 C -0.695301 -0.085242 -2.614858 0
M  V30 33 C 0.330957 0.531989 -1.895678 0
M  V30 34 C 1.372583 -0.323252 -1.598822 0
M  V30 35 C 1.461491 -1.653778 -1.941110 0
M  V30 36 H 5.454282 -2.955704 0.861358 0
M  V30 37 H 4.858094 -1.933118 2.020004 0
M  V30 38 H 2.876846 -1.492481 0.776867 0
M  V30 39 H 2.044165 -3.863362 0.831937 0
M  V30 40 H 3.709758 -4.465243 0.804249 0
M  V30 41 H 3.641474 -3.579979 4.988993 0
M  V30 42 H 0.993874 -0.798507 6.428441 0
M  V30 43 H -0.405495 0.493897 5.010973 0
M  V30 44 H -0.399755 -0.282091 2.155065 0
M  V30 45 H -1.744362 2.005711 4.891684 0
M  V30 46 H -3.496266 3.691662 4.507179 0
M  V30 47 H -3.654548 -0.251090 -0.166799 0
M  V30 48 H -3.719703 -1.864944 -1.947884 0
M  V30 49 H -4.477212 -1.148796 -4.248097 0
M  V30 50 H -5.083442 1.223686 -4.562670 0
M  V30 51 H -4.965857 2.797390 -2.766303 0
M  V30 52 H -1.998925 0.889573 0.857449 0
M  V30 53 H 1.115684 -1.588198 2.196924 0
M  V30 54 H 4.486579 -3.091043 -1.281362 0
M  V30 55 H 4.071501 -1.377148 -1.306249 0
M  V30 56 H 2.435039 -4.726773 -2.336230 0
M  V30 57 H 0.162130 -4.189449 -3.365815 0
M  V30 58 H -1.490677 -1.863735 -3.551231 0
M  V30 59 H -1.546374 0.547091 -2.876907 0
M  V30 60 H 0.299336 1.570980 -1.607579 0
M  V30 61 H 2.209621 0.099069 -1.034991 0
M  V30 END ATOM
M  V30 BEGIN BOND
M  V30 1 1 1 2
M  V30 2 1 2 3
M  V30 3 1 3 4
M  V30 4 1 4 5
M  V30 5 2 5 6
M  V30 6 1 6 7
M  V30 7 2 7 8
M  V30 8 1 8 9
M  V30 9 1 9 10
M  V30 10 2 10 11
M  V30 11 1 11 12
M  V30 12 2 12 13
M  V30 13 1 13 14
M  V30 14 2 14 15
M  V30 15 1 15 16
M  V30 16 1 16 17
M  V30 17 1 17 18
M  V30 18 2 18 19
M  V30 19 1 19 20
M  V30 20 2 20 21
M  V30 21 1 21 22
M  V30 22 2 22 23
M  V30 23 2 16 24
M  V30 24 2 9 25
M  V30 25 1 2 26
M  V30 26 1 26 27
M  V30 27 2 27 28
M  V30 28 1 28 29
M  V30 29 1 29 30
M  V30 30 2 30 31
M  V30 31 1 31 32
M  V30 32 2 32 33
M  V30 33 1 33 34
M  V30 34 2 34 35
M  V30 35 1 25 5
M  V30 36 1 35 27
M  V30 37 1 24 12
M  V30 38 1 35 30
M  V30 39 1 23 18
M  V30 40 1 1 36
M  V30 41 1 1 37
M  V30 42 1 2 38 CFG=3
M  V30 43 1 3 39
M  V30 44 1 3 40
M  V30 45 1 6 41
M  V30 46 1 8 42
M  V30 47 1 10 43
M  V30 48 1 11 44
M  V30 49 1 13 45
M  V30 50 1 14 46
M  V30 51 1 19 47
M  V30 52 1 20 48
M  V30 53 1 21 49
M  V30 54 1 22 50
M  V30 55 1 23 51
M  V30 56 1 24 52
M  V30 57 1 25 53
M  V30 58 1 26 54
M  V30 59 1 26 55
M  V30 60 1 28 56
M  V30 61 1 29 57
M  V30 62 1 31 58
M  V30 63 1 32 59
M  V30 64 1 33 60
M  V30 65 1 34 61
M  V30 END BOND
M  V30 END CTAB
M  END
>  <Dataset>  (679) 
ChEMBL_Kinases

>  <Ligand_Instance>  (679) 
nan

>  <PDB_ID>  (679) 
nan

>  <Standardized_SMILES>  (679) 
N[C@H](COc1cncc(/C=C/c2ccnc(Sc3ccccc3)c2)c1)Cc1c[nH]c2ccccc12

>  <Name>  (679) 
nan

>  <Pocket>  (679) 
nan

>  <ATP_Site>  (679) 
nan

>  <Peripheral>  (679) 
nan

>  <Num_H_Atoms_ProtBoundConf>  (679) 
nan

>  <Num_Resolved_Atoms>  (679) 
nan

>  <Num_Not_Resolved_Atoms>  (679) 
nan

$$$$
CHEMBL203436
     RDKit          3D

  0  0  0  0  0  0  0  0  0  0999 V3000
M  V30 BEGIN CTAB
M  V30 COUNTS 43 46 0 0 0
M  V30 BEGIN ATOM
M  V30 1 C 2.256364 -7.424527 3.728911 0
M  V30 2 O 2.148360 -6.342809 2.803881 0
M  V30 3 C 1.823303 -5.072237 3.280749 0
M  V30 4 O 1.643469 -4.970847 4.534748 0
M  V30 5 C 1.705486 -3.952552 2.368916 0
M  V30 6 C 1.913745 -4.113634 1.014949 0
M  V30 7 C 1.784784 -3.008637 0.195742 0
M  V30 8 C 1.454047 -1.735094 0.668620 0
M  V30 9 C 1.354547 -0.671430 -0.310480 0
M  V30 10 C 1.029964 0.608821 0.085166 0
M  V30 11 C 0.952666 1.566078 -0.899735 0
M  V30 12 C 0.626995 2.961711 -0.704417 0
M  V30 13 C 1.361604 4.115823 -0.943069 0
M  V30 14 N 0.611333 5.181658 -0.597921 0
M  V30 15 N -0.549964 4.727306 -0.158645 0
M  V30 16 C -0.603490 3.384889 -0.197974 0
M  V30 17 C -1.763006 2.612024 0.228882 0
M  V30 18 C -2.130666 2.778151 1.546026 0
M  V30 19 C -3.196110 2.147070 2.168097 0
M  V30 20 C -3.926983 1.279604 1.346913 0
M  V30 21 C -3.563773 1.103508 0.011568 0
M  V30 22 N -2.511257 1.763039 -0.499511 0
M  V30 23 C 1.191627 1.260731 -2.242399 0
M  V30 24 C 1.514417 -0.038975 -2.591264 0
M  V30 25 N 1.586950 -0.966755 -1.620673 0
M  V30 26 C 1.255651 -1.608507 2.003580 0
M  V30 27 C 1.378732 -2.703843 2.852446 0
M  V30 28 H 3.347384 -7.593642 3.875726 0
M  V30 29 H 1.838691 -7.185344 4.723960 0
M  V30 30 H 1.833201 -8.351933 3.343148 0
M  V30 31 H 2.167594 -5.092349 0.654946 0
M  V30 32 H 1.965067 -3.227145 -0.848613 0
M  V30 33 H 0.838259 0.902843 1.084965 0
M  V30 34 H 2.376693 4.009105 -1.349467 0
M  V30 35 H 1.073364 6.105125 -0.739340 0
M  V30 36 H -1.588685 3.443226 2.215040 0
M  V30 37 H -3.482021 2.277509 3.194562 0
M  V30 38 H -4.783051 0.719141 1.694621 0
M  V30 39 H -4.059223 0.461655 -0.698215 0
M  V30 40 H 1.150225 1.953477 -3.067500 0
M  V30 41 H 1.726164 -0.429741 -3.577784 0
M  V30 42 H 0.999562 -0.641288 2.399077 0
M  V30 43 H 1.222948 -2.610584 3.910557 0
M  V30 END ATOM
M  V30 BEGIN BOND
M  V30 1 1 1 2
M  V30 2 1 2 3
M  V30 3 2 3 4
M  V30 4 1 3 5
M  V30 5 2 5 6
M  V30 6 1 6 7
M  V30 7 2 7 8
M  V30 8 1 8 9
M  V30 9 2 9 10
M  V30 10 1 10 11
M  V30 11 1 11 12
M  V30 12 2 12 13
M  V30 13 1 13 14
M  V30 14 1 14 15
M  V30 15 2 15 16
M  V30 16 1 16 17
M  V30 17 2 17 18
M  V30 18 1 18 19
M  V30 19 2 19 20
M  V30 20 1 20 21
M  V30 21 2 21 22
M  V30 22 2 11 23
M  V30 23 1 23 24
M  V30 24 2 24 25
M  V30 25 1 8 26
M  V30 26 2 26 27
M  V30 27 1 27 5
M  V30 28 1 25 9
M  V30 29 1 16 12
M  V30 30 1 22 17
M  V30 31 1 1 28
M  V30 32 1 1 29
M  V30 33 1 1 30
M  V30 34 1 6 31
M  V30 35 1 7 32
M  V30 36 1 10 33
M  V30 37 1 13 34
M  V30 38 1 14 35
M  V30 39 1 18 36
M  V30 40 1 19 37
M  V30 41 1 20 38
M  V30 42 1 21 39
M  V30 43 1 23 40
M  V30 44 1 24 41
M  V30 45 1 26 42
M  V30 46 1 27 43
M  V30 END BOND
M  V30 END CTAB
M  END
>  <Dataset>  (680) 
ChEMBL_Kinases

>  <Ligand_Instance>  (680) 
nan

>  <PDB_ID>  (680) 
nan

>  <Standardized_SMILES>  (680) 
COC(=O)c1ccc(-c2cc(-c3c[nH]nc3-c3ccccn3)ccn2)cc1

>  <Name>  (680) 
nan

>  <Pocket>  (680) 
nan

>  <ATP_Site>  (680) 
nan

>  <Peripheral>  (680) 
nan

>  <Num_H_Atoms_ProtBoundConf>  (680) 
nan

>  <Num_Resolved_Atoms>  (680) 
nan

>  <Num_Not_Resolved_Atoms>  (680) 
nan

$$$$
CHEMBL203434
     RDKit          3D

  0  0  0  0  0  0  0  0  0  0999 V3000
M  V30 BEGIN CTAB
M  V30 COUNTS 56 59 0 0 0
M  V30 BEGIN ATOM
M  V30 1 N -0.921115 -1.037652 0.823011 0
M  V30 2 C -0.782248 -2.442021 0.851412 0 CFG=2
M  V30 3 C 0.598912 -2.989067 0.588597 0
M  V30 4 O 1.598519 -2.651038 1.434195 0
M  V30 5 C 2.265115 -1.600137 1.883967 0
M  V30 6 C 3.201882 -2.114999 2.807807 0
M  V30 7 N 4.086802 -1.334457 3.494301 0
M  V30 8 C 4.068497 -0.001313 3.281767 0
M  V30 9 C 3.198665 0.591981 2.406749 0
M  V30 10 C 3.143500 2.006079 2.148929 0
M  V30 11 C 2.366511 2.677840 1.346572 0
M  V30 12 C 2.370172 4.114633 1.138682 0
M  V30 13 C 3.216891 4.992910 1.776323 0
M  V30 14 C 3.200590 6.359104 1.560735 0
M  V30 15 N 2.316417 6.892368 0.681683 0
M  V30 16 C 1.473854 6.061758 0.040799 0
M  V30 17 C 1.491482 4.704143 0.256328 0
M  V30 18 C 2.326253 -0.234265 1.738055 0
M  V30 19 C -1.738296 -3.241972 0.024705 0
M  V30 20 C -3.166570 -3.066478 0.371234 0
M  V30 21 C -3.798315 -1.847962 0.498551 0
M  V30 22 C -5.113909 -1.651474 0.817875 0
M  V30 23 C -5.906459 -2.753193 1.038410 0
M  V30 24 C -5.370015 -4.015181 0.935485 0
M  V30 25 C -4.042591 -4.134157 0.611494 0
M  V30 26 C -1.459417 -3.277362 -1.419873 0
M  V30 27 C -1.159185 -4.458370 -2.115278 0
M  V30 28 C -0.897046 -4.570463 -3.463509 0
M  V30 29 C -0.930776 -3.412987 -4.211697 0
M  V30 30 C -1.215004 -2.220997 -3.613745 0
M  V30 31 C -1.467918 -2.181396 -2.258406 0
M  V30 32 H -0.421354 -0.599784 0.024560 0
M  V30 33 H -0.615494 -0.547840 1.688426 0
M  V30 34 H -1.000028 -2.771652 1.926661 0
M  V30 35 H 0.854567 -2.839471 -0.508170 0
M  V30 36 H 0.490945 -4.122621 0.635598 0
M  V30 37 H 3.406175 -3.145361 3.144224 0
M  V30 38 H 4.741219 0.687513 3.789815 0
M  V30 39 H 3.867335 2.614211 2.715015 0
M  V30 40 H 1.659048 2.083192 0.793355 0
M  V30 41 H 3.932836 4.626434 2.478518 0
M  V30 42 H 3.894005 7.026783 2.090509 0
M  V30 43 H 0.785463 6.537851 -0.652560 0
M  V30 44 H 0.789052 4.103627 -0.291482 0
M  V30 45 H 1.596788 0.075903 1.020938 0
M  V30 46 H -1.527961 -4.315815 0.371167 0
M  V30 47 H -3.232054 -0.942426 0.336568 0
M  V30 48 H -5.552503 -0.668853 0.903159 0
M  V30 49 H -6.953192 -2.717084 1.295252 0
M  V30 50 H -5.958750 -4.895787 1.100715 0
M  V30 51 H -3.633043 -5.152781 0.534188 0
M  V30 52 H -1.130940 -5.386365 -1.522017 0
M  V30 53 H -0.678929 -5.547297 -3.872888 0
M  V30 54 H -0.721310 -3.535866 -5.261531 0
M  V30 55 H -1.236043 -1.320201 -4.224650 0
M  V30 56 H -1.687530 -1.216048 -1.867682 0
M  V30 END ATOM
M  V30 BEGIN BOND
M  V30 1 1 1 2
M  V30 2 1 2 3
M  V30 3 1 3 4
M  V30 4 1 4 5
M  V30 5 2 5 6
M  V30 6 1 6 7
M  V30 7 2 7 8
M  V30 8 1 8 9
M  V30 9 1 9 10
M  V30 10 2 10 11
M  V30 11 1 11 12
M  V30 12 2 12 13
M  V30 13 1 13 14
M  V30 14 2 14 15
M  V30 15 1 15 16
M  V30 16 2 16 17
M  V30 17 2 9 18
M  V30 18 1 2 19
M  V30 19 1 19 20
M  V30 20 2 20 21
M  V30 21 1 21 22
M  V30 22 2 22 23
M  V30 23 1 23 24
M  V30 24 2 24 25
M  V30 25 1 19 26
M  V30 26 2 26 27
M  V30 27 1 27 28
M  V30 28 2 28 29
M  V30 29 1 29 30
M  V30 30 2 30 31
M  V30 31 1 18 5
M  V30 32 1 25 20
M  V30 33 1 31 26
M  V30 34 1 17 12
M  V30 35 1 1 32
M  V30 36 1 1 33
M  V30 37 1 2 34 CFG=1
M  V30 38 1 3 35
M  V30 39 1 3 36
M  V30 40 1 6 37
M  V30 41 1 8 38
M  V30 42 1 10 39
M  V30 43 1 11 40
M  V30 44 1 13 41
M  V30 45 1 14 42
M  V30 46 1 16 43
M  V30 47 1 17 44
M  V30 48 1 18 45
M  V30 49 1 19 46
M  V30 50 1 21 47
M  V30 51 1 22 48
M  V30 52 1 23 49
M  V30 53 1 24 50
M  V30 54 1 25 51
M  V30 55 1 27 52
M  V30 56 1 28 53
M  V30 57 1 29 54
M  V30 58 1 30 55
M  V30 59 1 31 56
M  V30 END BOND
M  V30 END CTAB
M  END
>  <Dataset>  (681) 
ChEMBL_Kinases

>  <Ligand_Instance>  (681) 
nan

>  <PDB_ID>  (681) 
nan

>  <Standardized_SMILES>  (681) 
N[C@H](COc1cncc(/C=C/c2ccncc2)c1)C(c1ccccc1)c1ccccc1

>  <Name>  (681) 
nan

>  <Pocket>  (681) 
nan

>  <ATP_Site>  (681) 
nan

>  <Peripheral>  (681) 
nan

>  <Num_H_Atoms_ProtBoundConf>  (681) 
nan

>  <Num_Resolved_Atoms>  (681) 
nan

>  <Num_Not_Resolved_Atoms>  (681) 
nan

$$$$
CHEMBL203417
     RDKit          3D

  0  0  0  0  0  0  0  0  0  0999 V3000
M  V30 BEGIN CTAB
M  V30 COUNTS 30 31 0 0 0
M  V30 BEGIN ATOM
M  V30 1 C -2.849004 -3.572415 2.965750 0
M  V30 2 N -1.984897 -2.763119 2.094049 0
M  V30 3 C -0.661823 -3.003241 2.094315 0
M  V30 4 C 0.053130 -2.189943 1.243899 0
M  V30 5 C 1.481316 -2.450601 1.243273 0
M  V30 6 O 2.076037 -3.322880 1.934647 0
M  V30 7 O 2.765314 -2.215814 0.817863 0
M  V30 8 C -0.458480 -1.199411 0.434238 0
M  V30 9 N 0.324309 -0.388552 -0.429638 0
M  V30 10 C 1.092018 0.805954 -0.370805 0
M  V30 11 C 2.437413 0.693417 -0.714963 0
M  V30 12 C 3.297204 1.790744 -0.691875 0
M  V30 13 C 2.750940 3.002842 -0.309850 0
M  V30 14 Br 3.869480 4.554476 -0.254029 0
M  V30 15 C 1.431403 3.179933 0.041410 0
M  V30 16 C 0.647389 2.051212 -0.006167 0
M  V30 17 F -0.653805 2.179612 0.332233 0
M  V30 18 C -1.822010 -0.998046 0.475136 0
M  V30 19 F -2.494932 -0.083316 -0.247482 0
M  V30 20 C -2.541175 -1.810703 1.325792 0
M  V30 21 O -3.788108 -1.664983 1.398154 0
M  V30 22 H -3.154671 -4.494244 2.467749 0
M  V30 23 H -2.327777 -3.791406 3.940825 0
M  V30 24 H -3.725494 -2.975704 3.240477 0
M  V30 25 H -0.232476 -3.761283 2.707810 0
M  V30 26 H 3.061009 -2.428067 -0.130788 0
M  V30 27 H 0.298516 -0.847462 -1.382037 0
M  V30 28 H 2.962730 -0.209490 -1.030723 0
M  V30 29 H 4.334024 1.761790 -0.945006 0
M  V30 30 H 1.015293 4.133560 0.338647 0
M  V30 END ATOM
M  V30 BEGIN BOND
M  V30 1 1 1 2
M  V30 2 1 2 3
M  V30 3 2 3 4
M  V30 4 1 4 5
M  V30 5 2 5 6
M  V30 6 1 5 7
M  V30 7 1 4 8
M  V30 8 1 8 9
M  V30 9 1 9 10
M  V30 10 2 10 11
M  V30 11 1 11 12
M  V30 12 2 12 13
M  V30 13 1 13 14
M  V30 14 1 13 15
M  V30 15 2 15 16
M  V30 16 1 16 17
M  V30 17 2 8 18
M  V30 18 1 18 19
M  V30 19 1 18 20
M  V30 20 2 20 21
M  V30 21 1 20 2
M  V30 22 1 16 10
M  V30 23 1 1 22
M  V30 24 1 1 23
M  V30 25 1 1 24
M  V30 26 1 3 25
M  V30 27 1 7 26
M  V30 28 1 9 27
M  V30 29 1 11 28
M  V30 30 1 12 29
M  V30 31 1 15 30
M  V30 END BOND
M  V30 END CTAB
M  END
>  <Dataset>  (682) 
ChEMBL_Kinases

>  <Ligand_Instance>  (682) 
nan

>  <PDB_ID>  (682) 
nan

>  <Standardized_SMILES>  (682) 
Cn1cc(C(=O)O)c(Nc2ccc(Br)cc2F)c(F)c1=O

>  <Name>  (682) 
nan

>  <Pocket>  (682) 
nan

>  <ATP_Site>  (682) 
nan

>  <Peripheral>  (682) 
nan

>  <Num_H_Atoms_ProtBoundConf>  (682) 
nan

>  <Num_Resolved_Atoms>  (682) 
nan

>  <Num_Not_Resolved_Atoms>  (682) 
nan

$$$$
CHEMBL203384
     RDKit          3D

  0  0  0  0  0  0  0  0  0  0999 V3000
M  V30 BEGIN CTAB
M  V30 COUNTS 51 54 0 0 0
M  V30 BEGIN ATOM
M  V30 1 N -1.876001 -2.154424 -1.074103 0
M  V30 2 C -1.666442 -1.553589 0.206677 0 CFG=2
M  V30 3 C -0.359456 -0.785566 0.305613 0
M  V30 4 N 0.777632 -1.651867 0.065853 0
M  V30 5 C 2.122985 -1.189458 0.099264 0
M  V30 6 C 3.170608 -2.055881 -0.135191 0
M  V30 7 N 4.418886 -1.581401 -0.094246 0
M  V30 8 C 4.677149 -0.288370 0.168187 0
M  V30 9 Cl 6.352560 0.241780 0.200711 0
M  V30 10 C 3.684290 0.632604 0.411502 0
M  V30 11 C 3.987161 2.030096 0.693977 0
M  V30 12 C 3.134543 2.983124 0.936251 0
M  V30 13 C 3.428632 4.382553 1.219442 0
M  V30 14 C 2.441345 5.306787 1.461773 0
M  V30 15 C 2.740949 6.632418 1.728900 0
M  V30 16 N 4.021470 7.070569 1.761818 0
M  V30 17 C 5.022692 6.196890 1.529612 0
M  V30 18 C 4.707959 4.885517 1.266130 0
M  V30 19 C 2.416059 0.131574 0.365990 0
M  V30 20 C -1.751642 -2.538079 1.351061 0
M  V30 21 C -3.073847 -3.204664 1.428154 0
M  V30 22 C -4.065041 -2.803787 2.333552 0
M  V30 23 N -5.193482 -3.523788 2.230792 0
M  V30 24 C -4.960767 -4.414007 1.251577 0
M  V30 25 C -5.691366 -5.426936 0.663912 0
M  V30 26 C -5.211567 -6.237156 -0.361394 0
M  V30 27 C -3.917069 -6.007942 -0.817384 0
M  V30 28 C -3.143546 -5.000715 -0.257799 0
M  V30 29 C -3.679566 -4.240567 0.748111 0
M  V30 30 H -1.051967 -2.645744 -1.466873 0
M  V30 31 H -2.215880 -1.470142 -1.783202 0
M  V30 32 H -2.530251 -0.847390 0.374555 0
M  V30 33 H -0.379805 0.032957 -0.459584 0
M  V30 34 H -0.350587 -0.288419 1.277870 0
M  V30 35 H 0.591978 -2.658434 -0.139880 0
M  V30 36 H 2.943005 -3.091728 -0.344431 0
M  V30 37 H 5.043888 2.321083 0.706529 0
M  V30 38 H 2.090671 2.692255 0.923598 0
M  V30 39 H 1.401626 5.011122 1.447846 0
M  V30 40 H 1.934775 7.321888 1.912873 0
M  V30 41 H 6.031131 6.586593 1.565150 0
M  V30 42 H 5.552916 4.252097 1.092186 0
M  V30 43 H 1.566965 0.764934 0.541205 0
M  V30 44 H -1.511696 -2.075333 2.319501 0
M  V30 45 H -1.014744 -3.370499 1.136198 0
M  V30 46 H -3.977022 -1.991628 3.070109 0
M  V30 47 H -6.054872 -3.414629 2.786675 0
M  V30 48 H -6.698897 -5.560235 1.061696 0
M  V30 49 H -5.876649 -7.005210 -0.749072 0
M  V30 50 H -3.608383 -6.667822 -1.608748 0
M  V30 51 H -2.153625 -4.858137 -0.628282 0
M  V30 END ATOM
M  V30 BEGIN BOND
M  V30 1 1 1 2
M  V30 2 1 2 3
M  V30 3 1 3 4
M  V30 4 1 4 5
M  V30 5 2 5 6
M  V30 6 1 6 7
M  V30 7 2 7 8
M  V30 8 1 8 9
M  V30 9 1 8 10
M  V30 10 1 10 11
M  V30 11 2 11 12
M  V30 12 1 12 13
M  V30 13 2 13 14
M  V30 14 1 14 15
M  V30 15 2 15 16
M  V30 16 1 16 17
M  V30 17 2 17 18
M  V30 18 2 10 19
M  V30 19 1 2 20
M  V30 20 1 20 21
M  V30 21 2 21 22
M  V30 22 1 22 23
M  V30 23 1 23 24
M  V30 24 2 24 25
M  V30 25 1 25 26
M  V30 26 2 26 27
M  V30 27 1 27 28
M  V30 28 2 28 29
M  V30 29 1 19 5
M  V30 30 1 29 21
M  V30 31 1 18 13
M  V30 32 1 29 24
M  V30 33 1 1 30
M  V30 34 1 1 31
M  V30 35 1 2 32 CFG=1
M  V30 36 1 3 33
M  V30 37 1 3 34
M  V30 38 1 4 35
M  V30 39 1 6 36
M  V30 40 1 11 37
M  V30 41 1 12 38
M  V30 42 1 14 39
M  V30 43 1 15 40
M  V30 44 1 17 41
M  V30 45 1 18 42
M  V30 46 1 19 43
M  V30 47 1 20 44
M  V30 48 1 20 45
M  V30 49 1 22 46
M  V30 50 1 23 47
M  V30 51 1 25 48
M  V30 52 1 26 49
M  V30 53 1 27 50
M  V30 54 1 28 51
M  V30 END BOND
M  V30 END CTAB
M  END
>  <Dataset>  (683) 
ChEMBL_Kinases

>  <Ligand_Instance>  (683) 
nan

>  <PDB_ID>  (683) 
nan

>  <Standardized_SMILES>  (683) 
N[C@H](CNc1cnc(Cl)c(/C=C/c2ccncc2)c1)Cc1c[nH]c2ccccc12

>  <Name>  (683) 
nan

>  <Pocket>  (683) 
nan

>  <ATP_Site>  (683) 
nan

>  <Peripheral>  (683) 
nan

>  <Num_H_Atoms_ProtBoundConf>  (683) 
nan

>  <Num_Resolved_Atoms>  (683) 
nan

>  <Num_Not_Resolved_Atoms>  (683) 
nan

$$$$
CHEMBL2031469
     RDKit          3D

  0  0  0  0  0  0  0  0  0  0999 V3000
M  V30 BEGIN CTAB
M  V30 COUNTS 61 65 0 0 0
M  V30 BEGIN ATOM
M  V30 1 C -0.057575 0.081277 5.134717 0
M  V30 2 C 1.002539 0.623393 4.252342 0
M  V30 3 C 2.261451 0.970776 4.696841 0
M  V30 4 C 3.193838 1.475070 3.783072 0
M  V30 5 C 2.876255 1.629188 2.454194 0
M  V30 6 C 3.909728 2.161551 1.576651 0
M  V30 7 O 5.020623 2.448731 2.087936 0
M  V30 8 N 3.793925 2.392252 0.193636 0
M  V30 9 C 4.849252 2.920995 -0.625407 0
M  V30 10 C 6.090435 2.034784 -0.611265 0
M  V30 11 C 7.268593 2.539243 -1.470911 0
M  V30 12 C 6.490205 1.327120 -1.854764 0
M  V30 13 C 1.616246 1.280426 2.014874 0
M  V30 14 C 0.675431 0.774840 2.920430 0
M  V30 15 N -0.599089 0.451858 2.327453 0
M  V30 16 C -1.565651 1.392906 2.337851 0
M  V30 17 N -2.781523 1.133086 1.789955 0
M  V30 18 C -3.036171 -0.072626 1.227845 0
M  V30 19 C -4.291494 -0.321876 0.669123 0
M  V30 20 C -4.520952 -1.562536 0.102321 0
M  V30 21 C -3.540613 -2.532694 0.085811 0
M  V30 22 N -3.827491 -3.782844 -0.507029 0
M  V30 23 C -5.116173 -4.067951 -1.115508 0
M  V30 24 C -4.991727 -5.183708 -2.124315 0
M  V30 25 N -3.762397 -5.131133 -2.891317 0
M  V30 26 C -3.662175 -3.906837 -3.661032 0
M  V30 27 C -2.591599 -5.223603 -2.055291 0
M  V30 28 C -2.951595 -4.900962 -0.598565 0
M  V30 29 C -2.291407 -2.316175 0.629553 0
M  V30 30 C -2.068952 -1.063238 1.198524 0
M  V30 31 C -0.830525 -0.761515 1.770975 0
M  V30 32 O 0.061604 -1.635602 1.759413 0
M  V30 33 H 0.362778 0.128540 6.178184 0
M  V30 34 H -0.986409 0.660649 5.124580 0
M  V30 35 H -0.252097 -1.002754 4.916431 0
M  V30 36 H 2.504268 0.845984 5.747395 0
M  V30 37 H 4.150140 1.717931 4.227018 0
M  V30 38 H 2.850971 2.146756 -0.233290 0
M  V30 39 H 4.511060 2.965532 -1.669074 0
M  V30 40 H 5.148726 3.957038 -0.299796 0
M  V30 41 H 6.388538 1.595428 0.372039 0
M  V30 42 H 7.121471 3.473777 -2.013712 0
M  V30 43 H 8.285768 2.397821 -1.046529 0
M  V30 44 H 7.036434 0.365837 -1.779664 0
M  V30 45 H 5.798961 1.369072 -2.724343 0
M  V30 46 H 1.377491 1.406776 0.963171 0
M  V30 47 H -1.348948 2.356150 2.791620 0
M  V30 48 H -5.010458 0.480252 0.716474 0
M  V30 49 H -5.502503 -1.663319 -0.297726 0
M  V30 50 H -5.864452 -4.398981 -0.377825 0
M  V30 51 H -5.532060 -3.194922 -1.639267 0
M  V30 52 H -5.829703 -5.076106 -2.842171 0
M  V30 53 H -5.141668 -6.166551 -1.642934 0
M  V30 54 H -2.572987 -3.722526 -3.833462 0
M  V30 55 H -3.998179 -3.076609 -2.979917 0
M  V30 56 H -4.237285 -3.948892 -4.605795 0
M  V30 57 H -1.800431 -4.528828 -2.402288 0
M  V30 58 H -2.132739 -6.244184 -2.045127 0
M  V30 59 H -3.472323 -5.815145 -0.243498 0
M  V30 60 H -2.005877 -4.849573 -0.072812 0
M  V30 61 H -1.499316 -3.013966 0.649635 0
M  V30 END ATOM
M  V30 BEGIN BOND
M  V30 1 1 1 2
M  V30 2 2 2 3
M  V30 3 1 3 4
M  V30 4 2 4 5
M  V30 5 1 5 6
M  V30 6 2 6 7
M  V30 7 1 6 8
M  V30 8 1 8 9
M  V30 9 1 9 10
M  V30 10 1 10 11
M  V30 11 1 11 12
M  V30 12 1 5 13
M  V30 13 2 13 14
M  V30 14 1 14 15
M  V30 15 1 15 16
M  V30 16 2 16 17
M  V30 17 1 17 18
M  V30 18 2 18 19
M  V30 19 1 19 20
M  V30 20 2 20 21
M  V30 21 1 21 22
M  V30 22 1 22 23
M  V30 23 1 23 24
M  V30 24 1 24 25
M  V30 25 1 25 26
M  V30 26 1 25 27
M  V30 27 1 27 28
M  V30 28 1 21 29
M  V30 29 2 29 30
M  V30 30 1 30 31
M  V30 31 2 31 32
M  V30 32 1 14 2
M  V30 33 1 31 15
M  V30 34 1 12 10
M  V30 35 1 30 18
M  V30 36 1 28 22
M  V30 37 1 1 33
M  V30 38 1 1 34
M  V30 39 1 1 35
M  V30 40 1 3 36
M  V30 41 1 4 37
M  V30 42 1 8 38
M  V30 43 1 9 39
M  V30 44 1 9 40
M  V30 45 1 10 41
M  V30 46 1 11 42
M  V30 47 1 11 43
M  V30 48 1 12 44
M  V30 49 1 12 45
M  V30 50 1 13 46
M  V30 51 1 16 47
M  V30 52 1 19 48
M  V30 53 1 20 49
M  V30 54 1 23 50
M  V30 55 1 23 51
M  V30 56 1 24 52
M  V30 57 1 24 53
M  V30 58 1 26 54
M  V30 59 1 26 55
M  V30 60 1 26 56
M  V30 61 1 27 57
M  V30 62 1 27 58
M  V30 63 1 28 59
M  V30 64 1 28 60
M  V30 65 1 29 61
M  V30 END BOND
M  V30 END CTAB
M  END
>  <Dataset>  (684) 
ChEMBL_Kinases

>  <Ligand_Instance>  (684) 
nan

>  <PDB_ID>  (684) 
nan

>  <Standardized_SMILES>  (684) 
Cc1ccc(C(=O)NCC2CC2)cc1-n1cnc2ccc(N3CCN(C)CC3)cc2c1=O

>  <Name>  (684) 
nan

>  <Pocket>  (684) 
nan

>  <ATP_Site>  (684) 
nan

>  <Peripheral>  (684) 
nan

>  <Num_H_Atoms_ProtBoundConf>  (684) 
nan

>  <Num_Resolved_Atoms>  (684) 
nan

>  <Num_Not_Resolved_Atoms>  (684) 
nan

$$$$
CHEMBL203210
     RDKit          3D

  0  0  0  0  0  0  0  0  0  0999 V3000
M  V30 BEGIN CTAB
M  V30 COUNTS 56 59 0 0 0
M  V30 BEGIN ATOM
M  V30 1 C 2.910045 -0.606239 3.204465 0
M  V30 2 O 1.678433 -0.293748 2.613827 0
M  V30 3 C 1.572347 0.766792 1.749079 0
M  V30 4 C 2.673789 1.504545 1.486778 0
M  V30 5 C 2.570356 2.573112 0.632481 0
M  V30 6 C 1.350892 2.864963 0.067018 0
M  V30 7 C 1.283665 4.030380 -0.841348 0
M  V30 8 C 1.584931 3.729868 -2.268101 0
M  V30 9 C 0.695361 2.736919 -2.935548 0
M  V30 10 C 1.120226 2.534933 -4.390490 0
M  V30 11 C -0.748132 3.080895 -2.910279 0
M  V30 12 N 0.862082 1.434102 -2.268438 0
M  V30 13 C 0.295597 2.044348 0.404794 0
M  V30 14 C 0.310571 0.943406 1.257007 0
M  V30 15 C -0.934753 0.227700 1.329644 0
M  V30 16 N -2.150585 0.825131 1.117700 0
M  V30 17 N -3.130154 -0.032897 1.194073 0
M  V30 18 C -2.678455 -1.269514 1.458108 0
M  V30 19 N -3.229421 -2.481082 1.613878 0
M  V30 20 C -2.495733 -3.581181 1.850806 0
M  V30 21 N -3.136332 -4.836724 2.007945 0
M  V30 22 C -2.545370 -6.100865 2.259000 0
M  V30 23 C -1.209707 -6.359662 2.399913 0
M  V30 24 C -0.635405 -7.587454 2.643378 0
M  V30 25 C -1.485301 -8.670473 2.758097 0
M  V30 26 F -0.970342 -9.899907 2.997373 0
M  V30 27 C -2.841021 -8.476144 2.626362 0
M  V30 28 C -3.338210 -7.218578 2.383688 0
M  V30 29 F -4.703053 -7.117300 2.266662 0
M  V30 30 N -1.170565 -3.384314 1.920275 0
M  V30 31 C -0.582440 -2.191321 1.771150 0
M  V30 32 C -1.324767 -1.069133 1.533036 0
M  V30 33 H 3.332944 0.272034 3.774447 0
M  V30 34 H 2.823637 -1.422466 3.938573 0
M  V30 35 H 3.631994 -0.879257 2.391706 0
M  V30 36 H 3.595671 1.241305 1.947447 0
M  V30 37 H 3.464012 3.145793 0.438908 0
M  V30 38 H 2.020775 4.819767 -0.525578 0
M  V30 39 H 0.296670 4.517111 -0.688352 0
M  V30 40 H 2.641175 3.328433 -2.287800 0
M  V30 41 H 1.630488 4.635727 -2.905347 0
M  V30 42 H 1.651161 3.440077 -4.708294 0
M  V30 43 H 1.743610 1.622724 -4.492713 0
M  V30 44 H 0.216999 2.378077 -5.004881 0
M  V30 45 H -0.917138 4.115662 -2.523278 0
M  V30 46 H -1.141842 3.101322 -3.943198 0
M  V30 47 H -1.386250 2.339442 -2.375778 0
M  V30 48 H 1.735934 1.010485 -2.639120 0
M  V30 49 H 0.012107 0.869939 -2.549570 0
M  V30 50 H -0.608284 2.380711 -0.102610 0
M  V30 51 H -2.417354 1.827580 0.910338 0
M  V30 52 H -4.185148 -4.831775 1.928345 0
M  V30 53 H -0.497328 -5.557538 2.320808 0
M  V30 54 H 0.416803 -7.734372 2.745146 0
M  V30 55 H -3.509000 -9.323335 2.715819 0
M  V30 56 H 0.473318 -2.223864 1.825493 0
M  V30 END ATOM
M  V30 BEGIN BOND
M  V30 1 1 1 2
M  V30 2 1 2 3
M  V30 3 2 3 4
M  V30 4 1 4 5
M  V30 5 2 5 6
M  V30 6 1 6 7
M  V30 7 1 7 8
M  V30 8 1 8 9
M  V30 9 1 9 10
M  V30 10 1 9 11
M  V30 11 1 9 12
M  V30 12 1 6 13
M  V30 13 2 13 14
M  V30 14 1 14 15
M  V30 15 1 15 16
M  V30 16 1 16 17
M  V30 17 2 17 18
M  V30 18 1 18 19
M  V30 19 2 19 20
M  V30 20 1 20 21
M  V30 21 1 21 22
M  V30 22 2 22 23
M  V30 23 1 23 24
M  V30 24 2 24 25
M  V30 25 1 25 26
M  V30 26 1 25 27
M  V30 27 2 27 28
M  V30 28 1 28 29
M  V30 29 1 20 30
M  V30 30 2 30 31
M  V30 31 1 31 32
M  V30 32 1 14 3
M  V30 33 2 32 15
M  V30 34 1 32 18
M  V30 35 1 28 22
M  V30 36 1 1 33
M  V30 37 1 1 34
M  V30 38 1 1 35
M  V30 39 1 4 36
M  V30 40 1 5 37
M  V30 41 1 7 38
M  V30 42 1 7 39
M  V30 43 1 8 40
M  V30 44 1 8 41
M  V30 45 1 10 42
M  V30 46 1 10 43
M  V30 47 1 10 44
M  V30 48 1 11 45
M  V30 49 1 11 46
M  V30 50 1 11 47
M  V30 51 1 12 48
M  V30 52 1 12 49
M  V30 53 1 13 50
M  V30 54 1 16 51
M  V30 55 1 21 52
M  V30 56 1 23 53
M  V30 57 1 24 54
M  V30 58 1 27 55
M  V30 59 1 31 56
M  V30 END BOND
M  V30 END CTAB
M  END
>  <Dataset>  (685) 
ChEMBL_Kinases

>  <Ligand_Instance>  (685) 
nan

>  <PDB_ID>  (685) 
nan

>  <Standardized_SMILES>  (685) 
COc1ccc(CCC(C)(C)N)cc1-c1[nH]nc2nc(Nc3ccc(F)cc3F)ncc12

>  <Name>  (685) 
nan

>  <Pocket>  (685) 
nan

>  <ATP_Site>  (685) 
nan

>  <Peripheral>  (685) 
nan

>  <Num_H_Atoms_ProtBoundConf>  (685) 
nan

>  <Num_Resolved_Atoms>  (685) 
nan

>  <Num_Not_Resolved_Atoms>  (685) 
nan

$$$$
CHEMBL203214
     RDKit          3D

  0  0  0  0  0  0  0  0  0  0999 V3000
M  V30 BEGIN CTAB
M  V30 COUNTS 41 45 0 0 0
M  V30 BEGIN ATOM
M  V30 1 C 0.282954 -5.953380 0.165003 0
M  V30 2 N 1.168820 -4.800045 0.151794 0
M  V30 3 C 2.483479 -4.751515 -0.207169 0
M  V30 4 N 2.884424 -3.455907 -0.056437 0
M  V30 5 C 1.839591 -2.730773 0.384119 0
M  V30 6 C 1.703598 -1.393351 0.693693 0
M  V30 7 C 0.501819 -0.883548 1.133917 0
M  V30 8 C 0.198219 0.498416 1.494946 0
M  V30 9 C 0.190617 1.531938 0.613216 0
M  V30 10 C 0.438141 1.636029 -0.795865 0
M  V30 11 C 1.558588 1.420118 -1.536956 0
M  V30 12 C 1.623506 1.565605 -2.905877 0
M  V30 13 C 0.450914 1.957847 -3.524370 0
M  V30 14 C -0.709615 2.187512 -2.806160 0
M  V30 15 N -0.690398 2.022274 -1.464423 0
M  V30 16 N -0.135729 2.607247 1.377299 0
M  V30 17 N -0.316729 2.273472 2.631078 0
M  V30 18 C -0.119913 0.959726 2.762816 0
M  V30 19 C -0.321122 0.545218 4.195442 0
M  V30 20 C -0.942694 1.758366 4.828379 0
M  V30 21 C -0.657989 2.892834 3.882910 0
M  V30 22 C -0.619214 -1.711019 1.280555 0
M  V30 23 C -0.433931 -3.060379 0.954795 0
M  V30 24 C 0.755830 -3.573271 0.517000 0
M  V30 25 H 0.039753 -6.257980 1.211799 0
M  V30 26 H -0.679579 -5.740800 -0.334940 0
M  V30 27 H 0.764571 -6.841424 -0.294490 0
M  V30 28 H 3.079797 -5.592892 -0.545288 0
M  V30 29 H 2.503320 -0.682045 0.616570 0
M  V30 30 H 2.409946 1.120287 -0.941899 0
M  V30 31 H 2.556258 1.368578 -3.380669 0
M  V30 32 H 0.528812 2.067188 -4.618085 0
M  V30 33 H -1.593692 2.492972 -3.351779 0
M  V30 34 H -1.012979 -0.316809 4.228649 0
M  V30 35 H 0.623369 0.222572 4.669583 0
M  V30 36 H -0.438866 1.983119 5.789334 0
M  V30 37 H -2.017984 1.593645 5.004856 0
M  V30 38 H -1.581449 3.516897 3.773750 0
M  V30 39 H 0.125672 3.573964 4.284356 0
M  V30 40 H -1.597159 -1.404399 1.617185 0
M  V30 41 H -1.290121 -3.742336 1.056446 0
M  V30 END ATOM
M  V30 BEGIN BOND
M  V30 1 1 1 2
M  V30 2 1 2 3
M  V30 3 2 3 4
M  V30 4 1 4 5
M  V30 5 2 5 6
M  V30 6 1 6 7
M  V30 7 1 7 8
M  V30 8 1 8 9
M  V30 9 1 9 10
M  V30 10 2 10 11
M  V30 11 1 11 12
M  V30 12 2 12 13
M  V30 13 1 13 14
M  V30 14 2 14 15
M  V30 15 2 9 16
M  V30 16 1 16 17
M  V30 17 1 17 18
M  V30 18 1 18 19
M  V30 19 1 19 20
M  V30 20 1 20 21
M  V30 21 2 7 22
M  V30 22 1 22 23
M  V30 23 2 23 24
M  V30 24 1 24 2
M  V30 25 1 24 5
M  V30 26 2 18 8
M  V30 27 1 15 10
M  V30 28 1 21 17
M  V30 29 1 1 25
M  V30 30 1 1 26
M  V30 31 1 1 27
M  V30 32 1 3 28
M  V30 33 1 6 29
M  V30 34 1 11 30
M  V30 35 1 12 31
M  V30 36 1 13 32
M  V30 37 1 14 33
M  V30 38 1 19 34
M  V30 39 1 19 35
M  V30 40 1 20 36
M  V30 41 1 20 37
M  V30 42 1 21 38
M  V30 43 1 21 39
M  V30 44 1 22 40
M  V30 45 1 23 41
M  V30 END BOND
M  V30 END CTAB
M  END
>  <Dataset>  (686) 
ChEMBL_Kinases

>  <Ligand_Instance>  (686) 
nan

>  <PDB_ID>  (686) 
nan

>  <Standardized_SMILES>  (686) 
Cn1cnc2cc(-c3c(-c4ccccn4)nn4c3CCC4)ccc21

>  <Name>  (686) 
nan

>  <Pocket>  (686) 
nan

>  <ATP_Site>  (686) 
nan

>  <Peripheral>  (686) 
nan

>  <Num_H_Atoms_ProtBoundConf>  (686) 
nan

>  <Num_Resolved_Atoms>  (686) 
nan

>  <Num_Not_Resolved_Atoms>  (686) 
nan

$$$$
CHEMBL2032368
     RDKit          3D

  0  0  0  0  0  0  0  0  0  0999 V3000
M  V30 BEGIN CTAB
M  V30 COUNTS 44 47 0 0 0
M  V30 BEGIN ATOM
M  V30 1 F 0.837619 -4.493760 3.315949 0
M  V30 2 C 0.497044 -5.037022 2.083601 0
M  V30 3 F -0.831485 -5.396651 2.154771 0
M  V30 4 F 1.263552 -6.163125 1.873684 0
M  V30 5 C 0.716683 -3.994938 1.043633 0
M  V30 6 C 1.924805 -3.343851 1.087312 0
M  V30 7 C 2.186402 -2.373198 0.155572 0
M  V30 8 C 1.229124 -2.087263 -0.788655 0
M  V30 9 C 1.495962 -1.049837 -1.792629 0
M  V30 10 N 2.056426 -1.179287 -3.006448 0
M  V30 11 N 2.115330 0.004308 -3.598170 0
M  V30 12 C 1.585498 0.896402 -2.749102 0
M  V30 13 C 1.365080 2.256541 -2.779330 0
M  V30 14 C 0.778582 2.874568 -1.696224 0
M  V30 15 C 0.379845 2.200418 -0.535596 0
M  V30 16 N -0.219956 2.854688 0.562949 0
M  V30 17 C -0.597495 2.077875 1.716558 0
M  V30 18 C -1.601398 0.995791 1.393510 0
M  V30 19 C -1.162556 -0.322420 1.978891 0
M  V30 20 C -0.894048 -0.130827 3.440047 0
M  V30 21 C 0.353782 0.710859 3.589739 0
M  V30 22 C 0.634837 1.542903 2.371726 0
M  V30 23 N 0.631568 0.879720 -0.591267 0
M  V30 24 N 1.192494 0.270190 -1.619984 0
M  V30 25 C -0.008282 -2.727254 -0.863886 0
M  V30 26 C -0.243176 -3.703574 0.091573 0
M  V30 27 H 2.668965 -3.562327 1.817019 0
M  V30 28 H 3.110716 -1.819977 0.126524 0
M  V30 29 H 1.657645 2.808331 -3.653002 0
M  V30 30 H 0.619545 3.950971 -1.754828 0
M  V30 31 H -0.357725 3.882666 0.474067 0
M  V30 32 H -1.094834 2.734434 2.489730 0
M  V30 33 H -1.716920 0.914980 0.292118 0
M  V30 34 H -2.607395 1.206583 1.810718 0
M  V30 35 H -0.239557 -0.731995 1.533868 0
M  V30 36 H -2.011697 -1.030633 1.885278 0
M  V30 37 H -0.719881 -1.117646 3.932475 0
M  V30 38 H -1.720344 0.343763 3.978054 0
M  V30 39 H 1.222383 0.039026 3.750725 0
M  V30 40 H 0.282494 1.360968 4.487182 0
M  V30 41 H 1.338214 1.048215 1.674281 0
M  V30 42 H 1.205119 2.446178 2.739473 0
M  V30 43 H -0.739902 -2.475701 -1.623008 0
M  V30 44 H -1.185175 -4.229915 0.078691 0
M  V30 END ATOM
M  V30 BEGIN BOND
M  V30 1 1 1 2
M  V30 2 1 2 3
M  V30 3 1 2 4
M  V30 4 1 2 5
M  V30 5 2 5 6
M  V30 6 1 6 7
M  V30 7 2 7 8
M  V30 8 1 8 9
M  V30 9 2 9 10
M  V30 10 1 10 11
M  V30 11 2 11 12
M  V30 12 1 12 13
M  V30 13 2 13 14
M  V30 14 1 14 15
M  V30 15 1 15 16
M  V30 16 1 16 17
M  V30 17 1 17 18
M  V30 18 1 18 19
M  V30 19 1 19 20
M  V30 20 1 20 21
M  V30 21 1 21 22
M  V30 22 2 15 23
M  V30 23 1 23 24
M  V30 24 1 8 25
M  V30 25 2 25 26
M  V30 26 1 26 5
M  V30 27 1 24 9
M  V30 28 1 24 12
M  V30 29 1 22 17
M  V30 30 1 6 27
M  V30 31 1 7 28
M  V30 32 1 13 29
M  V30 33 1 14 30
M  V30 34 1 16 31
M  V30 35 1 17 32
M  V30 36 1 18 33
M  V30 37 1 18 34
M  V30 38 1 19 35
M  V30 39 1 19 36
M  V30 40 1 20 37
M  V30 41 1 20 38
M  V30 42 1 21 39
M  V30 43 1 21 40
M  V30 44 1 22 41
M  V30 45 1 22 42
M  V30 46 1 25 43
M  V30 47 1 26 44
M  V30 END BOND
M  V30 END CTAB
M  END
>  <Dataset>  (687) 
ChEMBL_Kinases

>  <Ligand_Instance>  (687) 
nan

>  <PDB_ID>  (687) 
nan

>  <Standardized_SMILES>  (687) 
FC(F)(F)c1ccc(-c2nnc3ccc(NC4CCCCC4)nn23)cc1

>  <Name>  (687) 
nan

>  <Pocket>  (687) 
nan

>  <ATP_Site>  (687) 
nan

>  <Peripheral>  (687) 
nan

>  <Num_H_Atoms_ProtBoundConf>  (687) 
nan

>  <Num_Resolved_Atoms>  (687) 
nan

>  <Num_Not_Resolved_Atoms>  (687) 
nan

$$$$
CHEMBL2032369
     RDKit          3D

  0  0  0  0  0  0  0  0  0  0999 V3000
M  V30 BEGIN CTAB
M  V30 COUNTS 37 40 0 0 0
M  V30 BEGIN ATOM
M  V30 1 N 0.015657 -4.292165 3.500305 0
M  V30 2 C -0.054248 -4.629407 2.104035 0
M  V30 3 C -0.180963 -5.928118 1.679014 0
M  V30 4 N -0.239514 -6.161877 0.360006 0
M  V30 5 C -0.175166 -5.146545 -0.514600 0
M  V30 6 C -0.048337 -3.830550 -0.138585 0
M  V30 7 C 0.025578 -2.694852 -1.049272 0
M  V30 8 C -0.027634 -2.853060 -2.414084 0
M  V30 9 C 0.042120 -1.780090 -3.276501 0
M  V30 10 C 0.168457 -0.532285 -2.707842 0
M  V30 11 N 0.266259 0.726916 -3.164861 0
M  V30 12 O 0.367544 1.560554 -2.197667 0
M  V30 13 C 0.349761 0.973633 -1.018464 0
M  V30 14 C 0.452336 1.742252 0.192799 0
M  V30 15 C 0.569582 3.117972 0.066042 0
M  V30 16 C 0.677083 3.994472 1.118956 0
M  V30 17 C 0.673523 3.528603 2.410918 0
M  V30 18 C 0.787587 4.448588 3.558673 0
M  V30 19 F 1.814190 5.370806 3.319748 0
M  V30 20 F -0.376043 5.139557 3.814346 0
M  V30 21 F 1.135732 3.772732 4.710338 0
M  V30 22 C 0.559853 2.172550 2.601374 0
M  V30 23 C 0.457216 1.368773 1.495749 0
M  V30 24 C 0.223827 -0.348706 -1.345707 0
M  V30 25 C 0.152061 -1.426927 -0.537168 0
M  V30 26 N 0.006459 -3.647805 1.206252 0
M  V30 27 H -0.362012 -3.388985 3.848979 0
M  V30 28 H 0.425017 -4.877525 4.262299 0
M  V30 29 H -0.232431 -6.742820 2.386456 0
M  V30 30 H -0.224128 -5.357188 -1.571203 0
M  V30 31 H -0.126472 -3.822487 -2.879555 0
M  V30 32 H 0.003308 -1.867136 -4.358973 0
M  V30 33 H 0.588833 3.650619 -0.886567 0
M  V30 34 H 0.767615 5.062078 1.004830 0
M  V30 35 H 0.553494 1.771088 3.601069 0
M  V30 36 H 0.373225 0.333404 1.736969 0
M  V30 37 H 0.188280 -1.362494 0.524864 0
M  V30 END ATOM
M  V30 BEGIN BOND
M  V30 1 1 1 2
M  V30 2 2 2 3
M  V30 3 1 3 4
M  V30 4 2 4 5
M  V30 5 1 5 6
M  V30 6 1 6 7
M  V30 7 1 7 8
M  V30 8 2 8 9
M  V30 9 1 9 10
M  V30 10 2 10 11
M  V30 11 1 11 12
M  V30 12 1 12 13
M  V30 13 1 13 14
M  V30 14 2 14 15
M  V30 15 1 15 16
M  V30 16 2 16 17
M  V30 17 1 17 18
M  V30 18 1 18 19
M  V30 19 1 18 20
M  V30 20 1 18 21
M  V30 21 1 17 22
M  V30 22 2 22 23
M  V30 23 2 13 24
M  V30 24 1 24 25
M  V30 25 2 6 26
M  V30 26 1 26 2
M  V30 27 2 25 7
M  V30 28 1 24 10
M  V30 29 1 23 14
M  V30 30 1 1 27
M  V30 31 1 1 28
M  V30 32 1 3 29
M  V30 33 1 5 30
M  V30 34 1 8 31
M  V30 35 1 9 32
M  V30 36 1 15 33
M  V30 37 1 16 34
M  V30 38 1 22 35
M  V30 39 1 23 36
M  V30 40 1 25 37
M  V30 END BOND
M  V30 END CTAB
M  END
>  <Dataset>  (688) 
ChEMBL_Kinases

>  <Ligand_Instance>  (688) 
nan

>  <PDB_ID>  (688) 
nan

>  <Standardized_SMILES>  (688) 
Nc1cncc(-c2ccc3noc(-c4ccc(C(F)(F)F)cc4)c3c2)n1

>  <Name>  (688) 
nan

>  <Pocket>  (688) 
nan

>  <ATP_Site>  (688) 
nan

>  <Peripheral>  (688) 
nan

>  <Num_H_Atoms_ProtBoundConf>  (688) 
nan

>  <Num_Resolved_Atoms>  (688) 
nan

>  <Num_Not_Resolved_Atoms>  (688) 
nan

$$$$
CHEMBL2032370
     RDKit          3D

  0  0  0  0  0  0  0  0  0  0999 V3000
M  V30 BEGIN CTAB
M  V30 COUNTS 18 19 0 0 0
M  V30 BEGIN ATOM
M  V30 1 N 0.622255 -2.457376 4.040165 0
M  V30 2 C 0.697901 -1.366034 3.634502 0
M  V30 3 C 0.792760 0.001117 3.128021 0
M  V30 4 C 2.014467 0.215426 2.335917 0
M  V30 5 O 3.130051 0.303199 2.914521 0
M  V30 6 C 1.748386 0.301432 0.907798 0
M  V30 7 C 2.552016 0.389055 -0.211047 0
M  V30 8 C 1.923321 0.455298 -1.443472 0
M  V30 9 C 0.546517 0.437665 -1.598317 0
M  V30 10 C -0.195732 0.348772 -0.440480 0
M  V30 11 C 0.370183 0.279804 0.814962 0
M  V30 12 C -0.269158 0.183413 2.122337 0
M  V30 13 O -1.501258 0.241620 2.378010 0
M  V30 14 H 0.713782 0.733938 3.961651 0
M  V30 15 H 3.621763 0.402403 -0.085673 0
M  V30 16 H 2.551790 0.524238 -2.325116 0
M  V30 17 H 0.137801 0.493479 -2.598934 0
M  V30 18 H -1.268869 0.335944 -0.575388 0
M  V30 END ATOM
M  V30 BEGIN BOND
M  V30 1 3 1 2
M  V30 2 1 2 3
M  V30 3 1 3 4
M  V30 4 2 4 5
M  V30 5 1 4 6
M  V30 6 2 6 7
M  V30 7 1 7 8
M  V30 8 2 8 9
M  V30 9 1 9 10
M  V30 10 2 10 11
M  V30 11 1 11 12
M  V30 12 2 12 13
M  V30 13 1 12 3
M  V30 14 1 11 6
M  V30 15 1 3 14
M  V30 16 1 7 15
M  V30 17 1 8 16
M  V30 18 1 9 17
M  V30 19 1 10 18
M  V30 END BOND
M  V30 END CTAB
M  END
>  <Dataset>  (689) 
ChEMBL_Kinases

>  <Ligand_Instance>  (689) 
nan

>  <PDB_ID>  (689) 
nan

>  <Standardized_SMILES>  (689) 
N#CC1C(=O)c2ccccc2C1=O

>  <Name>  (689) 
nan

>  <Pocket>  (689) 
nan

>  <ATP_Site>  (689) 
nan

>  <Peripheral>  (689) 
nan

>  <Num_H_Atoms_ProtBoundConf>  (689) 
nan

>  <Num_Resolved_Atoms>  (689) 
nan

>  <Num_Not_Resolved_Atoms>  (689) 
nan

$$$$
CHEMBL2032371
     RDKit          3D

  0  0  0  0  0  0  0  0  0  0999 V3000
M  V30 BEGIN CTAB
M  V30 COUNTS 22 23 0 0 0
M  V30 BEGIN ATOM
M  V30 1 N 1.208147 0.980878 4.472082 0
M  V30 2 C 1.653051 -0.145693 3.725336 0
M  V30 3 O 2.413482 -0.967388 4.333964 0
M  V30 4 C 1.258345 -0.349401 2.333246 0
M  V30 5 C 1.732656 -1.466461 1.680410 0
M  V30 6 C 1.332787 -1.623446 0.354404 0
M  V30 7 C 0.509796 -0.681374 -0.214081 0
M  V30 8 C 0.116638 -0.850482 -1.543029 0
M  V30 9 C -0.716378 0.096751 -2.129229 0
M  V30 10 C -1.169219 1.202953 -1.438124 0
M  V30 11 C -0.783863 1.380272 -0.115787 0
M  V30 12 O -1.158291 2.438916 0.701555 0
M  V30 13 C 0.045273 0.431252 0.457081 0
M  V30 14 N 0.451593 0.557829 1.748216 0
M  V30 15 H 1.517959 1.898549 4.866459 0
M  V30 16 H 0.209389 0.708937 4.643797 0
M  V30 17 H 2.383250 -2.153710 2.227945 0
M  V30 18 H 1.693222 -2.484185 -0.161971 0
M  V30 19 H 0.469096 -1.714918 -2.086814 0
M  V30 20 H -1.031214 -0.023071 -3.166808 0
M  V30 21 H -1.816805 1.964969 -1.850053 0
M  V30 22 H -1.432389 2.291242 1.677659 0
M  V30 END ATOM
M  V30 BEGIN BOND
M  V30 1 1 1 2
M  V30 2 2 2 3
M  V30 3 1 2 4
M  V30 4 2 4 5
M  V30 5 1 5 6
M  V30 6 2 6 7
M  V30 7 1 7 8
M  V30 8 2 8 9
M  V30 9 1 9 10
M  V30 10 2 10 11
M  V30 11 1 11 12
M  V30 12 1 11 13
M  V30 13 2 13 14
M  V30 14 1 14 4
M  V30 15 1 13 7
M  V30 16 1 1 15
M  V30 17 1 1 16
M  V30 18 1 5 17
M  V30 19 1 6 18
M  V30 20 1 8 19
M  V30 21 1 9 20
M  V30 22 1 10 21
M  V30 23 1 12 22
M  V30 END BOND
M  V30 END CTAB
M  END
>  <Dataset>  (690) 
ChEMBL_Kinases

>  <Ligand_Instance>  (690) 
nan

>  <PDB_ID>  (690) 
nan

>  <Standardized_SMILES>  (690) 
NC(=O)c1ccc2cccc(O)c2n1

>  <Name>  (690) 
nan

>  <Pocket>  (690) 
nan

>  <ATP_Site>  (690) 
nan

>  <Peripheral>  (690) 
nan

>  <Num_H_Atoms_ProtBoundConf>  (690) 
nan

>  <Num_Resolved_Atoms>  (690) 
nan

>  <Num_Not_Resolved_Atoms>  (690) 
nan

$$$$
CHEMBL2032372
     RDKit          3D

  0  0  0  0  0  0  0  0  0  0999 V3000
M  V30 BEGIN CTAB
M  V30 COUNTS 18 19 0 0 0
M  V30 BEGIN ATOM
M  V30 1 O -0.534080 -2.121485 3.628722 0
M  V30 2 C 0.078950 -1.309485 2.900548 0
M  V30 3 C 0.971604 -0.368609 3.389716 0
M  V30 4 C 1.555820 0.447612 2.423808 0
M  V30 5 O 2.451881 1.394697 2.898042 0
M  V30 6 C 1.203719 0.249854 1.118556 0
M  V30 7 C 1.807003 1.083718 0.178869 0
M  V30 8 C 1.552686 1.005383 -1.177730 0
M  V30 9 Br 2.396187 2.162276 -2.433776 0
M  V30 10 C 0.645255 0.027934 -1.540277 0
M  V30 11 C 0.027289 -0.815489 -0.646592 0
M  V30 12 C 0.310287 -0.702903 0.699937 0
M  V30 13 O -0.220587 -1.454048 1.638282 0
M  V30 14 H 1.165365 -0.310250 4.431845 0
M  V30 15 H 2.516744 2.325032 2.505339 0
M  V30 16 H 2.517081 1.843097 0.497810 0
M  V30 17 H 0.423453 -0.058914 -2.604598 0
M  V30 18 H -0.680681 -1.575027 -0.949045 0
M  V30 END ATOM
M  V30 BEGIN BOND
M  V30 1 2 1 2
M  V30 2 1 2 3
M  V30 3 2 3 4
M  V30 4 1 4 5
M  V30 5 1 4 6
M  V30 6 2 6 7
M  V30 7 1 7 8
M  V30 8 1 8 9
M  V30 9 2 8 10
M  V30 10 1 10 11
M  V30 11 2 11 12
M  V30 12 1 12 13
M  V30 13 1 13 2
M  V30 14 1 12 6
M  V30 15 1 3 14
M  V30 16 1 5 15
M  V30 17 1 7 16
M  V30 18 1 10 17
M  V30 19 1 11 18
M  V30 END BOND
M  V30 END CTAB
M  END
>  <Dataset>  (691) 
ChEMBL_Kinases

>  <Ligand_Instance>  (691) 
nan

>  <PDB_ID>  (691) 
nan

>  <Standardized_SMILES>  (691) 
O=c1cc(O)c2cc(Br)ccc2o1

>  <Name>  (691) 
nan

>  <Pocket>  (691) 
nan

>  <ATP_Site>  (691) 
nan

>  <Peripheral>  (691) 
nan

>  <Num_H_Atoms_ProtBoundConf>  (691) 
nan

>  <Num_Resolved_Atoms>  (691) 
nan

>  <Num_Not_Resolved_Atoms>  (691) 
nan

$$$$
CHEMBL203344
     RDKit          3D

  0  0  0  0  0  0  0  0  0  0999 V3000
M  V30 BEGIN CTAB
M  V30 COUNTS 42 45 0 0 0
M  V30 BEGIN ATOM
M  V30 1 N 1.182417 -3.535966 1.163178 0
M  V30 2 C -0.050501 -2.832034 1.111679 0
M  V30 3 C -0.337151 -1.539346 0.753857 0
M  V30 4 C 0.647408 -0.563486 0.338617 0
M  V30 5 O 1.851966 -0.998156 0.415696 0
M  V30 6 C 0.531654 0.793250 -0.140746 0
M  V30 7 C -0.564099 1.343961 -0.760124 0
M  V30 8 C -0.679160 2.651482 -1.196258 0
M  V30 9 C 0.403433 3.480910 -0.993327 0
M  V30 10 C 1.529127 2.981399 -0.377586 0
M  V30 11 C 2.635989 3.910000 -0.189683 0
M  V30 12 C 2.407910 5.251795 0.022293 0
M  V30 13 C 3.465320 6.117402 0.198405 0
M  V30 14 N 4.742499 5.641578 0.162552 0
M  V30 15 C 4.918335 4.330227 -0.046133 0
M  V30 16 C 3.921205 3.373867 -0.235410 0
M  V30 17 C 1.577688 1.673932 0.031326 0
M  V30 18 C -1.694943 -1.373394 0.885061 0
M  V30 19 N -2.194876 -2.532127 1.306653 0
M  V30 20 N -1.207079 -3.433466 1.450850 0
M  V30 21 C -1.504397 -4.749728 1.891411 0
M  V30 22 C -2.656711 -5.039720 2.595306 0
M  V30 23 C -2.946827 -6.293645 3.014030 0
M  V30 24 C -2.118123 -7.358448 2.769724 0
M  V30 25 F -2.493110 -8.573102 3.228151 0
M  V30 26 C -0.955451 -7.114885 2.069697 0
M  V30 27 C -0.675761 -5.824511 1.649081 0
M  V30 28 H 1.601546 -3.719450 0.204368 0
M  V30 29 H 1.593347 -3.822919 2.083827 0
M  V30 30 H -1.436405 0.745008 -0.961207 0
M  V30 31 H -1.568987 3.030092 -1.675965 0
M  V30 32 H 0.346217 4.507515 -1.323505 0
M  V30 33 H 1.407099 5.671536 0.057977 0
M  V30 34 H 3.262556 7.162107 0.362916 0
M  V30 35 H 5.953816 4.042863 -0.059100 0
M  V30 36 H 4.125961 2.339528 -0.398552 0
M  V30 37 H 2.506664 1.399296 0.497420 0
M  V30 38 H -2.342691 -0.536501 0.722656 0
M  V30 39 H -3.358352 -4.246449 2.825310 0
M  V30 40 H -3.881424 -6.466390 3.572425 0
M  V30 41 H -0.331147 -7.974971 1.896068 0
M  V30 42 H 0.249930 -5.711600 1.108776 0
M  V30 END ATOM
M  V30 BEGIN BOND
M  V30 1 1 1 2
M  V30 2 2 2 3
M  V30 3 1 3 4
M  V30 4 2 4 5
M  V30 5 1 4 6
M  V30 6 2 6 7
M  V30 7 1 7 8
M  V30 8 2 8 9
M  V30 9 1 9 10
M  V30 10 1 10 11
M  V30 11 2 11 12
M  V30 12 1 12 13
M  V30 13 2 13 14
M  V30 14 1 14 15
M  V30 15 2 15 16
M  V30 16 2 10 17
M  V30 17 1 3 18
M  V30 18 2 18 19
M  V30 19 1 19 20
M  V30 20 1 20 21
M  V30 21 2 21 22
M  V30 22 1 22 23
M  V30 23 2 23 24
M  V30 24 1 24 25
M  V30 25 1 24 26
M  V30 26 2 26 27
M  V30 27 1 20 2
M  V30 28 1 27 21
M  V30 29 1 17 6
M  V30 30 1 16 11
M  V30 31 1 1 28
M  V30 32 1 1 29
M  V30 33 1 7 30
M  V30 34 1 8 31
M  V30 35 1 9 32
M  V30 36 1 12 33
M  V30 37 1 13 34
M  V30 38 1 15 35
M  V30 39 1 16 36
M  V30 40 1 17 37
M  V30 41 1 18 38
M  V30 42 1 22 39
M  V30 43 1 23 40
M  V30 44 1 26 41
M  V30 45 1 27 42
M  V30 END BOND
M  V30 END CTAB
M  END
>  <Dataset>  (692) 
ChEMBL_Kinases

>  <Ligand_Instance>  (692) 
nan

>  <PDB_ID>  (692) 
nan

>  <Standardized_SMILES>  (692) 
Nc1c(C(=O)c2cccc(-c3ccncc3)c2)cnn1-c1ccc(F)cc1

>  <Name>  (692) 
nan

>  <Pocket>  (692) 
nan

>  <ATP_Site>  (692) 
nan

>  <Peripheral>  (692) 
nan

>  <Num_H_Atoms_ProtBoundConf>  (692) 
nan

>  <Num_Resolved_Atoms>  (692) 
nan

>  <Num_Not_Resolved_Atoms>  (692) 
nan

$$$$
CHEMBL2032374
     RDKit          3D

  0  0  0  0  0  0  0  0  0  0999 V3000
M  V30 BEGIN CTAB
M  V30 COUNTS 20 21 0 0 0
M  V30 BEGIN ATOM
M  V30 1 O -1.289888 -0.142175 2.125995 0
M  V30 2 C 0.067820 -0.431018 2.003537 0
M  V30 3 C 0.708989 -0.901393 3.155748 0
M  V30 4 C 2.051844 -1.175959 2.994344 0
M  V30 5 C 2.788634 -1.031336 1.835975 0
M  V30 6 Cl 4.495560 -1.421810 1.781060 0
M  V30 7 C 2.117858 -0.564834 0.723282 0
M  V30 8 C 0.773171 -0.274164 0.827917 0
M  V30 9 C 0.052673 0.224958 -0.359989 0
M  V30 10 C 0.597745 0.440053 -1.608966 0
M  V30 11 C -0.436617 0.902395 -2.393255 0
M  V30 12 N -1.559037 0.966332 -1.658031 0
M  V30 13 N -1.265281 0.555919 -0.423902 0
M  V30 14 H -1.639394 0.477144 2.844817 0
M  V30 15 H 0.236776 -1.054263 4.116208 0
M  V30 16 H 2.590705 -1.548380 3.879672 0
M  V30 17 H 2.628406 -0.429315 -0.207291 0
M  V30 18 H 1.611914 0.284932 -1.920526 0
M  V30 19 H -0.432146 1.193408 -3.451586 0
M  V30 20 H -2.539638 1.258387 -1.871574 0
M  V30 END ATOM
M  V30 BEGIN BOND
M  V30 1 1 1 2
M  V30 2 2 2 3
M  V30 3 1 3 4
M  V30 4 2 4 5
M  V30 5 1 5 6
M  V30 6 1 5 7
M  V30 7 2 7 8
M  V30 8 1 8 9
M  V30 9 1 9 10
M  V30 10 2 10 11
M  V30 11 1 11 12
M  V30 12 1 12 13
M  V30 13 1 8 2
M  V30 14 2 13 9
M  V30 15 1 1 14
M  V30 16 1 3 15
M  V30 17 1 4 16
M  V30 18 1 7 17
M  V30 19 1 10 18
M  V30 20 1 11 19
M  V30 21 1 12 20
M  V30 END BOND
M  V30 END CTAB
M  END
>  <Dataset>  (693) 
ChEMBL_Kinases

>  <Ligand_Instance>  (693) 
nan

>  <PDB_ID>  (693) 
nan

>  <Standardized_SMILES>  (693) 
Oc1ccc(Cl)cc1-c1cc[nH]n1

>  <Name>  (693) 
nan

>  <Pocket>  (693) 
nan

>  <ATP_Site>  (693) 
nan

>  <Peripheral>  (693) 
nan

>  <Num_H_Atoms_ProtBoundConf>  (693) 
nan

>  <Num_Resolved_Atoms>  (693) 
nan

>  <Num_Not_Resolved_Atoms>  (693) 
nan

$$$$
CHEMBL2032375
     RDKit          3D

  0  0  0  0  0  0  0  0  0  0999 V3000
M  V30 BEGIN CTAB
M  V30 COUNTS 49 52 0 0 0
M  V30 BEGIN ATOM
M  V30 1 N 0.731434 -5.539024 -1.497809 0
M  V30 2 C 0.932688 -4.518841 -0.481444 0 CFG=1
M  V30 3 C 0.065200 -3.326071 -0.760359 0
M  V30 4 C 0.162977 -2.307107 0.322048 0
M  V30 5 C 1.003399 -2.671848 1.494843 0 CFG=2
M  V30 6 N 2.375304 -2.155319 1.369794 0
M  V30 7 C 2.698963 -0.775324 1.276004 0
M  V30 8 C 4.032966 -0.406248 1.163211 0
M  V30 9 N 4.318910 0.908270 1.079156 0
M  V30 10 C 3.303966 1.801504 1.108115 0
M  V30 11 C 1.970150 1.470023 1.218894 0
M  V30 12 C 0.914475 2.478002 1.246632 0
M  V30 13 C 1.117524 3.838587 1.168710 0
M  V30 14 C 0.105504 4.767003 1.200800 0
M  V30 15 C -1.175315 4.274311 1.318498 0
M  V30 16 C -1.402628 2.915672 1.398005 0
M  V30 17 C -2.839282 2.602956 1.526769 0
M  V30 18 C -3.266699 1.551465 0.843467 0
M  V30 19 S -2.471980 0.373924 -0.246520 0
M  V30 20 C -3.969832 -0.176973 -1.062752 0
M  V30 21 O -4.108278 -0.748185 -2.172855 0
M  V30 22 N -5.023231 0.178371 -0.159161 0
M  V30 23 C -4.665958 1.096994 0.861010 0
M  V30 24 O -5.514232 1.494232 1.730849 0
M  V30 25 C -0.375985 1.994475 1.364540 0
M  V30 26 N 1.727502 0.145573 1.300349 0
M  V30 27 C 0.971177 -4.090001 1.921898 0
M  V30 28 C 0.494822 -5.059857 0.868589 0
M  V30 29 H 1.450874 -5.408499 -2.223605 0
M  V30 30 H 0.777552 -6.461247 -1.010779 0
M  V30 31 H 2.002326 -4.245483 -0.484878 0
M  V30 32 H 0.307103 -2.925854 -1.772078 0
M  V30 33 H -0.990952 -3.711220 -0.868136 0
M  V30 34 H -0.882783 -2.003734 0.622570 0
M  V30 35 H 0.611688 -1.377943 -0.132021 0
M  V30 36 H 0.591816 -2.075281 2.366168 0
M  V30 37 H 3.125170 -2.883236 1.354023 0
M  V30 38 H 4.821272 -1.135696 1.142882 0
M  V30 39 H 3.638973 2.816998 1.035660 0
M  V30 40 H 2.144642 4.170492 1.079719 0
M  V30 41 H 0.351825 5.820568 1.134026 0
M  V30 42 H -1.956070 5.045064 1.340532 0
M  V30 43 H -3.506540 3.190393 2.139232 0
M  V30 44 H -5.974469 -0.235584 -0.280999 0
M  V30 45 H -0.656898 0.958924 1.433780 0
M  V30 46 H 2.030868 -4.381134 2.171831 0
M  V30 47 H 0.407680 -4.246719 2.860698 0
M  V30 48 H 0.801526 -6.087430 1.062050 0
M  V30 49 H -0.616244 -5.047393 0.873644 0
M  V30 END ATOM
M  V30 BEGIN BOND
M  V30 1 1 1 2
M  V30 2 1 2 3
M  V30 3 1 3 4
M  V30 4 1 4 5
M  V30 5 1 5 6
M  V30 6 1 6 7
M  V30 7 2 7 8
M  V30 8 1 8 9
M  V30 9 2 9 10
M  V30 10 1 10 11
M  V30 11 1 11 12
M  V30 12 2 12 13
M  V30 13 1 13 14
M  V30 14 2 14 15
M  V30 15 1 15 16
M  V30 16 1 16 17
M  V30 17 2 17 18
M  V30 18 1 18 19
M  V30 19 1 19 20
M  V30 20 2 20 21
M  V30 21 1 20 22
M  V30 22 1 22 23
M  V30 23 2 23 24
M  V30 24 2 16 25
M  V30 25 2 11 26
M  V30 26 1 5 27
M  V30 27 1 27 28
M  V30 28 1 28 2
M  V30 29 1 26 7
M  V30 30 1 25 12
M  V30 31 1 23 18
M  V30 32 1 1 29
M  V30 33 1 1 30
M  V30 34 1 2 31 CFG=1
M  V30 35 1 3 32
M  V30 36 1 3 33
M  V30 37 1 4 34
M  V30 38 1 4 35
M  V30 39 1 5 36 CFG=1
M  V30 40 1 6 37
M  V30 41 1 8 38
M  V30 42 1 10 39
M  V30 43 1 13 40
M  V30 44 1 14 41
M  V30 45 1 15 42
M  V30 46 1 17 43
M  V30 47 1 22 44
M  V30 48 1 25 45
M  V30 49 1 27 46
M  V30 50 1 27 47
M  V30 51 1 28 48
M  V30 52 1 28 49
M  V30 END BOND
M  V30 END CTAB
M  END
>  <Dataset>  (694) 
ChEMBL_Kinases

>  <Ligand_Instance>  (694) 
nan

>  <PDB_ID>  (694) 
nan

>  <Standardized_SMILES>  (694) 
N[C@H]1CC[C@H](Nc2cncc(-c3cccc(/C=C4\SC(=O)NC4=O)c3)n2)CC1

>  <Name>  (694) 
nan

>  <Pocket>  (694) 
nan

>  <ATP_Site>  (694) 
nan

>  <Peripheral>  (694) 
nan

>  <Num_H_Atoms_ProtBoundConf>  (694) 
nan

>  <Num_Resolved_Atoms>  (694) 
nan

>  <Num_Not_Resolved_Atoms>  (694) 
nan

$$$$
CHEMBL203257
     RDKit          3D

  0  0  0  0  0  0  0  0  0  0999 V3000
M  V30 BEGIN CTAB
M  V30 COUNTS 41 43 0 0 0
M  V30 BEGIN ATOM
M  V30 1 C -2.260678 -4.950444 0.997949 0
M  V30 2 N -1.808558 -3.611652 1.367549 0
M  V30 3 C -1.387185 -2.784288 0.411525 0
M  V30 4 C -0.954947 -1.528515 0.700904 0
M  V30 5 C -0.501895 -0.565434 -0.279903 0
M  V30 6 O -0.162991 0.586735 0.073212 0
M  V30 7 N -0.369852 -0.727949 -1.680327 0
M  V30 8 C 0.025305 -0.032225 -2.844012 0
M  V30 9 C 1.396133 0.455444 -3.012044 0
M  V30 10 C 2.091945 1.438351 -2.144923 0
M  V30 11 C 2.527809 0.020057 -2.160030 0
M  V30 12 C -0.925792 -1.040330 1.986085 0
M  V30 13 N -0.545702 0.167965 2.560200 0
M  V30 14 C 0.602210 0.867209 2.980112 0
M  V30 15 C 0.999749 2.116516 2.551539 0
M  V30 16 C 2.123672 2.800233 2.935472 0
M  V30 17 C 2.945515 2.175175 3.846750 0
M  V30 18 Br 4.514320 3.120659 4.385968 0
M  V30 19 C 2.618158 0.923292 4.324966 0
M  V30 20 C 1.469162 0.294367 3.892910 0
M  V30 21 F 1.335324 -0.903770 4.461688 0
M  V30 22 C -1.379175 -1.942638 2.965533 0
M  V30 23 F -1.469519 -1.697219 4.292901 0
M  V30 24 C -1.816595 -3.219735 2.653306 0
M  V30 25 O -2.230212 -4.064170 3.487280 0
M  V30 26 H -3.343665 -5.039122 1.116484 0
M  V30 27 H -1.950866 -5.172375 -0.043886 0
M  V30 28 H -1.728449 -5.651365 1.686739 0
M  V30 29 H -1.399627 -3.141376 -0.599689 0
M  V30 30 H -0.693124 -1.744326 -1.852033 0
M  V30 31 H -0.653507 0.850241 -3.070452 0
M  V30 32 H -0.202903 -0.712550 -3.714945 0
M  V30 33 H 1.691755 0.565173 -4.108005 0
M  V30 34 H 1.678494 1.881664 -1.237949 0
M  V30 35 H 2.764507 2.212495 -2.653860 0
M  V30 36 H 2.394127 -0.581362 -1.239366 0
M  V30 37 H 3.511570 -0.172402 -2.631210 0
M  V30 38 H -1.405826 0.760948 2.743079 0
M  V30 39 H 0.357653 2.620412 1.833310 0
M  V30 40 H 2.351813 3.782856 2.540460 0
M  V30 41 H 3.344684 0.547406 5.031799 0
M  V30 END ATOM
M  V30 BEGIN BOND
M  V30 1 1 1 2
M  V30 2 1 2 3
M  V30 3 2 3 4
M  V30 4 1 4 5
M  V30 5 2 5 6
M  V30 6 1 5 7
M  V30 7 1 7 8
M  V30 8 1 8 9
M  V30 9 1 9 10
M  V30 10 1 10 11
M  V30 11 1 4 12
M  V30 12 1 12 13
M  V30 13 1 13 14
M  V30 14 2 14 15
M  V30 15 1 15 16
M  V30 16 2 16 17
M  V30 17 1 17 18
M  V30 18 1 17 19
M  V30 19 2 19 20
M  V30 20 1 20 21
M  V30 21 2 12 22
M  V30 22 1 22 23
M  V30 23 1 22 24
M  V30 24 2 24 25
M  V30 25 1 24 2
M  V30 26 1 11 9
M  V30 27 1 20 14
M  V30 28 1 1 26
M  V30 29 1 1 27
M  V30 30 1 1 28
M  V30 31 1 3 29
M  V30 32 1 7 30
M  V30 33 1 8 31
M  V30 34 1 8 32
M  V30 35 1 9 33
M  V30 36 1 10 34
M  V30 37 1 10 35
M  V30 38 1 11 36
M  V30 39 1 11 37
M  V30 40 1 13 38
M  V30 41 1 15 39
M  V30 42 1 16 40
M  V30 43 1 19 41
M  V30 END BOND
M  V30 END CTAB
M  END
>  <Dataset>  (695) 
ChEMBL_Kinases

>  <Ligand_Instance>  (695) 
nan

>  <PDB_ID>  (695) 
nan

>  <Standardized_SMILES>  (695) 
Cn1cc(C(=O)NCC2CC2)c(Nc2ccc(Br)cc2F)c(F)c1=O

>  <Name>  (695) 
nan

>  <Pocket>  (695) 
nan

>  <ATP_Site>  (695) 
nan

>  <Peripheral>  (695) 
nan

>  <Num_H_Atoms_ProtBoundConf>  (695) 
nan

>  <Num_Resolved_Atoms>  (695) 
nan

>  <Num_Not_Resolved_Atoms>  (695) 
nan

$$$$
CHEMBL203258
     RDKit          3D

  0  0  0  0  0  0  0  0  0  0999 V3000
M  V30 BEGIN CTAB
M  V30 COUNTS 32 33 0 0 0
M  V30 BEGIN ATOM
M  V30 1 C 0.499140 -2.139458 4.975384 0
M  V30 2 N 0.274684 -1.823181 3.560702 0
M  V30 3 C 1.322167 -1.823122 2.712515 0
M  V30 4 C 1.092518 -1.524203 1.390266 0
M  V30 5 C 2.184793 -1.537400 0.430084 0
M  V30 6 O 2.114789 -1.333189 -0.805931 0
M  V30 7 N 3.533275 -1.796671 0.795445 0
M  V30 8 O 4.409199 -1.762769 -0.258643 0
M  V30 9 C -0.172410 -1.230580 0.937534 0
M  V30 10 N -0.528283 -0.880830 -0.390466 0
M  V30 11 C -0.834776 0.290272 -1.113570 0
M  V30 12 C -2.124741 0.145529 -1.641454 0
M  V30 13 C -2.711213 1.159890 -2.410320 0
M  V30 14 C -1.970770 2.304173 -2.626903 0
M  V30 15 Br -2.705787 3.732193 -3.667325 0
M  V30 16 C -0.700166 2.470744 -2.118565 0
M  V30 17 C -0.161875 1.463217 -1.375237 0
M  V30 18 F 1.059187 1.480090 -0.807399 0
M  V30 19 C -1.260661 -1.229066 1.808320 0
M  V30 20 F -2.531441 -0.950812 1.432685 0
M  V30 21 C -0.994590 -1.537577 3.147178 0
M  V30 22 O -1.905440 -1.567904 4.035286 0
M  V30 23 H 0.987367 -1.252596 5.430923 0
M  V30 24 H 1.221372 -2.987589 5.026898 0
M  V30 25 H -0.433924 -2.399054 5.484844 0
M  V30 26 H 2.277846 -2.057817 3.122186 0
M  V30 27 H 3.804256 -1.994355 1.799320 0
M  V30 28 H 5.077516 -2.478466 -0.013296 0
M  V30 29 H -0.514972 -1.835737 -0.796463 0
M  V30 30 H -2.822401 -0.700195 -1.551228 0
M  V30 31 H -3.697898 1.114489 -2.846063 0
M  V30 32 H -0.088876 3.337676 -2.259332 0
M  V30 END ATOM
M  V30 BEGIN BOND
M  V30 1 1 1 2
M  V30 2 1 2 3
M  V30 3 2 3 4
M  V30 4 1 4 5
M  V30 5 2 5 6
M  V30 6 1 5 7
M  V30 7 1 7 8
M  V30 8 1 4 9
M  V30 9 1 9 10
M  V30 10 1 10 11
M  V30 11 2 11 12
M  V30 12 1 12 13
M  V30 13 2 13 14
M  V30 14 1 14 15
M  V30 15 1 14 16
M  V30 16 2 16 17
M  V30 17 1 17 18
M  V30 18 2 9 19
M  V30 19 1 19 20
M  V30 20 1 19 21
M  V30 21 2 21 22
M  V30 22 1 21 2
M  V30 23 1 17 11
M  V30 24 1 1 23
M  V30 25 1 1 24
M  V30 26 1 1 25
M  V30 27 1 3 26
M  V30 28 1 7 27
M  V30 29 1 8 28
M  V30 30 1 10 29
M  V30 31 1 12 30
M  V30 32 1 13 31
M  V30 33 1 16 32
M  V30 END BOND
M  V30 END CTAB
M  END
>  <Dataset>  (696) 
ChEMBL_Kinases

>  <Ligand_Instance>  (696) 
nan

>  <PDB_ID>  (696) 
nan

>  <Standardized_SMILES>  (696) 
Cn1cc(C(=O)NO)c(Nc2ccc(Br)cc2F)c(F)c1=O

>  <Name>  (696) 
nan

>  <Pocket>  (696) 
nan

>  <ATP_Site>  (696) 
nan

>  <Peripheral>  (696) 
nan

>  <Num_H_Atoms_ProtBoundConf>  (696) 
nan

>  <Num_Resolved_Atoms>  (696) 
nan

>  <Num_Not_Resolved_Atoms>  (696) 
nan

$$$$
CHEMBL203275
     RDKit          3D

  0  0  0  0  0  0  0  0  0  0999 V3000
M  V30 BEGIN CTAB
M  V30 COUNTS 59 63 0 0 0
M  V30 BEGIN ATOM
M  V30 1 N -0.660548 -2.343419 1.960547 0
M  V30 2 C -0.693125 -2.973480 3.240264 0 CFG=2
M  V30 3 C 0.245282 -2.354076 4.215904 0
M  V30 4 O 0.113095 -1.053383 4.552749 0
M  V30 5 C 0.186138 0.162581 3.998788 0
M  V30 6 C -0.112829 1.084154 4.999011 0
M  V30 7 N -0.115297 2.405464 4.730565 0
M  V30 8 C 0.158446 2.933755 3.527445 0
M  V30 9 C 0.454917 2.062978 2.530126 0
M  V30 10 C 0.788890 2.427942 1.159419 0
M  V30 11 C 0.832350 3.651412 0.703154 0
M  V30 12 C 1.159328 4.098047 -0.652765 0
M  V30 13 C 1.157633 5.440086 -1.012866 0
M  V30 14 C 1.482588 5.771113 -2.309267 0
M  V30 15 N 1.808683 4.885492 -3.277962 0
M  V30 16 C 1.824228 3.551702 -2.972358 0
M  V30 17 N 2.161401 2.566443 -3.942138 0
M  V30 18 C 2.173040 1.156377 -3.616688 0
M  V30 19 C 0.951883 0.457575 -3.164774 0
M  V30 20 C 1.498204 0.231818 -4.558646 0
M  V30 21 C 1.494677 3.228862 -1.660680 0
M  V30 22 C 0.465265 0.707259 2.773221 0
M  V30 23 C -0.313150 -4.449608 3.058897 0
M  V30 24 C -1.260540 -5.152843 2.170142 0
M  V30 25 C -2.258216 -5.903830 2.765399 0
M  V30 26 N -3.078597 -6.478692 1.849735 0
M  V30 27 C -2.600086 -6.091314 0.661675 0
M  V30 28 C -2.914796 -6.287597 -0.661615 0
M  V30 29 C -2.253297 -5.775813 -1.750945 0
M  V30 30 C -1.138095 -4.966601 -1.486010 0
M  V30 31 C -0.748386 -4.714394 -0.176332 0
M  V30 32 C -1.493698 -5.284320 0.829071 0
M  V30 33 H -1.225396 -1.480301 1.905846 0
M  V30 34 H 0.276206 -2.303610 1.547632 0
M  V30 35 H -1.747667 -3.012995 3.640753 0
M  V30 36 H 0.128616 -2.967395 5.172188 0
M  V30 37 H 1.284956 -2.575861 3.815210 0
M  V30 38 H -0.371485 0.958715 6.059399 0
M  V30 39 H 0.155752 3.982785 3.320412 0
M  V30 40 H 1.032224 1.702656 0.397248 0
M  V30 41 H 0.598515 4.458261 1.407166 0
M  V30 42 H 0.900492 6.150160 -0.251121 0
M  V30 43 H 1.450192 6.849240 -2.480281 0
M  V30 44 H 2.399509 2.905550 -4.899178 0
M  V30 45 H 3.123579 0.764810 -3.173559 0
M  V30 46 H 1.016207 -0.371011 -2.454113 0
M  V30 47 H -0.009146 1.030556 -3.079908 0
M  V30 48 H 0.852683 0.580695 -5.368320 0
M  V30 49 H 1.947029 -0.768683 -4.737003 0
M  V30 50 H 1.526762 2.165599 -1.487052 0
M  V30 51 H 0.701431 -0.015689 2.031631 0
M  V30 52 H -0.156267 -4.955440 4.010133 0
M  V30 53 H 0.651367 -4.402521 2.467706 0
M  V30 54 H -2.495711 -6.110705 3.809013 0
M  V30 55 H -3.915898 -7.093833 1.864788 0
M  V30 56 H -3.782051 -6.915413 -0.889421 0
M  V30 57 H -2.507648 -5.934508 -2.778456 0
M  V30 58 H -0.598273 -4.551520 -2.325598 0
M  V30 59 H 0.117503 -4.098171 0.001366 0
M  V30 END ATOM
M  V30 BEGIN BOND
M  V30 1 1 1 2
M  V30 2 1 2 3
M  V30 3 1 3 4
M  V30 4 1 4 5
M  V30 5 2 5 6
M  V30 6 1 6 7
M  V30 7 2 7 8
M  V30 8 1 8 9
M  V30 9 1 9 10
M  V30 10 2 10 11
M  V30 11 1 11 12
M  V30 12 2 12 13
M  V30 13 1 13 14
M  V30 14 2 14 15
M  V30 15 1 15 16
M  V30 16 1 16 17
M  V30 17 1 17 18
M  V30 18 1 18 19
M  V30 19 1 19 20
M  V30 20 2 16 21
M  V30 21 2 9 22
M  V30 22 1 2 23
M  V30 23 1 23 24
M  V30 24 2 24 25
M  V30 25 1 25 26
M  V30 26 1 26 27
M  V30 27 2 27 28
M  V30 28 1 28 29
M  V30 29 2 29 30
M  V30 30 1 30 31
M  V30 31 2 31 32
M  V30 32 1 22 5
M  V30 33 1 32 24
M  V30 34 1 21 12
M  V30 35 1 32 27
M  V30 36 1 20 18
M  V30 37 1 1 33
M  V30 38 1 1 34
M  V30 39 1 2 35 CFG=1
M  V30 40 1 3 36
M  V30 41 1 3 37
M  V30 42 1 6 38
M  V30 43 1 8 39
M  V30 44 1 10 40
M  V30 45 1 11 41
M  V30 46 1 13 42
M  V30 47 1 14 43
M  V30 48 1 17 44
M  V30 49 1 18 45
M  V30 50 1 19 46
M  V30 51 1 19 47
M  V30 52 1 20 48
M  V30 53 1 20 49
M  V30 54 1 21 50
M  V30 55 1 22 51
M  V30 56 1 23 52
M  V30 57 1 23 53
M  V30 58 1 25 54
M  V30 59 1 26 55
M  V30 60 1 28 56
M  V30 61 1 29 57
M  V30 62 1 30 58
M  V30 63 1 31 59
M  V30 END BOND
M  V30 END CTAB
M  END
>  <Dataset>  (697) 
ChEMBL_Kinases

>  <Ligand_Instance>  (697) 
nan

>  <PDB_ID>  (697) 
nan

>  <Standardized_SMILES>  (697) 
N[C@H](COc1cncc(/C=C/c2ccnc(NC3CC3)c2)c1)Cc1c[nH]c2ccccc12

>  <Name>  (697) 
nan

>  <Pocket>  (697) 
nan

>  <ATP_Site>  (697) 
nan

>  <Peripheral>  (697) 
nan

>  <Num_H_Atoms_ProtBoundConf>  (697) 
nan

>  <Num_Resolved_Atoms>  (697) 
nan

>  <Num_Not_Resolved_Atoms>  (697) 
nan

$$$$
CHEMBL203289
     RDKit          3D

  0  0  0  0  0  0  0  0  0  0999 V3000
M  V30 BEGIN CTAB
M  V30 COUNTS 44 47 0 0 0
M  V30 BEGIN ATOM
M  V30 1 F -3.149821 -4.785772 0.850694 0
M  V30 2 C -1.812298 -4.552418 0.964589 0
M  V30 3 C -1.165129 -4.887297 2.138659 0
M  V30 4 C 0.182871 -4.673311 2.303382 0
M  V30 5 C 0.863561 -4.100189 1.222426 0
M  V30 6 C 0.227810 -3.757979 0.035953 0
M  V30 7 C -1.125530 -3.990159 -0.084677 0
M  V30 8 N -1.829955 -3.655899 -1.274887 0
M  V30 9 C -1.188710 -3.082801 -2.409095 0
M  V30 10 C -0.579370 -1.843693 -2.263411 0
M  V30 11 C 0.083421 -1.130368 -3.260352 0
M  V30 12 C 0.681449 0.162700 -2.937024 0
M  V30 13 C 1.819114 0.604414 -3.601146 0
M  V30 14 C 2.339337 1.829521 -3.242110 0
M  V30 15 N 1.784973 2.596479 -2.282760 0
M  V30 16 C 0.675831 2.160264 -1.638944 0
M  V30 17 N 0.142447 2.993210 -0.648696 0
M  V30 18 C -0.968547 2.857306 0.211970 0
M  V30 19 C -2.037752 3.739052 0.223351 0
M  V30 20 C -3.124932 3.602949 1.071226 0
M  V30 21 C -3.149124 2.532036 1.954779 0
M  V30 22 C -2.096119 1.622766 1.976506 0
M  V30 23 C -1.030656 1.802577 1.107992 0
M  V30 24 F -0.038665 0.865219 1.195338 0
M  V30 25 C 0.102052 0.952174 -1.942271 0
M  V30 26 C 0.113946 -1.750306 -4.494857 0
M  V30 27 C -0.492072 -2.990088 -4.651481 0
M  V30 28 N -1.123418 -3.642787 -3.652747 0
M  V30 29 H -1.690991 -5.331719 2.977129 0
M  V30 30 H 0.762393 -4.910884 3.201346 0
M  V30 31 H 1.929509 -3.926207 1.342454 0
M  V30 32 H 0.786848 -3.323385 -0.758073 0
M  V30 33 H -2.844696 -3.820110 -1.361753 0
M  V30 34 H -0.615063 -1.375660 -1.278056 0
M  V30 35 H 2.268326 -0.014714 -4.375214 0
M  V30 36 H 3.240510 2.219288 -3.740965 0
M  V30 37 H 0.534461 3.919812 -0.388169 0
M  V30 38 H -1.978234 4.551754 -0.473907 0
M  V30 39 H -3.909619 4.362796 0.989809 0
M  V30 40 H -4.031251 2.505293 2.573660 0
M  V30 41 H -2.204567 0.826916 2.693189 0
M  V30 42 H -0.792471 0.651641 -1.386828 0
M  V30 43 H 0.616541 -1.229219 -5.284465 0
M  V30 44 H -0.449762 -3.454241 -5.635501 0
M  V30 END ATOM
M  V30 BEGIN BOND
M  V30 1 1 1 2
M  V30 2 2 2 3
M  V30 3 1 3 4
M  V30 4 2 4 5
M  V30 5 1 5 6
M  V30 6 2 6 7
M  V30 7 1 7 8
M  V30 8 1 8 9
M  V30 9 2 9 10
M  V30 10 1 10 11
M  V30 11 1 11 12
M  V30 12 2 12 13
M  V30 13 1 13 14
M  V30 14 2 14 15
M  V30 15 1 15 16
M  V30 16 1 16 17
M  V30 17 1 17 18
M  V30 18 2 18 19
M  V30 19 1 19 20
M  V30 20 2 20 21
M  V30 21 1 21 22
M  V30 22 2 22 23
M  V30 23 1 23 24
M  V30 24 2 16 25
M  V30 25 2 11 26
M  V30 26 1 26 27
M  V30 27 2 27 28
M  V30 28 1 7 2
M  V30 29 1 28 9
M  V30 30 1 25 12
M  V30 31 1 23 18
M  V30 32 1 3 29
M  V30 33 1 4 30
M  V30 34 1 5 31
M  V30 35 1 6 32
M  V30 36 1 8 33
M  V30 37 1 10 34
M  V30 38 1 13 35
M  V30 39 1 14 36
M  V30 40 1 17 37
M  V30 41 1 19 38
M  V30 42 1 20 39
M  V30 43 1 21 40
M  V30 44 1 22 41
M  V30 45 1 25 42
M  V30 46 1 26 43
M  V30 47 1 27 44
M  V30 END BOND
M  V30 END CTAB
M  END
>  <Dataset>  (698) 
ChEMBL_Kinases

>  <Ligand_Instance>  (698) 
nan

>  <PDB_ID>  (698) 
nan

>  <Standardized_SMILES>  (698) 
Fc1ccccc1Nc1cc(-c2ccnc(Nc3ccccc3F)c2)ccn1

>  <Name>  (698) 
nan

>  <Pocket>  (698) 
nan

>  <ATP_Site>  (698) 
nan

>  <Peripheral>  (698) 
nan

>  <Num_H_Atoms_ProtBoundConf>  (698) 
nan

>  <Num_Resolved_Atoms>  (698) 
nan

>  <Num_Not_Resolved_Atoms>  (698) 
nan

$$$$
CHEMBL203329
     RDKit          3D

  0  0  0  0  0  0  0  0  0  0999 V3000
M  V30 BEGIN CTAB
M  V30 COUNTS 52 55 0 0 0
M  V30 BEGIN ATOM
M  V30 1 N 1.318060 -2.559470 0.891695 0
M  V30 2 C 0.050673 -2.838477 0.248527 0 CFG=2
M  V30 3 C -0.685497 -1.577861 -0.122573 0
M  V30 4 C 0.027376 -0.676461 -1.069346 0
M  V30 5 C 1.338483 -0.180859 -0.581687 0
M  V30 6 C 2.568732 -0.797529 -0.844560 0
M  V30 7 N 3.688838 -0.251896 -0.338642 0
M  V30 8 C 3.703701 0.861868 0.412678 0
M  V30 9 Cl 5.249766 1.467414 1.010714 0
M  V30 10 C 2.524388 1.542333 0.724522 0
M  V30 11 C 2.530144 2.750684 1.539505 0
M  V30 12 C 1.478412 3.463642 1.883682 0
M  V30 13 C 1.523875 4.669157 2.701819 0
M  V30 14 C 2.683175 5.203249 3.219693 0
M  V30 15 C 2.593492 6.356441 3.981314 0
M  V30 16 N 1.436223 6.991101 4.248031 0
M  V30 17 C 0.284555 6.490018 3.753398 0
M  V30 18 C 0.359949 5.342273 2.993617 0
M  V30 19 C 1.365009 0.979139 0.201949 0
M  V30 20 C -0.883507 -3.578282 1.218744 0
M  V30 21 C -2.154198 -3.833447 0.504716 0
M  V30 22 C -3.361170 -3.176455 0.642862 0
M  V30 23 N -4.236775 -3.755612 -0.213425 0
M  V30 24 C -3.598870 -4.752563 -0.874974 0
M  V30 25 C -4.062915 -5.624442 -1.839581 0
M  V30 26 C -3.260409 -6.596861 -2.415667 0
M  V30 27 C -1.937579 -6.677389 -1.987856 0
M  V30 28 C -1.491959 -5.797734 -1.023191 0
M  V30 29 C -2.278733 -4.826599 -0.442266 0
M  V30 30 H 1.270580 -1.761338 1.562520 0
M  V30 31 H 1.777002 -3.398636 1.255517 0
M  V30 32 H 0.255514 -3.411489 -0.656904 0
M  V30 33 H -1.664813 -1.833714 -0.608459 0
M  V30 34 H -0.945932 -1.092557 0.840424 0
M  V30 35 H -0.569280 0.204749 -1.363563 0
M  V30 36 H 0.153828 -1.264311 -2.026538 0
M  V30 37 H 2.553910 -1.695174 -1.453440 0
M  V30 38 H 3.492591 3.086425 1.889639 0
M  V30 39 H 0.535586 3.114156 1.526569 0
M  V30 40 H 3.620415 4.742655 3.040207 0
M  V30 41 H 3.522022 6.751902 4.374292 0
M  V30 42 H -0.651817 6.973301 3.948784 0
M  V30 43 H -0.577710 4.968884 2.614128 0
M  V30 44 H 0.430190 1.441142 0.397202 0
M  V30 45 H -1.090243 -2.862051 2.044859 0
M  V30 46 H -0.418253 -4.504157 1.605725 0
M  V30 47 H -3.478992 -2.356162 1.340790 0
M  V30 48 H -5.219165 -3.470229 -0.326643 0
M  V30 49 H -5.091499 -5.592746 -2.200431 0
M  V30 50 H -3.597979 -7.292119 -3.172343 0
M  V30 51 H -1.249108 -7.406694 -2.386857 0
M  V30 52 H -0.465745 -5.853765 -0.685489 0
M  V30 END ATOM
M  V30 BEGIN BOND
M  V30 1 1 1 2
M  V30 2 1 2 3
M  V30 3 1 3 4
M  V30 4 1 4 5
M  V30 5 2 5 6
M  V30 6 1 6 7
M  V30 7 2 7 8
M  V30 8 1 8 9
M  V30 9 1 8 10
M  V30 10 1 10 11
M  V30 11 2 11 12
M  V30 12 1 12 13
M  V30 13 2 13 14
M  V30 14 1 14 15
M  V30 15 2 15 16
M  V30 16 1 16 17
M  V30 17 2 17 18
M  V30 18 2 10 19
M  V30 19 1 2 20
M  V30 20 1 20 21
M  V30 21 2 21 22
M  V30 22 1 22 23
M  V30 23 1 23 24
M  V30 24 2 24 25
M  V30 25 1 25 26
M  V30 26 2 26 27
M  V30 27 1 27 28
M  V30 28 2 28 29
M  V30 29 1 19 5
M  V30 30 1 29 21
M  V30 31 1 18 13
M  V30 32 1 29 24
M  V30 33 1 1 30
M  V30 34 1 1 31
M  V30 35 1 2 32 CFG=3
M  V30 36 1 3 33
M  V30 37 1 3 34
M  V30 38 1 4 35
M  V30 39 1 4 36
M  V30 40 1 6 37
M  V30 41 1 11 38
M  V30 42 1 12 39
M  V30 43 1 14 40
M  V30 44 1 15 41
M  V30 45 1 17 42
M  V30 46 1 18 43
M  V30 47 1 19 44
M  V30 48 1 20 45
M  V30 49 1 20 46
M  V30 50 1 22 47
M  V30 51 1 23 48
M  V30 52 1 25 49
M  V30 53 1 26 50
M  V30 54 1 27 51
M  V30 55 1 28 52
M  V30 END BOND
M  V30 END CTAB
M  END
>  <Dataset>  (699) 
ChEMBL_Kinases

>  <Ligand_Instance>  (699) 
nan

>  <PDB_ID>  (699) 
nan

>  <Standardized_SMILES>  (699) 
N[C@H](CCc1cnc(Cl)c(/C=C/c2ccncc2)c1)Cc1c[nH]c2ccccc12

>  <Name>  (699) 
nan

>  <Pocket>  (699) 
nan

>  <ATP_Site>  (699) 
nan

>  <Peripheral>  (699) 
nan

>  <Num_H_Atoms_ProtBoundConf>  (699) 
nan

>  <Num_Resolved_Atoms>  (699) 
nan

>  <Num_Not_Resolved_Atoms>  (699) 
nan

$$$$
CHEMBL203333
     RDKit          3D

  0  0  0  0  0  0  0  0  0  0999 V3000
M  V30 BEGIN CTAB
M  V30 COUNTS 33 35 0 0 0
M  V30 BEGIN ATOM
M  V30 1 N -0.980820 -0.699824 2.412515 0
M  V30 2 C -0.592073 -0.435313 1.070164 0
M  V30 3 C 0.514584 -0.750888 0.311052 0
M  V30 4 C 1.596968 -1.514756 0.905795 0
M  V30 5 O 1.495382 -1.824026 2.127171 0
M  V30 6 C 2.831054 -2.010524 0.329491 0
M  V30 7 C 3.935895 -2.168316 1.150268 0
M  V30 8 C 5.153886 -2.650683 0.654736 0
M  V30 9 C 5.299335 -2.987792 -0.672704 0
M  V30 10 C 4.225261 -2.844329 -1.514057 0
M  V30 11 C 3.049185 -2.366800 -0.981807 0
M  V30 12 C 0.326737 -0.214649 -0.942473 0
M  V30 13 N -0.870153 0.406235 -0.923331 0
M  V30 14 N -1.429643 0.284931 0.264973 0
M  V30 15 C -2.701467 0.843440 0.575590 0
M  V30 16 C -3.026320 1.319632 1.832221 0
M  V30 17 C -4.272050 1.861031 2.116587 0
M  V30 18 C -5.215886 1.925240 1.110808 0
M  V30 19 C -4.936497 1.457951 -0.173796 0
M  V30 20 C -3.671201 0.922184 -0.412695 0
M  V30 21 H -0.682750 -0.363454 3.356337 0
M  V30 22 H -1.699804 -1.328457 2.835222 0
M  V30 23 H 3.948217 -1.937691 2.214505 0
M  V30 24 H 6.009931 -2.768992 1.308064 0
M  V30 25 H 6.250091 -3.356916 -1.026537 0
M  V30 26 H 4.304013 -3.098975 -2.559693 0
M  V30 27 H 2.230467 -2.278355 -1.674882 0
M  V30 28 H 1.010873 -0.281762 -1.763076 0
M  V30 29 H -2.300005 1.275299 2.624171 0
M  V30 30 H -4.546467 2.238716 3.091355 0
M  V30 31 H -6.223226 2.326965 1.213481 0
M  V30 32 H -5.644048 1.484622 -1.003556 0
M  V30 33 H -3.448491 0.554186 -1.420793 0
M  V30 END ATOM
M  V30 BEGIN BOND
M  V30 1 1 1 2
M  V30 2 2 2 3
M  V30 3 1 3 4
M  V30 4 2 4 5
M  V30 5 1 4 6
M  V30 6 2 6 7
M  V30 7 1 7 8
M  V30 8 2 8 9
M  V30 9 1 9 10
M  V30 10 2 10 11
M  V30 11 1 3 12
M  V30 12 2 12 13
M  V30 13 1 13 14
M  V30 14 1 14 15
M  V30 15 2 15 16
M  V30 16 1 16 17
M  V30 17 2 17 18
M  V30 18 1 18 19
M  V30 19 2 19 20
M  V30 20 1 14 2
M  V30 21 1 20 15
M  V30 22 1 11 6
M  V30 23 1 1 21
M  V30 24 1 1 22
M  V30 25 1 7 23
M  V30 26 1 8 24
M  V30 27 1 9 25
M  V30 28 1 10 26
M  V30 29 1 11 27
M  V30 30 1 12 28
M  V30 31 1 16 29
M  V30 32 1 17 30
M  V30 33 1 18 31
M  V30 34 1 19 32
M  V30 35 1 20 33
M  V30 END BOND
M  V30 END CTAB
M  END
>  <Dataset>  (700) 
ChEMBL_Kinases

>  <Ligand_Instance>  (700) 
nan

>  <PDB_ID>  (700) 
nan

>  <Standardized_SMILES>  (700) 
Nc1c(C(=O)c2ccccc2)cnn1-c1ccccc1

>  <Name>  (700) 
nan

>  <Pocket>  (700) 
nan

>  <ATP_Site>  (700) 
nan

>  <Peripheral>  (700) 
nan

>  <Num_H_Atoms_ProtBoundConf>  (700) 
nan

>  <Num_Resolved_Atoms>  (700) 
nan

>  <Num_Not_Resolved_Atoms>  (700) 
nan

$$$$
CHEMBL2032373
     RDKit          3D

  0  0  0  0  0  0  0  0  0  0999 V3000
M  V30 BEGIN CTAB
M  V30 COUNTS 25 27 0 0 0
M  V30 BEGIN ATOM
M  V30 1 O 1.096548 -0.853395 2.888097 0
M  V30 2 C 0.559439 -1.231383 1.816756 0
M  V30 3 C 0.842023 -2.586797 1.356697 0
M  V30 4 C 1.668287 -3.446254 2.055720 0
M  V30 5 C 1.733061 -4.656084 1.358063 0
M  V30 6 C 0.923533 -4.435195 0.264086 0
M  V30 7 O 0.413858 -3.214014 0.288030 0
M  V30 8 C -0.312384 -0.319589 1.082427 0
M  V30 9 C -1.541849 -0.422461 0.465863 0
M  V30 10 N -1.880999 0.767101 -0.071658 0
M  V30 11 C -0.895884 1.666450 0.175908 0
M  V30 12 C -0.806086 3.006578 -0.181097 0
M  V30 13 C 0.314367 3.725771 0.192101 0
M  V30 14 C 1.307370 3.085978 0.908165 0
M  V30 15 C 1.206149 1.751109 1.257570 0
M  V30 16 C 0.081979 1.007229 0.889862 0
M  V30 17 H 2.213679 -3.303401 2.984879 0
M  V30 18 H 2.238057 -5.581145 1.521997 0
M  V30 19 H 0.646680 -5.079077 -0.583870 0
M  V30 20 H -2.043768 -1.391813 0.493925 0
M  V30 21 H -2.789113 0.907381 -0.592318 0
M  V30 22 H -1.576313 3.505830 -0.737413 0
M  V30 23 H 0.483730 4.771689 -0.034230 0
M  V30 24 H 2.202017 3.647894 1.209875 0
M  V30 25 H 2.001068 1.272962 1.820528 0
M  V30 END ATOM
M  V30 BEGIN BOND
M  V30 1 2 1 2
M  V30 2 1 2 3
M  V30 3 2 3 4
M  V30 4 1 4 5
M  V30 5 2 5 6
M  V30 6 1 6 7
M  V30 7 1 2 8
M  V30 8 2 8 9
M  V30 9 1 9 10
M  V30 10 1 10 11
M  V30 11 2 11 12
M  V30 12 1 12 13
M  V30 13 2 13 14
M  V30 14 1 14 15
M  V30 15 2 15 16
M  V30 16 1 7 3
M  V30 17 1 16 8
M  V30 18 1 16 11
M  V30 19 1 4 17
M  V30 20 1 5 18
M  V30 21 1 6 19
M  V30 22 1 9 20
M  V30 23 1 10 21
M  V30 24 1 12 22
M  V30 25 1 13 23
M  V30 26 1 14 24
M  V30 27 1 15 25
M  V30 END BOND
M  V30 END CTAB
M  END
>  <Dataset>  (701) 
ChEMBL_Kinases

>  <Ligand_Instance>  (701) 
nan

>  <PDB_ID>  (701) 
nan

>  <Standardized_SMILES>  (701) 
O=C(c1ccco1)c1c[nH]c2ccccc12

>  <Name>  (701) 
nan

>  <Pocket>  (701) 
nan

>  <ATP_Site>  (701) 
nan

>  <Peripheral>  (701) 
nan

>  <Num_H_Atoms_ProtBoundConf>  (701) 
nan

>  <Num_Resolved_Atoms>  (701) 
nan

>  <Num_Not_Resolved_Atoms>  (701) 
nan

$$$$
CHEMBL1985142
     RDKit          3D

  0  0  0  0  0  0  0  0  0  0999 V3000
M  V30 BEGIN CTAB
M  V30 COUNTS 53 56 0 0 0
M  V30 BEGIN ATOM
M  V30 1 C 2.902748 -2.882562 3.820097 0
M  V30 2 C 2.524729 -3.578702 2.546028 0
M  V30 3 O 1.304618 -3.118610 2.004679 0
M  V30 4 C 1.170613 -1.802818 1.655578 0
M  V30 5 O 2.196868 -1.107633 1.863184 0
M  V30 6 C -0.071195 -1.301825 1.097111 0
M  V30 7 C -0.178787 -0.084858 0.780092 0
M  V30 8 S 1.094208 1.180204 0.945445 0
M  V30 9 C 0.105642 2.536665 0.281676 0
M  V30 10 C 0.511626 3.823386 0.132243 0
M  V30 11 C 1.884949 4.060915 0.568660 0
M  V30 12 C 2.119533 5.125814 1.418816 0
M  V30 13 C 3.397279 5.397699 1.863392 0
M  V30 14 N 4.424241 4.622827 1.468523 0
M  V30 15 C 4.234433 3.563441 0.630905 0
M  V30 16 C 2.951087 3.279724 0.176322 0
M  V30 17 C -1.143952 1.889744 -0.016803 0
M  V30 18 O -1.995153 2.674348 -0.500592 0
M  V30 19 N -1.215375 0.586862 0.255902 0
M  V30 20 C -2.392997 -0.174106 0.009261 0
M  V30 21 N -3.611993 0.332197 -0.542231 0
M  V30 22 C -2.320636 -1.454354 0.328162 0
M  V30 23 C -3.533545 -2.267358 0.080830 0
M  V30 24 O -3.624375 -3.471832 0.324067 0
M  V30 25 O -4.696700 -1.727060 -0.458485 0
M  V30 26 C -5.860241 -2.470717 -0.704053 0
M  V30 27 C -1.201460 -2.232416 0.906160 0
M  V30 28 C -0.731058 -3.280648 -0.068141 0
M  V30 29 C -0.286917 -2.955060 -1.333128 0
M  V30 30 C 0.150628 -3.878788 -2.252672 0
M  V30 31 N 0.149734 -5.175760 -1.909866 0
M  V30 32 C -0.274546 -5.534714 -0.688869 0
M  V30 33 C -0.722751 -4.631778 0.264444 0
M  V30 34 H 2.101570 -2.178991 4.117542 0
M  V30 35 H 3.010971 -3.589297 4.690206 0
M  V30 36 H 3.866403 -2.330741 3.715165 0
M  V30 37 H 2.447023 -4.677466 2.679709 0
M  V30 38 H 3.338282 -3.417773 1.811430 0
M  V30 39 H -0.225175 4.491259 -0.283943 0
M  V30 40 H 1.299410 5.760761 1.746380 0
M  V30 41 H 3.517428 6.248904 2.530352 0
M  V30 42 H 5.098692 2.978853 0.349722 0
M  V30 43 H 2.782544 2.443219 -0.488566 0
M  V30 44 H -4.077854 0.791519 0.294278 0
M  V30 45 H -3.547501 0.041456 -1.552961 0
M  V30 46 H -6.387528 -2.747469 0.231047 0
M  V30 47 H -5.670362 -3.377833 -1.313311 0
M  V30 48 H -6.550759 -1.827735 -1.299604 0
M  V30 49 H -1.513122 -2.710927 1.858120 0
M  V30 50 H -0.295494 -1.886158 -1.590930 0
M  V30 51 H 0.473374 -3.494798 -3.210608 0
M  V30 52 H -0.281211 -6.569188 -0.399625 0
M  V30 53 H -1.061881 -4.903808 1.236461 0
M  V30 END ATOM
M  V30 BEGIN BOND
M  V30 1 1 1 2
M  V30 2 1 2 3
M  V30 3 1 3 4
M  V30 4 2 4 5
M  V30 5 1 4 6
M  V30 6 2 6 7
M  V30 7 1 7 8
M  V30 8 1 8 9
M  V30 9 2 9 10
M  V30 10 1 10 11
M  V30 11 2 11 12
M  V30 12 1 12 13
M  V30 13 2 13 14
M  V30 14 1 14 15
M  V30 15 2 15 16
M  V30 16 1 9 17
M  V30 17 2 17 18
M  V30 18 1 17 19
M  V30 19 1 19 20
M  V30 20 1 20 21
M  V30 21 2 20 22
M  V30 22 1 22 23
M  V30 23 2 23 24
M  V30 24 1 23 25
M  V30 25 1 25 26
M  V30 26 1 22 27
M  V30 27 1 27 28
M  V30 28 2 28 29
M  V30 29 1 29 30
M  V30 30 2 30 31
M  V30 31 1 31 32
M  V30 32 2 32 33
M  V30 33 1 27 6
M  V30 34 1 33 28
M  V30 35 1 19 7
M  V30 36 1 16 11
M  V30 37 1 1 34
M  V30 38 1 1 35
M  V30 39 1 1 36
M  V30 40 1 2 37
M  V30 41 1 2 38
M  V30 42 1 10 39
M  V30 43 1 12 40
M  V30 44 1 13 41
M  V30 45 1 15 42
M  V30 46 1 16 43
M  V30 47 1 21 44
M  V30 48 1 21 45
M  V30 49 1 26 46
M  V30 50 1 26 47
M  V30 51 1 26 48
M  V30 52 1 27 49
M  V30 53 1 29 50
M  V30 54 1 30 51
M  V30 55 1 32 52
M  V30 56 1 33 53
M  V30 END BOND
M  V30 END CTAB
M  END
>  <Dataset>  (702) 
ChEMBL_Kinases

>  <Ligand_Instance>  (702) 
nan

>  <PDB_ID>  (702) 
nan

>  <Standardized_SMILES>  (702) 
CCOC(=O)C1=c2s/c(=C\c3ccncc3)c(=O)n2C(N)=C(C(=O)OC)C1c1ccncc1

>  <Name>  (702) 
nan

>  <Pocket>  (702) 
nan

>  <ATP_Site>  (702) 
nan

>  <Peripheral>  (702) 
nan

>  <Num_H_Atoms_ProtBoundConf>  (702) 
nan

>  <Num_Resolved_Atoms>  (702) 
nan

>  <Num_Not_Resolved_Atoms>  (702) 
nan

$$$$
CHEMBL198491
     RDKit          3D

  0  0  0  0  0  0  0  0  0  0999 V3000
M  V30 BEGIN CTAB
M  V30 COUNTS 64 68 0 0 0
M  V30 BEGIN ATOM
M  V30 1 O 5.186616 0.868670 0.032007 0
M  V30 2 C 3.808339 0.572413 -0.023288 0
M  V30 3 C 3.491676 -0.192068 1.218866 0
M  V30 4 C 3.768339 0.538294 2.461815 0
M  V30 5 C 5.032960 0.438172 3.051625 0
M  V30 6 C 5.441365 1.061773 4.217619 0
M  V30 7 C 4.505549 1.854426 4.848884 0
M  V30 8 C 3.241133 1.993725 4.318049 0
M  V30 9 C 2.876755 1.350656 3.148797 0
M  V30 10 C 2.997186 1.805357 -0.246503 0
M  V30 11 N 1.597905 1.639373 -0.324444 0
M  V30 12 C 1.080087 0.947238 -1.441355 0
M  V30 13 C -0.300997 1.479131 -1.736766 0
M  V30 14 C -1.190920 1.447689 -0.512771 0
M  V30 15 C -1.814279 0.109267 -0.425271 0
M  V30 16 C -3.149215 -0.085147 -0.790753 0
M  V30 17 C -3.498723 -1.419906 -0.613503 0
M  V30 18 C -4.778781 -2.072048 -0.864089 0
M  V30 19 C -5.676060 -2.644702 0.010530 0
M  V30 20 C -6.824280 -3.204208 -0.507110 0
M  V30 21 N -7.099306 -3.211473 -1.823017 0
M  V30 22 C -6.239605 -2.657540 -2.703933 0
M  V30 23 C -5.064935 -2.079450 -2.234249 0
M  V30 24 C -2.368585 -2.042631 -0.136478 0
M  V30 25 C -2.127210 -3.437220 0.235669 0
M  V30 26 C -2.677165 -4.160437 1.254444 0
M  V30 27 C -2.320623 -5.480421 1.451396 0
M  V30 28 C -1.392154 -6.091579 0.609474 0
M  V30 29 F -1.124725 -7.390994 0.903735 0
M  V30 30 C -0.826923 -5.373923 -0.425094 0
M  V30 31 C -1.208726 -4.043931 -0.596107 0
M  V30 32 N -1.401064 -1.092802 -0.043240 0
M  V30 33 C -0.495774 1.890478 0.739700 0
M  V30 34 C 0.782799 2.605282 0.306434 0
M  V30 35 H 5.679540 0.007129 -0.155288 0
M  V30 36 H 3.714203 -0.104601 -0.903611 0
M  V30 37 H 4.151277 -1.097548 1.204270 0
M  V30 38 H 2.462797 -0.606814 1.234959 0
M  V30 39 H 5.755301 -0.188150 2.541861 0
M  V30 40 H 6.443267 0.905586 4.569639 0
M  V30 41 H 4.791895 2.359874 5.768536 0
M  V30 42 H 2.515234 2.632031 4.842592 0
M  V30 43 H 1.894442 1.439076 2.708094 0
M  V30 44 H 3.225151 2.595616 0.497433 0
M  V30 45 H 3.350779 2.224674 -1.235125 0
M  V30 46 H 1.720339 1.111047 -2.337889 0
M  V30 47 H 0.996351 -0.132276 -1.241088 0
M  V30 48 H -0.272014 2.485993 -2.202111 0
M  V30 49 H -0.788429 0.796917 -2.490911 0
M  V30 50 H -2.014268 2.175750 -0.719596 0
M  V30 51 H -3.929598 0.592110 -1.171433 0
M  V30 52 H -5.359935 -2.580293 1.030544 0
M  V30 53 H -7.467928 -3.628349 0.265743 0
M  V30 54 H -6.518944 -2.694827 -3.759018 0
M  V30 55 H -4.468097 -1.674062 -3.045020 0
M  V30 56 H -3.381869 -3.618051 1.859867 0
M  V30 57 H -2.817362 -5.946429 2.283269 0
M  V30 58 H -0.117196 -5.911411 -1.035401 0
M  V30 59 H -0.673805 -3.611721 -1.456329 0
M  V30 60 H -0.430567 -1.256949 0.289968 0
M  V30 61 H -0.183231 1.086228 1.417027 0
M  V30 62 H -1.068957 2.635237 1.341589 0
M  V30 63 H 0.465506 3.379827 -0.432140 0
M  V30 64 H 1.305922 3.117541 1.102208 0
M  V30 END ATOM
M  V30 BEGIN BOND
M  V30 1 1 1 2
M  V30 2 1 2 3
M  V30 3 1 3 4
M  V30 4 2 4 5
M  V30 5 1 5 6
M  V30 6 2 6 7
M  V30 7 1 7 8
M  V30 8 2 8 9
M  V30 9 1 2 10
M  V30 10 1 10 11
M  V30 11 1 11 12
M  V30 12 1 12 13
M  V30 13 1 13 14
M  V30 14 1 14 15
M  V30 15 2 15 16
M  V30 16 1 16 17
M  V30 17 1 17 18
M  V30 18 2 18 19
M  V30 19 1 19 20
M  V30 20 2 20 21
M  V30 21 1 21 22
M  V30 22 2 22 23
M  V30 23 2 17 24
M  V30 24 1 24 25
M  V30 25 2 25 26
M  V30 26 1 26 27
M  V30 27 2 27 28
M  V30 28 1 28 29
M  V30 29 1 28 30
M  V30 30 2 30 31
M  V30 31 1 24 32
M  V30 32 1 14 33
M  V30 33 1 33 34
M  V30 34 1 9 4
M  V30 35 1 34 11
M  V30 36 1 32 15
M  V30 37 1 23 18
M  V30 38 1 31 25
M  V30 39 1 1 35
M  V30 40 1 2 36
M  V30 41 1 3 37
M  V30 42 1 3 38
M  V30 43 1 5 39
M  V30 44 1 6 40
M  V30 45 1 7 41
M  V30 46 1 8 42
M  V30 47 1 9 43
M  V30 48 1 10 44
M  V30 49 1 10 45
M  V30 50 1 12 46
M  V30 51 1 12 47
M  V30 52 1 13 48
M  V30 53 1 13 49
M  V30 54 1 14 50
M  V30 55 1 16 51
M  V30 56 1 19 52
M  V30 57 1 20 53
M  V30 58 1 22 54
M  V30 59 1 23 55
M  V30 60 1 26 56
M  V30 61 1 27 57
M  V30 62 1 30 58
M  V30 63 1 31 59
M  V30 64 1 32 60
M  V30 65 1 33 61
M  V30 66 1 33 62
M  V30 67 1 34 63
M  V30 68 1 34 64
M  V30 END BOND
M  V30 END CTAB
M  END
>  <Dataset>  (703) 
ChEMBL_Kinases

>  <Ligand_Instance>  (703) 
nan

>  <PDB_ID>  (703) 
nan

>  <Standardized_SMILES>  (703) 
OC(Cc1ccccc1)CN1CCC(c2cc(-c3ccncc3)c(-c3ccc(F)cc3)[nH]2)CC1

>  <Name>  (703) 
nan

>  <Pocket>  (703) 
nan

>  <ATP_Site>  (703) 
nan

>  <Peripheral>  (703) 
nan

>  <Num_H_Atoms_ProtBoundConf>  (703) 
nan

>  <Num_Resolved_Atoms>  (703) 
nan

>  <Num_Not_Resolved_Atoms>  (703) 
nan

$$$$
CHEMBL198470
     RDKit          3D

  0  0  0  0  0  0  0  0  0  0999 V3000
M  V30 BEGIN CTAB
M  V30 COUNTS 54 56 0 0 0
M  V30 BEGIN ATOM
M  V30 1 C 3.276795 -2.311086 4.376397 0
M  V30 2 C 4.106598 -1.115571 3.914033 0
M  V30 3 C 5.538211 -1.613839 3.835037 0
M  V30 4 C 4.051581 -0.129917 5.047160 0
M  V30 5 O 4.746615 1.033187 4.845446 0
M  V30 6 C 3.623744 -0.598693 2.629613 0
M  V30 7 C 3.148216 0.687012 2.437920 0
M  V30 8 C 2.689901 1.175970 1.235900 0
M  V30 9 C 2.686205 0.366158 0.125512 0
M  V30 10 C 2.224559 0.725534 -1.248928 0
M  V30 11 N 0.811114 0.431617 -1.419801 0
M  V30 12 C -0.261363 1.214608 -0.916375 0
M  V30 13 O -0.033181 2.265582 -0.262653 0
M  V30 14 C -1.668607 0.886583 -1.101987 0
M  V30 15 C -2.617271 1.734745 -0.577791 0
M  V30 16 C -3.989986 1.484797 -0.708031 0
M  V30 17 C -4.444849 0.375147 -1.369149 0
M  V30 18 O -5.780906 0.055800 -1.541033 0
M  V30 19 C -6.137370 -1.101241 -2.218643 0
M  V30 20 C -6.389036 -1.328506 -3.553345 0
M  V30 21 C -6.731597 -2.587724 -3.995115 0
M  V30 22 C -6.830420 -3.645653 -3.115524 0
M  V30 23 Cl -7.271421 -5.238444 -3.728712 0
M  V30 24 C -6.580572 -3.443331 -1.755812 0
M  V30 25 C -6.236524 -2.172224 -1.322290 0
M  V30 26 C -3.461745 -0.451055 -1.880828 0
M  V30 27 C -2.101976 -0.237575 -1.772361 0
M  V30 28 C 3.164363 -0.933807 0.308713 0
M  V30 29 C 3.631588 -1.431481 1.533054 0
M  V30 30 O 4.079550 -2.766352 1.540388 0
M  V30 31 H 2.987750 -2.972940 3.562750 0
M  V30 32 H 2.325775 -1.846263 4.770129 0
M  V30 33 H 3.743454 -2.806868 5.238124 0
M  V30 34 H 5.601620 -2.618194 3.375162 0
M  V30 35 H 6.184456 -0.882412 3.292617 0
M  V30 36 H 5.893527 -1.704961 4.887657 0
M  V30 37 H 4.530232 -0.647422 5.923522 0
M  V30 38 H 2.984296 0.011967 5.310184 0
M  V30 39 H 4.738594 1.550922 5.688502 0
M  V30 40 H 3.112473 1.386813 3.254823 0
M  V30 41 H 2.329620 2.167778 1.101024 0
M  V30 42 H 2.348468 1.817151 -1.361005 0
M  V30 43 H 2.807759 0.151478 -1.969498 0
M  V30 44 H 0.545616 -0.423417 -1.954741 0
M  V30 45 H -2.383553 2.641140 -0.035669 0
M  V30 46 H -4.720708 2.160258 -0.290983 0
M  V30 47 H -6.278097 -0.421180 -4.134987 0
M  V30 48 H -6.914441 -2.677679 -5.069989 0
M  V30 49 H -6.667550 -4.298771 -1.094235 0
M  V30 50 H -6.065719 -2.138591 -0.241828 0
M  V30 51 H -3.775724 -1.341179 -2.411991 0
M  V30 52 H -1.403109 -0.923588 -2.196250 0
M  V30 53 H 3.177459 -1.602744 -0.544066 0
M  V30 54 H 3.546541 -3.434991 0.968656 0
M  V30 END ATOM
M  V30 BEGIN BOND
M  V30 1 1 1 2
M  V30 2 1 2 3
M  V30 3 1 2 4
M  V30 4 1 4 5
M  V30 5 1 2 6
M  V30 6 2 6 7
M  V30 7 1 7 8
M  V30 8 2 8 9
M  V30 9 1 9 10
M  V30 10 1 10 11
M  V30 11 1 11 12
M  V30 12 2 12 13
M  V30 13 1 12 14
M  V30 14 2 14 15
M  V30 15 1 15 16
M  V30 16 2 16 17
M  V30 17 1 17 18
M  V30 18 1 18 19
M  V30 19 2 19 20
M  V30 20 1 20 21
M  V30 21 2 21 22
M  V30 22 1 22 23
M  V30 23 1 22 24
M  V30 24 2 24 25
M  V30 25 1 17 26
M  V30 26 2 26 27
M  V30 27 1 9 28
M  V30 28 2 28 29
M  V30 29 1 29 30
M  V30 30 1 29 6
M  V30 31 1 27 14
M  V30 32 1 25 19
M  V30 33 1 1 31
M  V30 34 1 1 32
M  V30 35 1 1 33
M  V30 36 1 3 34
M  V30 37 1 3 35
M  V30 38 1 3 36
M  V30 39 1 4 37
M  V30 40 1 4 38
M  V30 41 1 5 39
M  V30 42 1 7 40
M  V30 43 1 8 41
M  V30 44 1 10 42
M  V30 45 1 10 43
M  V30 46 1 11 44
M  V30 47 1 15 45
M  V30 48 1 16 46
M  V30 49 1 20 47
M  V30 50 1 21 48
M  V30 51 1 24 49
M  V30 52 1 25 50
M  V30 53 1 26 51
M  V30 54 1 27 52
M  V30 55 1 28 53
M  V30 56 1 30 54
M  V30 END BOND
M  V30 END CTAB
M  END
>  <Dataset>  (704) 
ChEMBL_Kinases

>  <Ligand_Instance>  (704) 
nan

>  <PDB_ID>  (704) 
nan

>  <Standardized_SMILES>  (704) 
CC(C)(CO)c1ccc(CNC(=O)c2ccc(Oc3ccc(Cl)cc3)cc2)cc1O

>  <Name>  (704) 
nan

>  <Pocket>  (704) 
nan

>  <ATP_Site>  (704) 
nan

>  <Peripheral>  (704) 
nan

>  <Num_H_Atoms_ProtBoundConf>  (704) 
nan

>  <Num_Resolved_Atoms>  (704) 
nan

>  <Num_Not_Resolved_Atoms>  (704) 
nan

$$$$
CHEMBL1984688
     RDKit          3D

  0  0  0  0  0  0  0  0  0  0999 V3000
M  V30 BEGIN CTAB
M  V30 COUNTS 31 32 0 0 0
M  V30 BEGIN ATOM
M  V30 1 C -3.104274 -4.444891 3.174595 0
M  V30 2 S -1.552442 -4.118676 4.065550 0
M  V30 3 C -0.290839 -3.476335 2.973914 0
M  V30 4 N 0.820980 -3.246239 3.629870 0
M  V30 5 N -0.356363 -3.208389 1.579655 0
M  V30 6 N 0.635039 -2.348982 1.054297 0
M  V30 7 C 0.198051 -1.476541 0.195689 0
M  V30 8 C 0.786999 -0.396887 -0.612262 0
M  V30 9 C 1.278015 -0.610517 -1.884512 0
M  V30 10 O 1.226353 -1.879736 -2.444956 0
M  V30 11 C 1.833349 0.427076 -2.635842 0
M  V30 12 C 1.859237 1.658541 -2.034953 0
M  V30 13 C 1.384299 1.941651 -0.763258 0
M  V30 14 C 1.467009 3.232536 -0.264388 0
M  V30 15 C 0.970926 3.430038 1.011116 0
M  V30 16 C 0.418502 2.418857 1.769781 0
M  V30 17 C 0.359507 1.139991 1.221472 0
M  V30 18 C 0.839107 0.867503 -0.055482 0
M  V30 19 H -3.232567 -3.732384 2.331242 0
M  V30 20 H -3.981769 -4.346979 3.837477 0
M  V30 21 H -3.063795 -5.445635 2.708301 0
M  V30 22 H 0.883713 -3.434363 4.635368 0
M  V30 23 H -1.179768 -3.724611 1.146670 0
M  V30 24 H -0.856672 -1.406581 -0.102957 0
M  V30 25 H 0.408808 -2.460493 -2.495189 0
M  V30 26 H 2.221222 0.267839 -3.635739 0
M  V30 27 H 2.284765 2.497646 -2.586988 0
M  V30 28 H 1.894951 4.033763 -0.842466 0
M  V30 29 H 1.036299 4.440777 1.400284 0
M  V30 30 H 0.028752 2.588640 2.779725 0
M  V30 31 H -0.062756 0.289069 1.759450 0
M  V30 END ATOM
M  V30 BEGIN BOND
M  V30 1 1 1 2
M  V30 2 1 2 3
M  V30 3 2 3 4 CFG=2
M  V30 4 1 3 5
M  V30 5 1 5 6
M  V30 6 2 6 7
M  V30 7 1 7 8
M  V30 8 2 8 9
M  V30 9 1 9 10
M  V30 10 1 9 11
M  V30 11 2 11 12
M  V30 12 1 12 13
M  V30 13 2 13 14
M  V30 14 1 14 15
M  V30 15 2 15 16
M  V30 16 1 16 17
M  V30 17 2 17 18
M  V30 18 1 18 8
M  V30 19 1 18 13
M  V30 20 1 1 19
M  V30 21 1 1 20
M  V30 22 1 1 21
M  V30 23 1 4 22
M  V30 24 1 5 23
M  V30 25 1 7 24
M  V30 26 1 10 25
M  V30 27 1 11 26
M  V30 28 1 12 27
M  V30 29 1 14 28
M  V30 30 1 15 29
M  V30 31 1 16 30
M  V30 32 1 17 31
M  V30 END BOND
M  V30 END CTAB
M  END
>  <Dataset>  (705) 
ChEMBL_Kinases

>  <Ligand_Instance>  (705) 
nan

>  <PDB_ID>  (705) 
nan

>  <Standardized_SMILES>  (705) 
CSC(=N)N/N=C/c1c(O)ccc2ccccc12

>  <Name>  (705) 
nan

>  <Pocket>  (705) 
nan

>  <ATP_Site>  (705) 
nan

>  <Peripheral>  (705) 
nan

>  <Num_H_Atoms_ProtBoundConf>  (705) 
nan

>  <Num_Resolved_Atoms>  (705) 
nan

>  <Num_Not_Resolved_Atoms>  (705) 
nan

$$$$
CHEMBL1984523
     RDKit          3D

  0  0  0  0  0  0  0  0  0  0999 V3000
M  V30 BEGIN CTAB
M  V30 COUNTS 62 66 0 0 0
M  V30 BEGIN ATOM
M  V30 1 C 3.744242 1.021267 5.708916 0
M  V30 2 O 2.680843 0.102055 5.574688 0
M  V30 3 C 1.889770 0.086176 4.423914 0
M  V30 4 C 2.223338 1.031909 3.449397 0
M  V30 5 C 1.429895 1.015518 2.295913 0
M  V30 6 C 0.374746 0.113049 2.136339 0
M  V30 7 N -0.516936 0.057111 1.070968 0
M  V30 8 C -0.380264 -0.654517 0.034579 0
M  V30 9 C -1.401071 -0.607279 -0.994651 0
M  V30 10 N -2.481990 0.039690 -1.127023 0
M  V30 11 C -2.935311 0.964651 -0.126916 0
M  V30 12 C -3.254969 0.532515 1.139193 0
M  V30 13 C -3.686549 1.365595 2.142342 0
M  V30 14 C -3.784474 2.692769 1.801006 0
M  V30 15 O -4.223824 3.570505 2.817702 0
M  V30 16 C -4.522941 3.035155 4.097026 0
M  V30 17 C -3.499635 3.296505 0.557603 0
M  V30 18 C -3.077665 2.291275 -0.326043 0
M  V30 19 N -0.897182 -1.522055 -1.987264 0
M  V30 20 C -1.565425 -1.835623 -3.208676 0
M  V30 21 C -1.487201 -1.240766 -4.434462 0
M  V30 22 C -2.212985 -1.685906 -5.487183 0
M  V30 23 C -3.083124 -2.752760 -5.441028 0
M  V30 24 C -3.162334 -3.366236 -4.171499 0
M  V30 25 C -2.425259 -2.916061 -3.099716 0
M  V30 26 C 0.329689 -2.074379 -1.585711 0
M  V30 27 S 1.187221 -3.143096 -2.463899 0
M  V30 28 N 0.656265 -1.534696 -0.324988 0
M  V30 29 C 1.803601 -1.832361 0.415541 0
M  V30 30 O 2.524244 -1.714215 1.399908 0
M  V30 31 C 2.771294 -2.755218 -0.106049 0
M  V30 32 C 4.003797 -2.484781 -0.715021 0
M  V30 33 C 4.939395 -3.356798 -1.227380 0
M  V30 34 C 4.520882 -4.648892 -1.076837 0
M  V30 35 Cl 5.693403 -5.828094 -1.707423 0
M  V30 36 C 3.388434 -5.169422 -0.531342 0
M  V30 37 C 2.562290 -4.149877 -0.066535 0
M  V30 38 C 0.129304 -0.782064 3.163043 0
M  V30 39 C 0.861416 -0.836448 4.332318 0
M  V30 40 H 3.952310 1.124224 6.805876 0
M  V30 41 H 3.456571 2.031712 5.326939 0
M  V30 42 H 4.619147 0.645778 5.151959 0
M  V30 43 H 2.981592 1.774955 3.425884 0
M  V30 44 H 1.594995 1.701532 1.479876 0
M  V30 45 H -3.188833 -0.527150 1.431530 0
M  V30 46 H -3.934680 1.028204 3.134117 0
M  V30 47 H -5.309412 2.226676 4.045466 0
M  V30 48 H -3.614535 2.519591 4.530144 0
M  V30 49 H -4.890020 3.840071 4.761309 0
M  V30 50 H -3.586966 4.320141 0.323075 0
M  V30 51 H -2.817349 2.618887 -1.331685 0
M  V30 52 H -0.793542 -0.385141 -4.459255 0
M  V30 53 H -2.099702 -1.155060 -6.448076 0
M  V30 54 H -3.671451 -3.124192 -6.260914 0
M  V30 55 H -3.861918 -4.214368 -4.138857 0
M  V30 56 H -2.637722 -3.531826 -2.217519 0
M  V30 57 H 4.226641 -1.401791 -0.775296 0
M  V30 58 H 5.847545 -3.002778 -1.669535 0
M  V30 59 H 3.151757 -6.201090 -0.459230 0
M  V30 60 H 1.601642 -4.425175 0.403753 0
M  V30 61 H -0.673019 -1.512866 3.107144 0
M  V30 62 H 0.730838 -1.496775 5.166251 0
M  V30 END ATOM
M  V30 BEGIN BOND
M  V30 1 1 1 2
M  V30 2 1 2 3
M  V30 3 2 3 4
M  V30 4 1 4 5
M  V30 5 2 5 6
M  V30 6 1 6 7
M  V30 7 2 7 8
M  V30 8 1 8 9
M  V30 9 2 9 10
M  V30 10 1 10 11
M  V30 11 2 11 12
M  V30 12 1 12 13
M  V30 13 2 13 14
M  V30 14 1 14 15
M  V30 15 1 15 16
M  V30 16 1 14 17
M  V30 17 2 17 18
M  V30 18 1 9 19
M  V30 19 1 19 20
M  V30 20 2 20 21
M  V30 21 1 21 22
M  V30 22 2 22 23
M  V30 23 1 23 24
M  V30 24 2 24 25
M  V30 25 1 19 26
M  V30 26 2 26 27
M  V30 27 1 26 28
M  V30 28 1 28 29
M  V30 29 2 29 30
M  V30 30 1 29 31
M  V30 31 2 31 32
M  V30 32 1 32 33
M  V30 33 2 33 34
M  V30 34 1 34 35
M  V30 35 1 34 36
M  V30 36 2 36 37
M  V30 37 1 6 38
M  V30 38 2 38 39
M  V30 39 1 39 3
M  V30 40 1 28 8
M  V30 41 1 37 31
M  V30 42 1 18 11
M  V30 43 1 25 20
M  V30 44 1 1 40
M  V30 45 1 1 41
M  V30 46 1 1 42
M  V30 47 1 4 43
M  V30 48 1 5 44
M  V30 49 1 12 45
M  V30 50 1 13 46
M  V30 51 1 16 47
M  V30 52 1 16 48
M  V30 53 1 16 49
M  V30 54 1 17 50
M  V30 55 1 18 51
M  V30 56 1 21 52
M  V30 57 1 22 53
M  V30 58 1 23 54
M  V30 59 1 24 55
M  V30 60 1 25 56
M  V30 61 1 32 57
M  V30 62 1 33 58
M  V30 63 1 36 59
M  V30 64 1 37 60
M  V30 65 1 38 61
M  V30 66 1 39 62
M  V30 END BOND
M  V30 END CTAB
M  END
>  <Dataset>  (706) 
ChEMBL_Kinases

>  <Ligand_Instance>  (706) 
nan

>  <PDB_ID>  (706) 
nan

>  <Standardized_SMILES>  (706) 
COc1ccc(/N=C2C(=N\c3ccc(OC)cc3)/N(c3ccccc3)C(=S)N/2C(=O)c2ccc(Cl)cc2)cc1

>  <Name>  (706) 
nan

>  <Pocket>  (706) 
nan

>  <ATP_Site>  (706) 
nan

>  <Peripheral>  (706) 
nan

>  <Num_H_Atoms_ProtBoundConf>  (706) 
nan

>  <Num_Resolved_Atoms>  (706) 
nan

>  <Num_Not_Resolved_Atoms>  (706) 
nan

$$$$
CHEMBL198383
     RDKit          3D

  0  0  0  0  0  0  0  0  0  0999 V3000
M  V30 BEGIN CTAB
M  V30 COUNTS 56 59 0 0 0
M  V30 BEGIN ATOM
M  V30 1 C 0.721757 -3.914100 6.279518 0
M  V30 2 C 1.916160 -3.702977 5.383954 0
M  V30 3 C 1.635728 -2.655466 4.335166 0
M  V30 4 N 2.165535 -2.151500 3.467186 0
M  V30 5 C 1.750263 -1.223635 2.629592 0
M  V30 6 C 2.658073 -0.730534 1.566777 0
M  V30 7 C 3.159585 -1.572128 0.592356 0
M  V30 8 C 3.999302 -1.042950 -0.365759 0
M  V30 9 C 4.340038 0.293004 -0.364989 0
M  V30 10 C 3.820087 1.103030 0.623556 0
M  V30 11 C 4.189483 2.538685 0.620253 0
M  V30 12 C 2.969633 0.601725 1.605933 0
M  V30 13 C 0.472468 -0.784414 2.824301 0
M  V30 14 C -0.169983 0.283189 1.951133 0
M  V30 15 C -0.566475 1.432019 2.595235 0
M  V30 16 C -1.152469 2.429932 1.858558 0
M  V30 17 N -1.308579 2.223554 0.523105 0
M  V30 18 C -0.896635 1.064366 -0.063293 0
M  V30 19 N -1.122073 0.973341 -1.488574 0
M  V30 20 C -2.406191 0.393994 -1.670807 0
M  V30 21 O -3.142819 0.053088 -0.685619 0
M  V30 22 C -3.150118 0.067197 -2.903844 0
M  V30 23 C -4.472098 -0.542358 -2.477328 0
M  V30 24 C -4.307368 -1.953488 -1.969647 0
M  V30 25 C -3.198398 -2.712125 -2.659752 0
M  V30 26 C -3.041807 -2.138011 -4.047213 0
M  V30 27 C -2.378802 -0.777149 -3.862399 0
M  V30 28 C -0.301319 0.023257 0.619233 0
M  V30 29 S -0.070841 -1.774778 4.257757 0
M  V30 30 H 0.982547 -4.204714 7.305816 0
M  V30 31 H 0.134083 -2.968561 6.312195 0
M  V30 32 H 0.018806 -4.691438 5.903461 0
M  V30 33 H 2.135821 -4.690903 4.901195 0
M  V30 34 H 2.809783 -3.403206 5.969086 0
M  V30 35 H 2.888601 -2.614205 0.598734 0
M  V30 36 H 4.381185 -1.723057 -1.121350 0
M  V30 37 H 4.997950 0.716741 -1.112295 0
M  V30 38 H 5.272589 2.710902 0.462189 0
M  V30 39 H 3.817231 3.044381 1.544138 0
M  V30 40 H 3.665691 3.022125 -0.253984 0
M  V30 41 H 2.573633 1.241275 2.366424 0
M  V30 42 H -0.411427 1.529060 3.661074 0
M  V30 43 H -1.454248 3.318327 2.383130 0
M  V30 44 H -0.669937 1.184685 -2.391227 0
M  V30 45 H -3.422118 1.039933 -3.385042 0
M  V30 46 H -5.235944 -0.468561 -3.267491 0
M  V30 47 H -4.838911 0.073687 -1.630054 0
M  V30 48 H -4.161022 -2.040487 -0.887651 0
M  V30 49 H -5.259395 -2.479976 -2.205189 0
M  V30 50 H -3.390474 -3.799710 -2.707705 0
M  V30 51 H -2.260095 -2.511640 -2.094054 0
M  V30 52 H -2.353632 -2.741337 -4.666412 0
M  V30 53 H -4.040550 -1.994388 -4.515134 0
M  V30 54 H -1.360072 -0.975216 -3.488344 0
M  V30 55 H -2.320773 -0.309794 -4.867631 0
M  V30 56 H 0.012043 -0.874557 0.134578 0
M  V30 END ATOM
M  V30 BEGIN BOND
M  V30 1 1 1 2
M  V30 2 1 2 3
M  V30 3 2 3 4
M  V30 4 1 4 5
M  V30 5 1 5 6
M  V30 6 2 6 7
M  V30 7 1 7 8
M  V30 8 2 8 9
M  V30 9 1 9 10
M  V30 10 1 10 11
M  V30 11 2 10 12
M  V30 12 2 5 13
M  V30 13 1 13 14
M  V30 14 2 14 15
M  V30 15 1 15 16
M  V30 16 2 16 17
M  V30 17 1 17 18
M  V30 18 1 18 19
M  V30 19 1 19 20
M  V30 20 2 20 21
M  V30 21 1 20 22
M  V30 22 1 22 23
M  V30 23 1 23 24
M  V30 24 1 24 25
M  V30 25 1 25 26
M  V30 26 1 26 27
M  V30 27 2 18 28
M  V30 28 1 13 29
M  V30 29 1 29 3
M  V30 30 1 12 6
M  V30 31 1 28 14
M  V30 32 1 27 22
M  V30 33 1 1 30
M  V30 34 1 1 31
M  V30 35 1 1 32
M  V30 36 1 2 33
M  V30 37 1 2 34
M  V30 38 1 7 35
M  V30 39 1 8 36
M  V30 40 1 9 37
M  V30 41 1 11 38
M  V30 42 1 11 39
M  V30 43 1 11 40
M  V30 44 1 12 41
M  V30 45 1 15 42
M  V30 46 1 16 43
M  V30 47 1 19 44
M  V30 48 1 22 45
M  V30 49 1 23 46
M  V30 50 1 23 47
M  V30 51 1 24 48
M  V30 52 1 24 49
M  V30 53 1 25 50
M  V30 54 1 25 51
M  V30 55 1 26 52
M  V30 56 1 26 53
M  V30 57 1 27 54
M  V30 58 1 27 55
M  V30 59 1 28 56
M  V30 END BOND
M  V30 END CTAB
M  END
>  <Dataset>  (707) 
ChEMBL_Kinases

>  <Ligand_Instance>  (707) 
nan

>  <PDB_ID>  (707) 
nan

>  <Standardized_SMILES>  (707) 
CCc1nc(-c2cccc(C)c2)c(-c2ccnc(NC(=O)C3CCCCC3)c2)s1

>  <Name>  (707) 
nan

>  <Pocket>  (707) 
nan

>  <ATP_Site>  (707) 
nan

>  <Peripheral>  (707) 
nan

>  <Num_H_Atoms_ProtBoundConf>  (707) 
nan

>  <Num_Resolved_Atoms>  (707) 
nan

>  <Num_Not_Resolved_Atoms>  (707) 
nan

$$$$
CHEMBL1983595
     RDKit          3D

  0  0  0  0  0  0  0  0  0  0999 V3000
M  V30 BEGIN CTAB
M  V30 COUNTS 48 52 0 0 0
M  V30 BEGIN ATOM
M  V30 1 O -0.683314 -4.026030 -1.250219 0
M  V30 2 C -1.378032 -3.487834 -2.135216 0
M  V30 3 N -0.746755 -2.545677 -2.971601 0
M  V30 4 C 0.638985 -2.407345 -2.595457 0
M  V30 5 N 1.618691 -3.150902 -3.114075 0
M  V30 6 N 2.790384 -2.800787 -2.578593 0
M  V30 7 C 2.512826 -1.801982 -1.696710 0
M  V30 8 C 3.385177 -1.111669 -0.897375 0
M  V30 9 C 2.840268 -0.136493 -0.085207 0
M  V30 10 C 1.486464 0.146665 -0.062643 0
M  V30 11 C 0.957022 1.190286 0.816143 0
M  V30 12 C 1.715140 1.965061 1.673918 0
M  V30 13 N 0.898587 2.818527 2.324160 0
M  V30 14 C 1.357373 3.795608 3.317196 0
M  V30 15 C 1.333974 3.179849 4.685933 0
M  V30 16 C 0.205572 3.256448 5.494189 0
M  V30 17 C 0.189683 2.687863 6.753122 0
M  V30 18 C 1.333013 2.042340 7.177890 0
M  V30 19 C 2.484214 1.925590 6.437847 0
M  V30 20 C 2.430699 2.514881 5.193598 0
M  V30 21 N -0.335636 2.595974 1.896431 0
M  V30 22 N -0.310543 1.614001 0.985152 0
M  V30 23 C 0.620344 -0.558384 -0.874607 0
M  V30 24 C 1.179273 -1.528753 -1.679792 0
M  V30 25 C -2.782836 -3.866452 -2.243290 0
M  V30 26 C -3.264882 -4.804509 -1.353990 0
M  V30 27 C -4.579165 -5.220790 -1.383972 0
M  V30 28 C -5.426650 -4.681475 -2.329241 0
M  V30 29 C -4.986052 -3.734894 -3.244306 0
M  V30 30 Cl -6.056098 -3.045641 -4.447344 0
M  V30 31 C -3.643649 -3.344879 -3.173364 0
M  V30 32 H -1.314570 -2.072858 -3.732692 0
M  V30 33 H 3.719887 -3.212690 -2.796893 0
M  V30 34 H 4.461523 -1.287834 -0.869659 0
M  V30 35 H 3.490902 0.432927 0.561848 0
M  V30 36 H 2.799062 1.916423 1.821925 0
M  V30 37 H 2.385541 4.094930 3.035462 0
M  V30 38 H 0.650409 4.635711 3.310738 0
M  V30 39 H -0.645051 3.794282 5.052074 0
M  V30 40 H -0.701158 2.769439 7.344993 0
M  V30 41 H 1.261269 1.611145 8.184266 0
M  V30 42 H 3.361318 1.410141 6.808024 0
M  V30 43 H 3.298279 2.469853 4.541790 0
M  V30 44 H -0.454441 -0.372803 -0.893261 0
M  V30 45 H -2.625573 -5.249739 -0.596897 0
M  V30 46 H -4.970800 -5.968652 -0.677804 0
M  V30 47 H -6.470589 -5.006113 -2.359949 0
M  V30 48 H -3.286061 -2.609974 -3.877815 0
M  V30 END ATOM
M  V30 BEGIN BOND
M  V30 1 2 1 2
M  V30 2 1 2 3
M  V30 3 1 3 4
M  V30 4 2 4 5
M  V30 5 1 5 6
M  V30 6 1 6 7
M  V30 7 2 7 8
M  V30 8 1 8 9
M  V30 9 2 9 10
M  V30 10 1 10 11
M  V30 11 2 11 12
M  V30 12 1 12 13
M  V30 13 1 13 14
M  V30 14 1 14 15
M  V30 15 2 15 16
M  V30 16 1 16 17
M  V30 17 2 17 18
M  V30 18 1 18 19
M  V30 19 2 19 20
M  V30 20 1 13 21
M  V30 21 2 21 22
M  V30 22 1 10 23
M  V30 23 2 23 24
M  V30 24 1 2 25
M  V30 25 2 25 26
M  V30 26 1 26 27
M  V30 27 2 27 28
M  V30 28 1 28 29
M  V30 29 1 29 30
M  V30 30 2 29 31
M  V30 31 1 24 4
M  V30 32 1 31 25
M  V30 33 1 24 7
M  V30 34 1 22 11
M  V30 35 1 20 15
M  V30 36 1 3 32
M  V30 37 1 6 33
M  V30 38 1 8 34
M  V30 39 1 9 35
M  V30 40 1 12 36
M  V30 41 1 14 37
M  V30 42 1 14 38
M  V30 43 1 16 39
M  V30 44 1 17 40
M  V30 45 1 18 41
M  V30 46 1 19 42
M  V30 47 1 20 43
M  V30 48 1 23 44
M  V30 49 1 26 45
M  V30 50 1 27 46
M  V30 51 1 28 47
M  V30 52 1 31 48
M  V30 END BOND
M  V30 END CTAB
M  END
>  <Dataset>  (708) 
ChEMBL_Kinases

>  <Ligand_Instance>  (708) 
nan

>  <PDB_ID>  (708) 
nan

>  <Standardized_SMILES>  (708) 
O=C(Nc1n[nH]c2ccc(-c3cn(Cc4ccccc4)nn3)cc12)c1cccc(Cl)c1

>  <Name>  (708) 
nan

>  <Pocket>  (708) 
nan

>  <ATP_Site>  (708) 
nan

>  <Peripheral>  (708) 
nan

>  <Num_H_Atoms_ProtBoundConf>  (708) 
nan

>  <Num_Resolved_Atoms>  (708) 
nan

>  <Num_Not_Resolved_Atoms>  (708) 
nan

$$$$
CHEMBL198352
     RDKit          3D

  0  0  0  0  0  0  0  0  0  0999 V3000
M  V30 BEGIN CTAB
M  V30 COUNTS 58 61 0 0 0
M  V30 BEGIN ATOM
M  V30 1 C 1.736509 2.219476 5.309372 0
M  V30 2 C 2.478604 0.953673 5.006957 0
M  V30 3 O 3.839073 1.103919 5.112569 0
M  V30 4 C 2.033752 0.333156 3.685571 0
M  V30 5 O 2.595294 -0.928419 3.559352 0
M  V30 6 C 2.595010 1.204415 2.582830 0
M  V30 7 N 2.311097 0.720248 1.277410 0
M  V30 8 C 2.873041 1.588882 0.268987 0
M  V30 9 C 1.925020 1.461210 -0.930914 0
M  V30 10 C 1.927007 0.031407 -1.344084 0
M  V30 11 C 0.566552 -0.594666 -1.335868 0
M  V30 12 C -0.360316 -0.674856 -0.293879 0
M  V30 13 C -1.495285 -1.355013 -0.752625 0
M  V30 14 C -2.649358 -1.594058 0.124830 0
M  V30 15 C -2.679497 -2.299419 1.298549 0
M  V30 16 C -3.847615 -2.435426 2.017101 0
M  V30 17 N -5.009990 -1.868428 1.575878 0
M  V30 18 C -5.053936 -1.160007 0.428244 0
M  V30 19 C -3.869074 -1.039610 -0.271615 0
M  V30 20 C -1.237456 -1.678668 -2.073437 0
M  V30 21 C -2.252117 -2.404086 -2.828078 0
M  V30 22 C -2.527310 -3.669750 -2.337026 0
M  V30 23 C -3.447338 -4.536300 -2.884369 0
M  V30 24 C -4.115254 -4.048415 -4.008316 0
M  V30 25 F -5.038935 -4.870818 -4.587942 0
M  V30 26 C -3.880356 -2.801384 -4.535970 0
M  V30 27 C -2.948472 -1.968117 -3.952666 0
M  V30 28 N -0.011861 -1.207492 -2.363008 0
M  V30 29 C 2.861340 -0.792916 -0.491876 0
M  V30 30 C 2.657609 -0.625766 0.991147 0
M  V30 31 H 1.025611 2.119105 6.180734 0
M  V30 32 H 1.171776 2.636548 4.450028 0
M  V30 33 H 2.450732 3.019002 5.628102 0
M  V30 34 H 2.190367 0.228023 5.826182 0
M  V30 35 H 4.329718 0.288363 5.327344 0
M  V30 36 H 0.939920 0.319111 3.719099 0
M  V30 37 H 3.537669 -0.863627 3.853903 0
M  V30 38 H 2.068519 2.198140 2.675485 0
M  V30 39 H 3.650808 1.408187 2.781095 0
M  V30 40 H 2.960317 2.645001 0.587699 0
M  V30 41 H 3.857956 1.247456 -0.056929 0
M  V30 42 H 0.922402 1.841068 -0.644045 0
M  V30 43 H 2.302014 2.150945 -1.711117 0
M  V30 44 H 2.339964 -0.024813 -2.378528 0
M  V30 45 H -0.222796 -0.282455 0.682362 0
M  V30 46 H -1.724510 -2.726956 1.597525 0
M  V30 47 H -3.779906 -3.007227 2.930325 0
M  V30 48 H -5.959890 -0.701725 0.057716 0
M  V30 49 H -3.904347 -0.464071 -1.206040 0
M  V30 50 H -2.018447 -4.085639 -1.452265 0
M  V30 51 H -3.643012 -5.520251 -2.480241 0
M  V30 52 H -4.396259 -2.429138 -5.400976 0
M  V30 53 H -2.680333 -0.972048 -4.276889 0
M  V30 54 H 0.372969 -1.357270 -3.341560 0
M  V30 55 H 2.592776 -1.866290 -0.724986 0
M  V30 56 H 3.921236 -0.649732 -0.787701 0
M  V30 57 H 1.833741 -1.307229 1.344817 0
M  V30 58 H 3.629873 -0.943098 1.459005 0
M  V30 END ATOM
M  V30 BEGIN BOND
M  V30 1 1 1 2
M  V30 2 1 2 3
M  V30 3 1 2 4
M  V30 4 1 4 5
M  V30 5 1 4 6
M  V30 6 1 6 7
M  V30 7 1 7 8
M  V30 8 1 8 9
M  V30 9 1 9 10
M  V30 10 1 10 11
M  V30 11 2 11 12
M  V30 12 1 12 13
M  V30 13 1 13 14
M  V30 14 2 14 15
M  V30 15 1 15 16
M  V30 16 2 16 17
M  V30 17 1 17 18
M  V30 18 2 18 19
M  V30 19 2 13 20
M  V30 20 1 20 21
M  V30 21 2 21 22
M  V30 22 1 22 23
M  V30 23 2 23 24
M  V30 24 1 24 25
M  V30 25 1 24 26
M  V30 26 2 26 27
M  V30 27 1 20 28
M  V30 28 1 10 29
M  V30 29 1 29 30
M  V30 30 1 30 7
M  V30 31 1 28 11
M  V30 32 1 19 14
M  V30 33 1 27 21
M  V30 34 1 1 31
M  V30 35 1 1 32
M  V30 36 1 1 33
M  V30 37 1 2 34
M  V30 38 1 3 35
M  V30 39 1 4 36
M  V30 40 1 5 37
M  V30 41 1 6 38
M  V30 42 1 6 39
M  V30 43 1 8 40
M  V30 44 1 8 41
M  V30 45 1 9 42
M  V30 46 1 9 43
M  V30 47 1 10 44
M  V30 48 1 12 45
M  V30 49 1 15 46
M  V30 50 1 16 47
M  V30 51 1 18 48
M  V30 52 1 19 49
M  V30 53 1 22 50
M  V30 54 1 23 51
M  V30 55 1 26 52
M  V30 56 1 27 53
M  V30 57 1 28 54
M  V30 58 1 29 55
M  V30 59 1 29 56
M  V30 60 1 30 57
M  V30 61 1 30 58
M  V30 END BOND
M  V30 END CTAB
M  END
>  <Dataset>  (709) 
ChEMBL_Kinases

>  <Ligand_Instance>  (709) 
nan

>  <PDB_ID>  (709) 
nan

>  <Standardized_SMILES>  (709) 
CC(O)C(O)CN1CCC(c2cc(-c3ccncc3)c(-c3ccc(F)cc3)[nH]2)CC1

>  <Name>  (709) 
nan

>  <Pocket>  (709) 
nan

>  <ATP_Site>  (709) 
nan

>  <Peripheral>  (709) 
nan

>  <Num_H_Atoms_ProtBoundConf>  (709) 
nan

>  <Num_Resolved_Atoms>  (709) 
nan

>  <Num_Not_Resolved_Atoms>  (709) 
nan

$$$$
CHEMBL198334
     RDKit          3D

  0  0  0  0  0  0  0  0  0  0999 V3000
M  V30 BEGIN CTAB
M  V30 COUNTS 36 38 0 0 0
M  V30 BEGIN ATOM
M  V30 1 C -2.129420 -3.172758 4.247300 0
M  V30 2 C -2.487678 -3.421752 2.797680 0
M  V30 3 C -1.827937 -2.372532 1.954672 0
M  V30 4 N -0.777944 -2.287333 1.403387 0
M  V30 5 C -0.369088 -1.254809 0.690468 0
M  V30 6 C 0.939993 -1.226279 0.043106 0
M  V30 7 C 1.219075 -2.179999 -0.940787 0
M  V30 8 C 2.440539 -2.206727 -1.592590 0
M  V30 9 C 3.428440 -1.292863 -1.295469 0
M  V30 10 C 3.160188 -0.348596 -0.325511 0
M  V30 11 C 4.226933 0.639939 -0.001969 0
M  V30 12 C 1.940687 -0.306409 0.338709 0
M  V30 13 C -1.254239 -0.176585 0.581672 0
M  V30 14 C -1.031808 1.066409 -0.145858 0
M  V30 15 C -1.078610 2.169593 0.683986 0
M  V30 16 C -0.892298 3.458194 0.192778 0
M  V30 17 N -0.664341 3.562185 -1.137255 0
M  V30 18 C -0.618164 2.479589 -1.953412 0
M  V30 19 C -0.800433 1.191215 -1.486025 0
M  V30 20 S -2.676690 -0.751330 1.557678 0
M  V30 21 H -1.067594 -3.317665 4.475676 0
M  V30 22 H -2.775735 -3.779525 4.898854 0
M  V30 23 H -2.381138 -2.086570 4.420010 0
M  V30 24 H -2.145369 -4.367974 2.392303 0
M  V30 25 H -3.597141 -3.321590 2.737324 0
M  V30 26 H 0.517681 -2.948228 -1.257946 0
M  V30 27 H 2.660148 -2.947058 -2.357998 0
M  V30 28 H 4.376116 -1.331935 -1.817432 0
M  V30 29 H 4.108811 1.089136 0.989047 0
M  V30 30 H 4.236568 1.411405 -0.800091 0
M  V30 31 H 5.201775 0.103927 -0.089343 0
M  V30 32 H 1.725882 0.422748 1.092494 0
M  V30 33 H -1.258484 2.151891 1.763970 0
M  V30 34 H -0.923314 4.337193 0.817970 0
M  V30 35 H -0.433321 2.594028 -3.018164 0
M  V30 36 H -0.778421 0.294192 -2.064253 0
M  V30 END ATOM
M  V30 BEGIN BOND
M  V30 1 1 1 2
M  V30 2 1 2 3
M  V30 3 2 3 4
M  V30 4 1 4 5
M  V30 5 1 5 6
M  V30 6 2 6 7
M  V30 7 1 7 8
M  V30 8 2 8 9
M  V30 9 1 9 10
M  V30 10 1 10 11
M  V30 11 2 10 12
M  V30 12 2 5 13
M  V30 13 1 13 14
M  V30 14 2 14 15
M  V30 15 1 15 16
M  V30 16 2 16 17
M  V30 17 1 17 18
M  V30 18 2 18 19
M  V30 19 1 13 20
M  V30 20 1 20 3
M  V30 21 1 12 6
M  V30 22 1 19 14
M  V30 23 1 1 21
M  V30 24 1 1 22
M  V30 25 1 1 23
M  V30 26 1 2 24
M  V30 27 1 2 25
M  V30 28 1 7 26
M  V30 29 1 8 27
M  V30 30 1 9 28
M  V30 31 1 11 29
M  V30 32 1 11 30
M  V30 33 1 11 31
M  V30 34 1 12 32
M  V30 35 1 15 33
M  V30 36 1 16 34
M  V30 37 1 18 35
M  V30 38 1 19 36
M  V30 END BOND
M  V30 END CTAB
M  END
>  <Dataset>  (710) 
ChEMBL_Kinases

>  <Ligand_Instance>  (710) 
nan

>  <PDB_ID>  (710) 
nan

>  <Standardized_SMILES>  (710) 
CCc1nc(-c2cccc(C)c2)c(-c2ccncc2)s1

>  <Name>  (710) 
nan

>  <Pocket>  (710) 
nan

>  <ATP_Site>  (710) 
nan

>  <Peripheral>  (710) 
nan

>  <Num_H_Atoms_ProtBoundConf>  (710) 
nan

>  <Num_Resolved_Atoms>  (710) 
nan

>  <Num_Not_Resolved_Atoms>  (710) 
nan

$$$$
CHEMBL198323
     RDKit          3D

  0  0  0  0  0  0  0  0  0  0999 V3000
M  V30 BEGIN CTAB
M  V30 COUNTS 61 65 0 0 0
M  V30 BEGIN ATOM
M  V30 1 C 3.160534 -2.992606 5.809934 0
M  V30 2 C 3.242466 -2.312579 4.497150 0
M  V30 3 C 4.473911 -2.139082 3.899513 0
M  V30 4 C 4.587852 -1.507909 2.672957 0
M  V30 5 C 3.399085 -1.069953 2.097049 0
M  V30 6 C 2.132900 -1.231404 2.679079 0
M  V30 7 C 1.032803 -0.688194 1.891818 0
M  V30 8 N 0.818189 0.589385 1.650241 0
M  V30 9 C 0.002609 1.101678 1.058587 0
M  V30 10 C -0.384120 2.521502 0.689517 0
M  V30 11 C 0.379269 3.584708 1.125974 0
M  V30 12 C -0.047819 4.838311 0.741840 0
M  V30 13 C -1.176417 5.000798 -0.034730 0
M  V30 14 S -1.652902 6.614931 -0.480047 0
M  V30 15 C -2.760131 7.346696 0.711509 0
M  V30 16 O -0.434409 7.473765 -0.531871 0
M  V30 17 O -2.323497 6.651748 -1.824944 0
M  V30 18 C -1.939744 3.937684 -0.471148 0
M  V30 19 C -1.493129 2.691009 -0.074327 0
M  V30 20 S -0.981426 -0.366934 0.501511 0
M  V30 21 C 0.160417 -1.523684 1.362867 0
M  V30 22 C -0.127478 -2.969728 1.276426 0
M  V30 23 C -0.484037 -3.773360 2.339710 0
M  V30 24 C -0.719577 -5.088943 2.128801 0
M  V30 25 N -0.623889 -5.653964 0.933465 0
M  V30 26 C -0.281053 -4.959328 -0.181782 0
M  V30 27 N -0.167871 -5.570339 -1.454973 0
M  V30 28 C 0.081704 -5.105422 -2.799371 0
M  V30 29 C -1.072517 -4.291404 -3.243446 0
M  V30 30 C -2.122857 -5.061414 -3.760726 0
M  V30 31 C -3.294254 -4.544735 -4.249004 0
M  V30 32 C -3.497028 -3.181533 -4.251504 0
M  V30 33 C -2.471296 -2.402931 -3.744935 0
M  V30 34 C -1.307375 -2.936336 -3.261325 0
M  V30 35 C -0.046577 -3.622441 0.062380 0
M  V30 36 C 2.092961 -1.859732 3.884332 0
M  V30 37 H 2.262174 -3.632179 5.812037 0
M  V30 38 H 4.090474 -3.541563 6.035297 0
M  V30 39 H 2.997493 -2.214472 6.582873 0
M  V30 40 H 5.414219 -2.476003 4.336985 0
M  V30 41 H 5.526267 -1.356496 2.181013 0
M  V30 42 H 3.521402 -0.571722 1.121621 0
M  V30 43 H 1.231444 3.300865 1.724555 0
M  V30 44 H 0.577141 5.653121 1.103440 0
M  V30 45 H -3.456942 6.565084 1.105094 0
M  V30 46 H -3.374991 8.110202 0.225647 0
M  V30 47 H -2.223262 7.732535 1.603466 0
M  V30 48 H -2.808361 4.143254 -1.074917 0
M  V30 49 H -2.095849 1.839582 -0.418047 0
M  V30 50 H -0.564984 -3.314961 3.313929 0
M  V30 51 H -1.002852 -5.769287 2.926559 0
M  V30 52 H -0.301530 -6.631011 -1.395794 0
M  V30 53 H 0.215640 -5.967001 -3.472402 0
M  V30 54 H 1.006794 -4.468697 -2.834559 0
M  V30 55 H -2.093596 -6.149752 -3.817924 0
M  V30 56 H -4.097559 -5.133940 -4.644652 0
M  V30 57 H -4.346326 -2.625785 -4.593602 0
M  V30 58 H -2.535590 -1.320821 -3.703967 0
M  V30 59 H -0.495084 -2.360614 -2.875459 0
M  V30 60 H 0.241051 -2.997846 -0.768148 0
M  V30 61 H 1.129712 -1.971372 4.311860 0
M  V30 END ATOM
M  V30 BEGIN BOND
M  V30 1 1 1 2
M  V30 2 2 2 3
M  V30 3 1 3 4
M  V30 4 2 4 5
M  V30 5 1 5 6
M  V30 6 1 6 7
M  V30 7 1 7 8
M  V30 8 2 8 9
M  V30 9 1 9 10
M  V30 10 2 10 11
M  V30 11 1 11 12
M  V30 12 2 12 13
M  V30 13 1 13 14
M  V30 14 1 14 15
M  V30 15 2 14 16
M  V30 16 2 14 17
M  V30 17 1 13 18
M  V30 18 2 18 19
M  V30 19 1 9 20
M  V30 20 1 20 21
M  V30 21 1 21 22
M  V30 22 2 22 23
M  V30 23 1 23 24
M  V30 24 2 24 25
M  V30 25 1 25 26
M  V30 26 1 26 27
M  V30 27 1 27 28
M  V30 28 1 28 29
M  V30 29 2 29 30
M  V30 30 1 30 31
M  V30 31 2 31 32
M  V30 32 1 32 33
M  V30 33 2 33 34
M  V30 34 2 26 35
M  V30 35 2 6 36
M  V30 36 1 36 2
M  V30 37 2 21 7
M  V30 38 1 35 22
M  V30 39 1 19 10
M  V30 40 1 34 29
M  V30 41 1 1 37
M  V30 42 1 1 38
M  V30 43 1 1 39
M  V30 44 1 3 40
M  V30 45 1 4 41
M  V30 46 1 5 42
M  V30 47 1 11 43
M  V30 48 1 12 44
M  V30 49 1 15 45
M  V30 50 1 15 46
M  V30 51 1 15 47
M  V30 52 1 18 48
M  V30 53 1 19 49
M  V30 54 1 23 50
M  V30 55 1 24 51
M  V30 56 1 27 52
M  V30 57 1 28 53
M  V30 58 1 28 54
M  V30 59 1 30 55
M  V30 60 1 31 56
M  V30 61 1 32 57
M  V30 62 1 33 58
M  V30 63 1 34 59
M  V30 64 1 35 60
M  V30 65 1 36 61
M  V30 END BOND
M  V30 END CTAB
M  END
>  <Dataset>  (711) 
ChEMBL_Kinases

>  <Ligand_Instance>  (711) 
nan

>  <PDB_ID>  (711) 
nan

>  <Standardized_SMILES>  (711) 
Cc1cccc(-c2nc(-c3ccc(S(C)(=O)=O)cc3)sc2-c2ccnc(NCc3ccccc3)c2)c1

>  <Name>  (711) 
nan

>  <Pocket>  (711) 
nan

>  <ATP_Site>  (711) 
nan

>  <Peripheral>  (711) 
nan

>  <Num_H_Atoms_ProtBoundConf>  (711) 
nan

>  <Num_Resolved_Atoms>  (711) 
nan

>  <Num_Not_Resolved_Atoms>  (711) 
nan

$$$$
CHEMBL198233
     RDKit          3D

  0  0  0  0  0  0  0  0  0  0999 V3000
M  V30 BEGIN CTAB
M  V30 COUNTS 63 66 0 0 0
M  V30 BEGIN ATOM
M  V30 1 C 1.192812 -0.319519 6.058340 0
M  V30 2 C 2.141138 -0.244838 4.853100 0
M  V30 3 C 1.354930 -0.381915 3.607071 0
M  V30 4 C 2.061920 -0.352664 2.319600 0
M  V30 5 C 2.835683 0.828514 1.923328 0
M  V30 6 O 3.364525 0.525852 0.632259 0
M  V30 7 C 2.176851 2.150097 1.777607 0
M  V30 8 N 1.113458 2.323493 0.917124 0
M  V30 9 C -0.161061 1.823440 1.213576 0
M  V30 10 C -1.228466 2.407501 0.274485 0
M  V30 11 C -0.820275 2.077533 -1.165758 0
M  V30 12 C -1.069718 0.597982 -1.342412 0
M  V30 13 C -2.299287 0.109077 -1.731218 0
M  V30 14 C -2.117887 -1.263029 -1.763848 0
M  V30 15 C -3.207424 -2.202238 -2.115559 0
M  V30 16 C -3.962152 -2.429209 -0.950969 0
M  V30 17 C -5.061983 -3.270733 -0.956865 0
M  V30 18 N -5.383584 -3.866025 -2.124655 0
M  V30 19 C -4.672811 -3.658196 -3.242965 0
M  V30 20 C -3.579740 -2.834536 -3.279481 0
M  V30 21 C -0.812835 -1.560556 -1.403733 0
M  V30 22 C -0.373145 -2.946480 -1.355372 0
M  V30 23 C 0.274210 -3.739011 -2.278299 0
M  V30 24 C 0.580323 -5.045402 -1.968746 0
M  V30 25 C 0.274149 -5.640176 -0.755417 0
M  V30 26 F 0.584116 -6.908569 -0.491073 0
M  V30 27 C -0.380537 -4.830856 0.172580 0
M  V30 28 C -0.705709 -3.498185 -0.112423 0
M  V30 29 N -0.192192 -0.398474 -1.150732 0
M  V30 30 C 0.595822 2.425373 -1.425057 0
M  V30 31 C 1.161556 3.164898 -0.206404 0
M  V30 32 H 1.436713 0.438935 6.818246 0
M  V30 33 H 1.192174 -1.355054 6.475308 0
M  V30 34 H 0.171896 -0.102688 5.688299 0
M  V30 35 H 2.872751 -1.068127 5.007361 0
M  V30 36 H 2.687027 0.701846 4.966242 0
M  V30 37 H 0.503097 0.346892 3.602338 0
M  V30 38 H 0.834764 -1.382911 3.673213 0
M  V30 39 H 2.834706 -1.215459 2.325694 0
M  V30 40 H 1.399428 -0.680369 1.498191 0
M  V30 41 H 3.784332 0.964456 2.518842 0
M  V30 42 H 3.170861 -0.376986 0.342709 0
M  V30 43 H 1.909082 2.582522 2.798987 0
M  V30 44 H 3.017957 2.863646 1.463538 0
M  V30 45 H -0.296964 0.742744 1.177591 0
M  V30 46 H -0.407457 2.153879 2.274315 0
M  V30 47 H -1.379100 3.479693 0.420966 0
M  V30 48 H -2.168781 1.878704 0.469123 0
M  V30 49 H -1.541414 2.631829 -1.785840 0
M  V30 50 H -3.176801 0.666228 -1.953859 0
M  V30 51 H -3.804852 -2.007662 0.048706 0
M  V30 52 H -5.677846 -3.483768 -0.094815 0
M  V30 53 H -4.885659 -4.113035 -4.214070 0
M  V30 54 H -2.903692 -2.549762 -4.062589 0
M  V30 55 H 0.469643 -3.201222 -3.185297 0
M  V30 56 H 1.084039 -5.605969 -2.741672 0
M  V30 57 H -0.613116 -5.307835 1.113979 0
M  V30 58 H -1.216315 -3.008259 0.728313 0
M  V30 59 H 0.804480 -0.332096 -0.856790 0
M  V30 60 H 1.226643 1.548780 -1.643308 0
M  V30 61 H 0.662311 3.194627 -2.250967 0
M  V30 62 H 0.490994 4.068068 -0.085760 0
M  V30 63 H 2.180948 3.552639 -0.444784 0
M  V30 END ATOM
M  V30 BEGIN BOND
M  V30 1 1 1 2
M  V30 2 1 2 3
M  V30 3 1 3 4
M  V30 4 1 4 5
M  V30 5 1 5 6
M  V30 6 1 5 7
M  V30 7 1 7 8
M  V30 8 1 8 9
M  V30 9 1 9 10
M  V30 10 1 10 11
M  V30 11 1 11 12
M  V30 12 2 12 13
M  V30 13 1 13 14
M  V30 14 1 14 15
M  V30 15 2 15 16
M  V30 16 1 16 17
M  V30 17 2 17 18
M  V30 18 1 18 19
M  V30 19 2 19 20
M  V30 20 2 14 21
M  V30 21 1 21 22
M  V30 22 2 22 23
M  V30 23 1 23 24
M  V30 24 2 24 25
M  V30 25 1 25 26
M  V30 26 1 25 27
M  V30 27 2 27 28
M  V30 28 1 21 29
M  V30 29 1 11 30
M  V30 30 1 30 31
M  V30 31 1 31 8
M  V30 32 1 29 12
M  V30 33 1 20 15
M  V30 34 1 28 22
M  V30 35 1 1 32
M  V30 36 1 1 33
M  V30 37 1 1 34
M  V30 38 1 2 35
M  V30 39 1 2 36
M  V30 40 1 3 37
M  V30 41 1 3 38
M  V30 42 1 4 39
M  V30 43 1 4 40
M  V30 44 1 5 41
M  V30 45 1 6 42
M  V30 46 1 7 43
M  V30 47 1 7 44
M  V30 48 1 9 45
M  V30 49 1 9 46
M  V30 50 1 10 47
M  V30 51 1 10 48
M  V30 52 1 11 49
M  V30 53 1 13 50
M  V30 54 1 16 51
M  V30 55 1 17 52
M  V30 56 1 19 53
M  V30 57 1 20 54
M  V30 58 1 23 55
M  V30 59 1 24 56
M  V30 60 1 27 57
M  V30 61 1 28 58
M  V30 62 1 29 59
M  V30 63 1 30 60
M  V30 64 1 30 61
M  V30 65 1 31 62
M  V30 66 1 31 63
M  V30 END BOND
M  V30 END CTAB
M  END
>  <Dataset>  (712) 
ChEMBL_Kinases

>  <Ligand_Instance>  (712) 
nan

>  <PDB_ID>  (712) 
nan

>  <Standardized_SMILES>  (712) 
CCCCC(O)CN1CCC(c2cc(-c3ccncc3)c(-c3ccc(F)cc3)[nH]2)CC1

>  <Name>  (712) 
nan

>  <Pocket>  (712) 
nan

>  <ATP_Site>  (712) 
nan

>  <Peripheral>  (712) 
nan

>  <Num_H_Atoms_ProtBoundConf>  (712) 
nan

>  <Num_Resolved_Atoms>  (712) 
nan

>  <Num_Not_Resolved_Atoms>  (712) 
nan

$$$$
CHEMBL1981833
     RDKit          3D

  0  0  0  0  0  0  0  0  0  0999 V3000
M  V30 BEGIN CTAB
M  V30 COUNTS 55 58 0 0 0
M  V30 BEGIN ATOM
M  V30 1 C 4.673231 -5.471730 1.253958 0
M  V30 2 O 4.877228 -4.136725 0.843890 0
M  V30 3 C 3.793436 -3.273539 0.584932 0
M  V30 4 C 4.155420 -2.002736 0.187534 0
M  V30 5 C 3.073504 -1.136885 -0.070071 0
M  V30 6 C 1.796463 -1.582328 0.079108 0
M  V30 7 N 0.675038 -0.746904 -0.168429 0
M  V30 8 C 0.639291 0.510533 -0.067224 0
M  V30 9 O 1.679229 1.216517 0.292380 0
M  V30 10 C 1.660380 2.508190 0.397919 0
M  V30 11 C 2.763035 3.255962 0.780074 0
M  V30 12 C 2.671818 4.641496 0.874702 0
M  V30 13 O 3.833897 5.315454 1.269285 0
M  V30 14 C 1.477267 5.276935 0.586007 0
M  V30 15 C 0.360592 4.580355 0.203604 0
M  V30 16 C 0.496512 3.214068 0.124035 0
M  V30 17 C -0.627960 2.505117 -0.258762 0
M  V30 18 C -0.546076 1.123046 -0.352827 0
M  V30 19 C -1.772929 0.427615 -0.739311 0
M  V30 20 O -1.764216 -0.601216 -1.451370 0
M  V30 21 N -3.036425 0.914942 -0.304607 0
M  V30 22 C -4.357154 0.395898 -0.551096 0
M  V30 23 C -4.608068 -0.976527 -0.019260 0
M  V30 24 C -4.218901 -1.077969 1.456327 0
M  V30 25 C -4.361156 -2.597459 1.627215 0
M  V30 26 C -4.087613 -3.068771 0.220154 0
M  V30 27 O -3.777409 -1.949567 -0.550214 0
M  V30 28 C 1.415195 -2.865614 0.479238 0
M  V30 29 O 0.116225 -3.267537 0.613071 0
M  V30 30 C -0.260161 -4.551707 1.012470 0
M  V30 31 C 2.501942 -3.713129 0.732632 0
M  V30 32 H 4.117618 -6.054077 0.498849 0
M  V30 33 H 5.670463 -5.960326 1.335865 0
M  V30 34 H 4.093765 -5.521013 2.194162 0
M  V30 35 H 5.179441 -1.707714 0.089092 0
M  V30 36 H 3.354886 -0.149433 -0.383071 0
M  V30 37 H 3.691946 2.726632 0.999014 0
M  V30 38 H 3.868768 6.345773 1.286850 0
M  V30 39 H 1.450672 6.335368 0.667655 0
M  V30 40 H -0.567083 5.080780 -0.021271 0
M  V30 41 H -1.557724 3.029216 -0.480089 0
M  V30 42 H -2.964554 1.794511 0.293327 0
M  V30 43 H -5.107170 1.065371 -0.091513 0
M  V30 44 H -4.574938 0.448708 -1.653165 0
M  V30 45 H -5.662451 -1.280271 -0.058705 0
M  V30 46 H -3.145893 -0.845222 1.561484 0
M  V30 47 H -4.884489 -0.528252 2.122422 0
M  V30 48 H -3.629036 -2.969882 2.371098 0
M  V30 49 H -5.417531 -2.863107 1.916057 0
M  V30 50 H -5.044653 -3.467327 -0.202774 0
M  V30 51 H -3.280655 -3.798139 0.128331 0
M  V30 52 H -1.112704 -4.895509 0.349661 0
M  V30 53 H 0.514323 -5.319176 0.992898 0
M  V30 54 H -0.687420 -4.554070 2.058953 0
M  V30 55 H 2.397865 -4.719561 1.046752 0
M  V30 END ATOM
M  V30 BEGIN BOND
M  V30 1 1 1 2
M  V30 2 1 2 3
M  V30 3 2 3 4
M  V30 4 1 4 5
M  V30 5 2 5 6
M  V30 6 1 6 7
M  V30 7 2 7 8
M  V30 8 1 8 9
M  V30 9 1 9 10
M  V30 10 2 10 11
M  V30 11 1 11 12
M  V30 12 1 12 13
M  V30 13 2 12 14
M  V30 14 1 14 15
M  V30 15 2 15 16
M  V30 16 1 16 17
M  V30 17 2 17 18
M  V30 18 1 18 19
M  V30 19 2 19 20
M  V30 20 1 19 21
M  V30 21 1 21 22
M  V30 22 1 22 23
M  V30 23 1 23 24
M  V30 24 1 24 25
M  V30 25 1 25 26
M  V30 26 1 26 27
M  V30 27 1 6 28
M  V30 28 1 28 29
M  V30 29 1 29 30
M  V30 30 2 28 31
M  V30 31 1 31 3
M  V30 32 1 18 8
M  V30 33 1 27 23
M  V30 34 1 16 10
M  V30 35 1 1 32
M  V30 36 1 1 33
M  V30 37 1 1 34
M  V30 38 1 4 35
M  V30 39 1 5 36
M  V30 40 1 11 37
M  V30 41 1 13 38
M  V30 42 1 14 39
M  V30 43 1 15 40
M  V30 44 1 17 41
M  V30 45 1 21 42
M  V30 46 1 22 43
M  V30 47 1 22 44
M  V30 48 1 23 45
M  V30 49 1 24 46
M  V30 50 1 24 47
M  V30 51 1 25 48
M  V30 52 1 25 49
M  V30 53 1 26 50
M  V30 54 1 26 51
M  V30 55 1 30 52
M  V30 56 1 30 53
M  V30 57 1 30 54
M  V30 58 1 31 55
M  V30 END BOND
M  V30 END CTAB
M  END
>  <Dataset>  (713) 
ChEMBL_Kinases

>  <Ligand_Instance>  (713) 
nan

>  <PDB_ID>  (713) 
nan

>  <Standardized_SMILES>  (713) 
COc1ccc(/N=c2\oc3cc(O)ccc3cc2C(=O)NCC2CCCO2)c(OC)c1

>  <Name>  (713) 
nan

>  <Pocket>  (713) 
nan

>  <ATP_Site>  (713) 
nan

>  <Peripheral>  (713) 
nan

>  <Num_H_Atoms_ProtBoundConf>  (713) 
nan

>  <Num_Resolved_Atoms>  (713) 
nan

>  <Num_Not_Resolved_Atoms>  (713) 
nan

$$$$
CHEMBL1981814
     RDKit          3D

  0  0  0  0  0  0  0  0  0  0999 V3000
M  V30 BEGIN CTAB
M  V30 COUNTS 53 56 0 0 0
M  V30 BEGIN ATOM
M  V30 1 C -0.465303 -5.928139 2.106819 0
M  V30 2 O -0.534916 -4.650968 1.504997 0
M  V30 3 C 0.262946 -3.625870 1.994581 0
M  V30 4 C 1.089781 -3.931883 3.062035 0
M  V30 5 C 1.900345 -2.961312 3.588171 0
M  V30 6 C 1.832788 -1.716515 3.001207 0
M  V30 7 C 1.025516 -1.329792 1.922816 0
M  V30 8 C 1.079018 0.053262 1.404686 0
M  V30 9 C 1.496146 0.098280 -0.042645 0
M  V30 10 C 2.766206 -0.362627 -0.362633 0
M  V30 11 C 3.246025 -0.360430 -1.653739 0
M  V30 12 C 2.407236 0.127519 -2.658814 0
M  V30 13 C 1.138946 0.590269 -2.355869 0
M  V30 14 C 0.696011 0.571575 -1.055216 0
M  V30 15 O -0.542331 1.004894 -0.643720 0
M  V30 16 C -0.781507 1.578729 0.614775 0
M  V30 17 N -2.205898 1.705223 0.887328 0
M  V30 18 C -2.953079 2.298530 -0.184297 0
M  V30 19 C -4.419885 2.353565 0.263937 0
M  V30 20 O -5.193818 2.926421 -0.750647 0
M  V30 21 C -0.040579 0.953056 1.755997 0
M  V30 22 C -1.057893 0.310937 2.693610 0
M  V30 23 O 3.102532 0.032831 -3.878489 0
M  V30 24 C 4.130059 -0.919057 -3.659517 0
M  V30 25 O 4.447980 -0.749329 -2.272244 0
M  V30 26 C 0.239628 -2.340953 1.441954 0
M  V30 27 O -0.623215 -2.219459 0.403487 0
M  V30 28 C -1.980264 -1.929930 0.398907 0
M  V30 29 H 0.579095 -6.324347 2.147785 0
M  V30 30 H -0.809200 -5.869477 3.168160 0
M  V30 31 H -1.131611 -6.649969 1.585820 0
M  V30 32 H 1.129178 -4.909797 3.507418 0
M  V30 33 H 2.557203 -3.143862 4.411812 0
M  V30 34 H 2.485447 -0.958070 3.434435 0
M  V30 35 H 2.012968 0.534021 1.896460 0
M  V30 36 H 3.452422 -0.749261 0.376367 0
M  V30 37 H 0.462868 0.976145 -3.113937 0
M  V30 38 H -0.423282 2.650706 0.508855 0
M  V30 39 H -2.359681 2.296697 1.733964 0
M  V30 40 H -2.650867 3.335235 -0.410586 0
M  V30 41 H -2.943091 1.715890 -1.115642 0
M  V30 42 H -4.522509 2.852350 1.233814 0
M  V30 43 H -4.812597 1.311801 0.380953 0
M  V30 44 H -5.525936 2.250003 -1.393281 0
M  V30 45 H 0.358348 1.826224 2.390986 0
M  V30 46 H -0.720971 -0.702669 3.005085 0
M  V30 47 H -2.043896 0.315788 2.228671 0
M  V30 48 H -1.158854 0.880388 3.638509 0
M  V30 49 H 3.776074 -1.954027 -3.862898 0
M  V30 50 H 4.980207 -0.656432 -4.310267 0
M  V30 51 H -2.430510 -1.894730 1.419213 0
M  V30 52 H -2.484333 -2.734855 -0.215251 0
M  V30 53 H -2.252879 -0.990564 -0.106320 0
M  V30 END ATOM
M  V30 BEGIN BOND
M  V30 1 1 1 2
M  V30 2 1 2 3
M  V30 3 2 3 4
M  V30 4 1 4 5
M  V30 5 2 5 6
M  V30 6 1 6 7
M  V30 7 1 7 8
M  V30 8 1 8 9
M  V30 9 2 9 10
M  V30 10 1 10 11
M  V30 11 2 11 12
M  V30 12 1 12 13
M  V30 13 2 13 14
M  V30 14 1 14 15
M  V30 15 1 15 16
M  V30 16 1 16 17
M  V30 17 1 17 18
M  V30 18 1 18 19
M  V30 19 1 19 20
M  V30 20 1 16 21
M  V30 21 1 21 22
M  V30 22 1 12 23
M  V30 23 1 23 24
M  V30 24 1 24 25
M  V30 25 2 7 26
M  V30 26 1 26 27
M  V30 27 1 27 28
M  V30 28 1 26 3
M  V30 29 1 21 8
M  V30 30 1 14 9
M  V30 31 1 25 11
M  V30 32 1 1 29
M  V30 33 1 1 30
M  V30 34 1 1 31
M  V30 35 1 4 32
M  V30 36 1 5 33
M  V30 37 1 6 34
M  V30 38 1 8 35
M  V30 39 1 10 36
M  V30 40 1 13 37
M  V30 41 1 16 38
M  V30 42 1 17 39
M  V30 43 1 18 40
M  V30 44 1 18 41
M  V30 45 1 19 42
M  V30 46 1 19 43
M  V30 47 1 20 44
M  V30 48 1 21 45
M  V30 49 1 22 46
M  V30 50 1 22 47
M  V30 51 1 22 48
M  V30 52 1 24 49
M  V30 53 1 24 50
M  V30 54 1 28 51
M  V30 55 1 28 52
M  V30 56 1 28 53
M  V30 END BOND
M  V30 END CTAB
M  END
>  <Dataset>  (714) 
ChEMBL_Kinases

>  <Ligand_Instance>  (714) 
nan

>  <PDB_ID>  (714) 
nan

>  <Standardized_SMILES>  (714) 
COc1cccc(C2c3cc4c(cc3OC(NCCO)C2C)OCO4)c1OC

>  <Name>  (714) 
nan

>  <Pocket>  (714) 
nan

>  <ATP_Site>  (714) 
nan

>  <Peripheral>  (714) 
nan

>  <Num_H_Atoms_ProtBoundConf>  (714) 
nan

>  <Num_Resolved_Atoms>  (714) 
nan

>  <Num_Not_Resolved_Atoms>  (714) 
nan

$$$$
CHEMBL1981305
     RDKit          3D

  0  0  0  0  0  0  0  0  0  0999 V3000
M  V30 BEGIN CTAB
M  V30 COUNTS 44 47 0 0 0
M  V30 BEGIN ATOM
M  V30 1 O 1.646308 0.933835 2.142116 0
M  V30 2 C 1.060017 0.091805 1.396625 0
M  V30 3 N 1.719182 -0.135811 0.185411 0
M  V30 4 N 2.921044 0.534274 -0.128780 0
M  V30 5 C 3.104695 1.788024 -0.051433 0
M  V30 6 C 4.241856 2.677591 -0.321056 0
M  V30 7 C 4.194094 4.046812 -0.158298 0
M  V30 8 C 5.358530 4.721087 -0.459797 0
M  V30 9 C 6.461808 3.987778 -0.893087 0
M  V30 10 C 6.469292 2.624361 -1.042255 0
M  V30 11 N 5.320703 1.957925 -0.744980 0
M  V30 12 C -0.173736 -0.497458 1.892177 0
M  V30 13 N -0.687980 -0.170818 3.091006 0
M  V30 14 C -1.826638 -0.879864 3.261454 0
M  V30 15 C -2.750099 -0.945020 4.284854 0
M  V30 16 C -3.864882 -1.773952 4.218608 0
M  V30 17 C -4.056673 -2.555887 3.098280 0
M  V30 18 N -5.169242 -3.428480 2.953653 0 CHG=1 VAL=4
M  V30 19 O -6.007633 -3.488763 3.885409 0
M  V30 20 O -5.273435 -4.163097 1.803175 0 CHG=-1 VAL=1
M  V30 21 C -3.116029 -2.467162 2.094793 0
M  V30 22 C -1.989285 -1.648885 2.127777 0
M  V30 23 C -0.950953 -1.417075 1.253178 0
M  V30 24 C -0.841168 -2.071535 -0.012764 0
M  V30 25 C -0.135605 -3.281764 -0.014309 0
M  V30 26 C 0.019906 -3.999184 -1.197358 0
M  V30 27 C -0.522120 -3.518498 -2.374880 0
M  V30 28 C -1.232979 -2.316401 -2.418092 0
M  V30 29 C -1.363571 -1.643977 -1.240902 0
M  V30 30 H 1.281936 -0.818739 -0.466912 0
M  V30 31 H 2.191674 2.298277 0.297962 0
M  V30 32 H 3.265716 4.498130 0.188814 0
M  V30 33 H 5.360954 5.794515 -0.345480 0
M  V30 34 H 7.349653 4.569745 -1.115380 0
M  V30 35 H 7.368829 2.130020 -1.384380 0
M  V30 36 H -0.357820 0.492966 3.836182 0
M  V30 37 H -2.633899 -0.347881 5.176330 0
M  V30 38 H -4.624434 -1.872322 4.981395 0
M  V30 39 H -3.247967 -3.064455 1.221585 0
M  V30 40 H 0.317939 -3.715894 0.888131 0
M  V30 41 H 0.571193 -4.949688 -1.212039 0
M  V30 42 H -0.437559 -4.029058 -3.334259 0
M  V30 43 H -1.666620 -1.917843 -3.324519 0
M  V30 44 H -1.897118 -0.698455 -1.160368 0
M  V30 END ATOM
M  V30 BEGIN BOND
M  V30 1 2 1 2
M  V30 2 1 2 3
M  V30 3 1 3 4
M  V30 4 2 4 5
M  V30 5 1 5 6
M  V30 6 2 6 7
M  V30 7 1 7 8
M  V30 8 2 8 9
M  V30 9 1 9 10
M  V30 10 2 10 11
M  V30 11 1 2 12
M  V30 12 1 12 13
M  V30 13 1 13 14
M  V30 14 2 14 15
M  V30 15 1 15 16
M  V30 16 2 16 17
M  V30 17 1 17 18
M  V30 18 2 18 19
M  V30 19 1 18 20
M  V30 20 1 17 21
M  V30 21 2 21 22
M  V30 22 1 22 23
M  V30 23 1 23 24
M  V30 24 2 24 25
M  V30 25 1 25 26
M  V30 26 2 26 27
M  V30 27 1 27 28
M  V30 28 2 28 29
M  V30 29 1 11 6
M  V30 30 2 23 12
M  V30 31 1 29 24
M  V30 32 1 22 14
M  V30 33 1 3 30
M  V30 34 1 5 31
M  V30 35 1 7 32
M  V30 36 1 8 33
M  V30 37 1 9 34
M  V30 38 1 10 35
M  V30 39 1 13 36
M  V30 40 1 15 37
M  V30 41 1 16 38
M  V30 42 1 21 39
M  V30 43 1 25 40
M  V30 44 1 26 41
M  V30 45 1 27 42
M  V30 46 1 28 43
M  V30 47 1 29 44
M  V30 END BOND
M  V30 END CTAB
M  END
>  <Dataset>  (715) 
ChEMBL_Kinases

>  <Ligand_Instance>  (715) 
nan

>  <PDB_ID>  (715) 
nan

>  <Standardized_SMILES>  (715) 
O=C(N/N=C/c1ccccn1)c1[nH]c2ccc([N+](=O)[O-])cc2c1-c1ccccc1

>  <Name>  (715) 
nan

>  <Pocket>  (715) 
nan

>  <ATP_Site>  (715) 
nan

>  <Peripheral>  (715) 
nan

>  <Num_H_Atoms_ProtBoundConf>  (715) 
nan

>  <Num_Resolved_Atoms>  (715) 
nan

>  <Num_Not_Resolved_Atoms>  (715) 
nan

$$$$
CHEMBL1981047
     RDKit          3D

  0  0  0  0  0  0  0  0  0  0999 V3000
M  V30 BEGIN CTAB
M  V30 COUNTS 65 69 0 0 0
M  V30 BEGIN ATOM
M  V30 1 C 3.640714 -2.129042 6.898028 0
M  V30 2 O 3.745457 -2.457944 5.528223 0
M  V30 3 C 3.259434 -1.413946 4.742146 0
M  V30 4 C 4.329921 -0.825068 3.904707 0
M  V30 5 O 5.490176 -1.309417 3.988976 0
M  V30 6 N 4.258222 0.245753 2.980252 0
M  V30 7 C 5.438012 0.673931 2.255634 0
M  V30 8 C 4.951316 0.643075 0.837175 0
M  V30 9 N 5.299848 0.405714 -0.450008 0
M  V30 10 N 4.210284 0.613853 -1.172765 0
M  V30 11 C 3.187349 0.974060 -0.386078 0
M  V30 12 N 1.853180 1.285691 -0.774112 0
M  V30 13 C 1.032339 0.108322 -0.774083 0
M  V30 14 O 1.700916 -0.916453 -0.426999 0
M  V30 15 C -0.386444 0.104068 -1.129648 0
M  V30 16 C -1.155891 1.201619 -1.512386 0
M  V30 17 C -2.488708 1.025917 -1.817661 0
M  V30 18 C -3.092643 -0.209061 -1.757184 0
M  V30 19 N -4.472245 -0.295027 -2.092149 0
M  V30 20 C -5.221933 0.870896 -2.521565 0
M  V30 21 C -6.473419 0.413705 -3.284096 0
M  V30 22 N -6.115803 -0.677873 -4.132334 0
M  V30 23 C -5.237340 -0.343205 -5.200149 0
M  V30 24 C -5.811251 -1.878733 -3.424744 0
M  V30 25 C -5.272656 -1.504485 -2.047806 0
M  V30 26 C -2.339968 -1.281085 -1.383099 0
M  V30 27 C -0.994381 -1.134232 -1.069503 0
M  V30 28 C 3.623424 1.005527 0.923415 0
M  V30 29 C 3.374832 1.234460 2.369586 0
M  V30 30 C 2.075234 -1.854560 3.985666 0
M  V30 31 C 2.027392 -3.071699 3.305072 0
M  V30 32 C 0.887921 -3.466186 2.595688 0
M  V30 33 C -0.225219 -2.652805 2.552515 0
M  V30 34 C -0.234627 -1.427580 3.212481 0
M  V30 35 C 0.915689 -1.090197 3.895639 0
M  V30 36 H 2.600604 -1.945128 7.177587 0
M  V30 37 H 4.022212 -2.944862 7.509920 0
M  V30 38 H 4.245953 -1.211429 7.119749 0
M  V30 39 H 2.931050 -0.628117 5.454259 0
M  V30 40 H 5.688010 1.734271 2.472695 0
M  V30 41 H 6.313043 0.015644 2.386157 0
M  V30 42 H 6.242244 0.116857 -0.792038 0
M  V30 43 H 1.401866 2.200850 -1.046594 0
M  V30 44 H -0.624868 2.133771 -1.539126 0
M  V30 45 H -2.950785 1.957038 -2.093064 0
M  V30 46 H -4.588753 1.496454 -3.196652 0
M  V30 47 H -5.491362 1.447266 -1.621126 0
M  V30 48 H -7.210320 0.114416 -2.537967 0
M  V30 49 H -6.794059 1.261992 -3.914427 0
M  V30 50 H -4.217783 -0.738133 -4.955940 0
M  V30 51 H -5.110870 0.777966 -5.199876 0
M  V30 52 H -5.508216 -0.730679 -6.192559 0
M  V30 53 H -6.735501 -2.513372 -3.287166 0
M  V30 54 H -5.115396 -2.526556 -3.996401 0
M  V30 55 H -4.780603 -2.356053 -1.562238 0
M  V30 56 H -6.165974 -1.224265 -1.414271 0
M  V30 57 H -2.768305 -2.265252 -1.321921 0
M  V30 58 H -0.443909 -2.041692 -0.774094 0
M  V30 59 H 3.678829 2.265366 2.656072 0
M  V30 60 H 2.314571 1.047316 2.539750 0
M  V30 61 H 2.932249 -3.694246 3.360940 0
M  V30 62 H 0.905715 -4.422195 2.084973 0
M  V30 63 H -1.121515 -2.928057 2.014140 0
M  V30 64 H -1.071201 -0.737269 3.223081 0
M  V30 65 H 0.962880 -0.137701 4.432094 0
M  V30 END ATOM
M  V30 BEGIN BOND
M  V30 1 1 1 2
M  V30 2 1 2 3
M  V30 3 1 3 4
M  V30 4 2 4 5
M  V30 5 1 4 6
M  V30 6 1 6 7
M  V30 7 1 7 8
M  V30 8 1 8 9
M  V30 9 1 9 10
M  V30 10 2 10 11
M  V30 11 1 11 12
M  V30 12 1 12 13
M  V30 13 2 13 14
M  V30 14 1 13 15
M  V30 15 2 15 16
M  V30 16 1 16 17
M  V30 17 2 17 18
M  V30 18 1 18 19
M  V30 19 1 19 20
M  V30 20 1 20 21
M  V30 21 1 21 22
M  V30 22 1 22 23
M  V30 23 1 22 24
M  V30 24 1 24 25
M  V30 25 1 18 26
M  V30 26 2 26 27
M  V30 27 1 11 28
M  V30 28 1 28 29
M  V30 29 1 3 30
M  V30 30 2 30 31
M  V30 31 1 31 32
M  V30 32 2 32 33
M  V30 33 1 33 34
M  V30 34 2 34 35
M  V30 35 1 29 6
M  V30 36 1 35 30
M  V30 37 2 28 8
M  V30 38 1 27 15
M  V30 39 1 25 19
M  V30 40 1 1 36
M  V30 41 1 1 37
M  V30 42 1 1 38
M  V30 43 1 3 39
M  V30 44 1 7 40
M  V30 45 1 7 41
M  V30 46 1 9 42
M  V30 47 1 12 43
M  V30 48 1 16 44
M  V30 49 1 17 45
M  V30 50 1 20 46
M  V30 51 1 20 47
M  V30 52 1 21 48
M  V30 53 1 21 49
M  V30 54 1 23 50
M  V30 55 1 23 51
M  V30 56 1 23 52
M  V30 57 1 24 53
M  V30 58 1 24 54
M  V30 59 1 25 55
M  V30 60 1 25 56
M  V30 61 1 26 57
M  V30 62 1 27 58
M  V30 63 1 29 59
M  V30 64 1 29 60
M  V30 65 1 31 61
M  V30 66 1 32 62
M  V30 67 1 33 63
M  V30 68 1 34 64
M  V30 69 1 35 65
M  V30 END BOND
M  V30 END CTAB
M  END
>  <Dataset>  (716) 
ChEMBL_Kinases

>  <Ligand_Instance>  (716) 
nan

>  <PDB_ID>  (716) 
nan

>  <Standardized_SMILES>  (716) 
COC(C(=O)N1Cc2[nH]nc(NC(=O)c3ccc(N4CCN(C)CC4)cc3)c2C1)c1ccccc1

>  <Name>  (716) 
nan

>  <Pocket>  (716) 
nan

>  <ATP_Site>  (716) 
nan

>  <Peripheral>  (716) 
nan

>  <Num_H_Atoms_ProtBoundConf>  (716) 
nan

>  <Num_Resolved_Atoms>  (716) 
nan

>  <Num_Not_Resolved_Atoms>  (716) 
nan

$$$$
CHEMBL2022376
     RDKit          3D

  0  0  0  0  0  0  0  0  0  0999 V3000
M  V30 BEGIN CTAB
M  V30 COUNTS 70 75 0 0 0
M  V30 BEGIN ATOM
M  V30 1 C 5.548103 -0.013265 1.820737 0
M  V30 2 C 4.144301 0.002078 2.311809 0
M  V30 3 C 3.110416 0.810603 1.914695 0
M  V30 4 N 1.864038 0.777797 2.397564 0
M  V30 5 C 0.785590 1.505273 2.100751 0
M  V30 6 C 0.548522 2.583864 1.170992 0
M  V30 7 C 1.264044 3.282906 0.233776 0
M  V30 8 N 0.560920 4.241835 -0.376218 0
M  V30 9 N -0.667809 4.214356 0.142805 0
M  V30 10 C -1.678588 5.146966 -0.299182 0
M  V30 11 C -2.438171 4.606772 -1.430563 0
M  V30 12 O -2.972746 3.660310 -0.691265 0
M  V30 13 N -2.996418 4.344489 -2.636301 0
M  V30 14 N -3.882750 3.368928 -3.032244 0
M  V30 15 C -4.212802 3.567264 -4.418507 0
M  V30 16 C -5.179374 2.531055 -4.884316 0
M  V30 17 C -5.628094 1.577176 -4.070096 0
M  V30 18 C -5.187838 1.509359 -2.677754 0
M  V30 19 N -4.343142 2.378651 -2.183230 0
M  V30 20 C -0.684386 3.237235 1.057978 0
M  V30 21 C -0.173810 0.978678 2.955951 0
M  V30 22 N 0.360772 -0.002704 3.694451 0
M  V30 23 C 1.631139 -0.129508 3.347851 0
M  V30 24 C 2.608616 -0.982786 3.807517 0
M  V30 25 N 2.407888 -1.969548 4.810791 0
M  V30 26 C 2.021431 -3.163987 4.051628 0
M  V30 27 C 0.764582 -3.521865 3.710996 0
M  V30 28 C 0.728321 -4.674306 3.015131 0
M  V30 29 C -0.518531 -5.345640 2.493547 0
M  V30 30 N -0.770200 -4.896327 1.214996 0
M  V30 31 C -0.984194 -3.532919 0.947572 0
M  V30 32 C 0.196854 -2.927002 0.259709 0
M  V30 33 C 0.766122 -3.783090 -0.835746 0
M  V30 34 C 0.656495 -5.251292 -0.639217 0
M  V30 35 C 0.695052 -5.885511 -2.034368 0
M  V30 36 C -0.568982 -5.717931 0.079595 0
M  V30 37 N 1.955960 -5.441218 2.677445 0
M  V30 38 S 3.175336 -4.291327 3.489526 0
M  V30 39 N 3.851348 -0.909023 3.287079 0
M  V30 40 H 5.732556 -0.890386 1.131665 0
M  V30 41 H 6.223907 -0.196051 2.702046 0
M  V30 42 H 5.844490 0.888700 1.286455 0
M  V30 43 H 3.373344 1.512301 1.151966 0
M  V30 44 H 2.290866 3.099510 -0.009454 0
M  V30 45 H -1.168319 6.116432 -0.632296 0
M  V30 46 H -2.360725 5.488241 0.500580 0
M  V30 47 H -2.510177 5.147273 -3.138702 0
M  V30 48 H -4.669330 4.591229 -4.554950 0
M  V30 49 H -3.300828 3.550939 -5.042055 0
M  V30 50 H -5.518380 2.561477 -5.906579 0
M  V30 51 H -6.323315 0.816625 -4.373274 0
M  V30 52 H -5.520765 0.757234 -1.981239 0
M  V30 53 H -1.604076 3.024712 1.624642 0
M  V30 54 H -1.232680 1.251896 3.088391 0
M  V30 55 H 2.530886 -1.796235 5.831217 0
M  V30 56 H -0.135460 -2.989575 3.937769 0
M  V30 57 H -1.332533 -5.066106 3.228935 0
M  V30 58 H -0.444469 -6.426424 2.557589 0
M  V30 59 H -1.268882 -2.956474 1.816110 0
M  V30 60 H -1.844138 -3.457283 0.218430 0
M  V30 61 H 0.967329 -2.582200 0.970322 0
M  V30 62 H -0.197208 -1.989326 -0.233939 0
M  V30 63 H 0.379285 -3.492887 -1.837183 0
M  V30 64 H 1.860739 -3.553063 -0.891211 0
M  V30 65 H 1.546701 -5.669883 -0.093704 0
M  V30 66 H -0.206011 -5.570292 -2.618381 0
M  V30 67 H 1.557830 -5.420891 -2.570824 0
M  V30 68 H 0.805054 -6.968486 -2.014633 0
M  V30 69 H -1.432439 -5.528378 -0.622652 0
M  V30 70 H -0.519495 -6.773296 0.307583 0
M  V30 END ATOM
M  V30 BEGIN BOND
M  V30 1 1 1 2
M  V30 2 2 2 3
M  V30 3 1 3 4
M  V30 4 1 4 5
M  V30 5 1 5 6
M  V30 6 1 6 7
M  V30 7 2 7 8
M  V30 8 1 8 9
M  V30 9 1 9 10
M  V30 10 1 10 11
M  V30 11 2 11 12
M  V30 12 1 11 13
M  V30 13 1 13 14
M  V30 14 1 14 15
M  V30 15 1 15 16
M  V30 16 2 16 17
M  V30 17 1 17 18
M  V30 18 2 18 19
M  V30 19 1 9 20
M  V30 20 2 5 21
M  V30 21 1 21 22
M  V30 22 2 22 23
M  V30 23 1 23 24
M  V30 24 1 24 25
M  V30 25 1 25 26
M  V30 26 2 26 27
M  V30 27 1 27 28
M  V30 28 1 28 29
M  V30 29 1 29 30
M  V30 30 1 30 31
M  V30 31 1 31 32
M  V30 32 1 32 33
M  V30 33 1 33 34
M  V30 34 1 34 35
M  V30 35 1 34 36
M  V30 36 2 28 37
M  V30 37 1 37 38
M  V30 38 2 24 39
M  V30 39 1 39 2
M  V30 40 1 23 4
M  V30 41 1 38 26
M  V30 42 2 20 6
M  V30 43 1 36 30
M  V30 44 1 19 14
M  V30 45 1 1 40
M  V30 46 1 1 41
M  V30 47 1 1 42
M  V30 48 1 3 43
M  V30 49 1 7 44
M  V30 50 1 10 45
M  V30 51 1 10 46
M  V30 52 1 13 47
M  V30 53 1 15 48
M  V30 54 1 15 49
M  V30 55 1 16 50
M  V30 56 1 17 51
M  V30 57 1 18 52
M  V30 58 1 20 53
M  V30 59 1 21 54
M  V30 60 1 25 55
M  V30 61 1 27 56
M  V30 62 1 29 57
M  V30 63 1 29 58
M  V30 64 1 31 59
M  V30 65 1 31 60
M  V30 66 1 32 61
M  V30 67 1 32 62
M  V30 68 1 33 63
M  V30 69 1 33 64
M  V30 70 1 34 65
M  V30 71 1 35 66
M  V30 72 1 35 67
M  V30 73 1 35 68
M  V30 74 1 36 69
M  V30 75 1 36 70
M  V30 END BOND
M  V30 END CTAB
M  END
>  <Dataset>  (717) 
ChEMBL_Kinases

>  <Ligand_Instance>  (717) 
nan

>  <PDB_ID>  (717) 
nan

>  <Standardized_SMILES>  (717) 
Cc1cn2c(-c3cnn(CC(=O)NN4CC=CC=N4)c3)cnc2c(Nc2cc(CN3CCCC(C)C3)ns2)n1

>  <Name>  (717) 
nan

>  <Pocket>  (717) 
nan

>  <ATP_Site>  (717) 
nan

>  <Peripheral>  (717) 
nan

>  <Num_H_Atoms_ProtBoundConf>  (717) 
nan

>  <Num_Resolved_Atoms>  (717) 
nan

>  <Num_Not_Resolved_Atoms>  (717) 
nan

$$$$
CHEMBL197545
     RDKit          3D

  0  0  0  0  0  0  0  0  0  0999 V3000
M  V30 BEGIN CTAB
M  V30 COUNTS 53 56 0 0 0
M  V30 BEGIN ATOM
M  V30 1 C 5.162644 -1.393223 2.197305 0
M  V30 2 C 4.955099 -1.626506 3.672125 0
M  V30 3 C 4.367656 -0.359409 4.285103 0
M  V30 4 C 3.021809 -0.090947 3.567435 0
M  V30 5 N 2.743543 0.518068 2.616610 0
M  V30 6 C 1.534187 0.662780 2.109571 0
M  V30 7 C 1.314740 1.458867 0.907818 0
M  V30 8 C 0.503300 2.568641 1.139886 0
M  V30 9 C 0.208162 3.421346 0.085624 0
M  V30 10 C 0.701352 3.187563 -1.172270 0
M  V30 11 C 1.498100 2.076884 -1.346754 0
M  V30 12 C 2.060797 1.779476 -2.702085 0
M  V30 13 C 1.827438 1.193326 -0.343747 0
M  V30 14 C 0.505794 0.027844 2.776485 0
M  V30 15 C -0.924844 0.043117 2.398153 0
M  V30 16 C -1.901783 0.569664 3.189393 0
M  V30 17 C -3.239288 0.566728 2.807927 0
M  V30 18 N -3.546940 0.013917 1.603188 0
M  V30 19 C -2.595497 -0.512221 0.805726 0
M  V30 20 N -3.039827 -1.072153 -0.448431 0
M  V30 21 C -3.336368 -2.441160 -0.211521 0
M  V30 22 O -3.127610 -2.763406 1.008138 0
M  V30 23 C -3.825423 -3.385946 -1.236360 0
M  V30 24 C -4.074594 -3.098300 -2.564953 0
M  V30 25 C -4.530250 -4.099742 -3.395968 0
M  V30 26 C -4.745275 -5.382815 -2.939868 0
M  V30 27 C -4.494828 -5.678289 -1.597824 0
M  V30 28 C -4.042793 -4.672156 -0.786857 0
M  V30 29 C -1.242991 -0.522659 1.163957 0
M  V30 30 S 1.441888 -0.802329 4.209945 0
M  V30 31 H 5.884561 -2.104436 1.743123 0
M  V30 32 H 4.189523 -1.556595 1.665159 0
M  V30 33 H 5.438596 -0.331656 1.987589 0
M  V30 34 H 5.905682 -1.820457 4.165661 0
M  V30 35 H 4.208829 -2.429239 3.878177 0
M  V30 36 H 4.943811 0.540749 4.079673 0
M  V30 37 H 4.115481 -0.516739 5.351811 0
M  V30 38 H 0.072572 2.823142 2.109864 0
M  V30 39 H -0.413348 4.290306 0.215366 0
M  V30 40 H 0.517953 3.804029 -2.044970 0
M  V30 41 H 1.511117 2.356417 -3.458482 0
M  V30 42 H 3.131566 2.086877 -2.748403 0
M  V30 43 H 1.985396 0.717650 -2.961465 0
M  V30 44 H 2.447264 0.314166 -0.442410 0
M  V30 45 H -1.594612 0.993987 4.134408 0
M  V30 46 H -4.000007 0.995524 3.461953 0
M  V30 47 H -3.183227 -0.711438 -1.437465 0
M  V30 48 H -3.880423 -2.071896 -2.837838 0
M  V30 49 H -4.714229 -3.827020 -4.438708 0
M  V30 50 H -5.099321 -6.123932 -3.624542 0
M  V30 51 H -4.666000 -6.687867 -1.246742 0
M  V30 52 H -3.867321 -4.975126 0.252008 0
M  V30 53 H -0.525995 -0.967386 0.466085 0
M  V30 END ATOM
M  V30 BEGIN BOND
M  V30 1 1 1 2
M  V30 2 1 2 3
M  V30 3 1 3 4
M  V30 4 2 4 5
M  V30 5 1 5 6
M  V30 6 1 6 7
M  V30 7 2 7 8
M  V30 8 1 8 9
M  V30 9 2 9 10
M  V30 10 1 10 11
M  V30 11 1 11 12
M  V30 12 2 11 13
M  V30 13 2 6 14
M  V30 14 1 14 15
M  V30 15 2 15 16
M  V30 16 1 16 17
M  V30 17 2 17 18
M  V30 18 1 18 19
M  V30 19 1 19 20
M  V30 20 1 20 21
M  V30 21 2 21 22
M  V30 22 1 21 23
M  V30 23 2 23 24
M  V30 24 1 24 25
M  V30 25 2 25 26
M  V30 26 1 26 27
M  V30 27 2 27 28
M  V30 28 2 19 29
M  V30 29 1 14 30
M  V30 30 1 30 4
M  V30 31 1 13 7
M  V30 32 1 29 15
M  V30 33 1 28 23
M  V30 34 1 1 31
M  V30 35 1 1 32
M  V30 36 1 1 33
M  V30 37 1 2 34
M  V30 38 1 2 35
M  V30 39 1 3 36
M  V30 40 1 3 37
M  V30 41 1 8 38
M  V30 42 1 9 39
M  V30 43 1 10 40
M  V30 44 1 12 41
M  V30 45 1 12 42
M  V30 46 1 12 43
M  V30 47 1 13 44
M  V30 48 1 16 45
M  V30 49 1 17 46
M  V30 50 1 20 47
M  V30 51 1 24 48
M  V30 52 1 25 49
M  V30 53 1 26 50
M  V30 54 1 27 51
M  V30 55 1 28 52
M  V30 56 1 29 53
M  V30 END BOND
M  V30 END CTAB
M  END
>  <Dataset>  (718) 
ChEMBL_Kinases

>  <Ligand_Instance>  (718) 
nan

>  <PDB_ID>  (718) 
nan

>  <Standardized_SMILES>  (718) 
CCCc1nc(-c2cccc(C)c2)c(-c2ccnc(NC(=O)c3ccccc3)c2)s1

>  <Name>  (718) 
nan

>  <Pocket>  (718) 
nan

>  <ATP_Site>  (718) 
nan

>  <Peripheral>  (718) 
nan

>  <Num_H_Atoms_ProtBoundConf>  (718) 
nan

>  <Num_Resolved_Atoms>  (718) 
nan

>  <Num_Not_Resolved_Atoms>  (718) 
nan

$$$$
CHEMBL1975622
     RDKit          3D

  0  0  0  0  0  0  0  0  0  0999 V3000
M  V30 BEGIN CTAB
M  V30 COUNTS 33 35 0 0 0
M  V30 BEGIN ATOM
M  V30 1 C -0.069925 -0.736289 3.651478 0
M  V30 2 C -0.197683 -1.182389 2.251375 0
M  V30 3 N 0.084236 -2.379807 2.179622 0
M  V30 4 C 0.115803 -3.261313 1.095490 0
M  V30 5 C 1.487880 -3.550526 0.581933 0
M  V30 6 C 2.175056 -2.841778 -0.361631 0
M  V30 7 C 3.417548 -3.395726 -0.592015 0
M  V30 8 C 3.386828 -4.461816 0.282118 0
M  V30 9 O 2.280977 -4.542126 0.948147 0
M  V30 10 C -0.572709 -0.365916 1.145392 0
M  V30 11 C -0.849829 0.893499 1.438742 0
M  V30 12 O -0.841482 1.585480 2.669855 0
M  V30 13 C -1.224915 1.690039 0.286860 0
M  V30 14 C -1.597013 2.993710 0.027455 0
M  V30 15 C -1.906837 3.474655 -1.225100 0
M  V30 16 C -1.859003 2.646382 -2.324456 0
M  V30 17 C -1.490173 1.340265 -2.090824 0
M  V30 18 C -1.184425 0.881104 -0.828118 0
M  V30 19 C -0.774858 -0.399537 -0.273446 0
M  V30 20 O -0.635912 -1.365399 -1.003912 0
M  V30 21 H 0.625898 0.158301 3.708454 0
M  V30 22 H 0.215929 -1.493242 4.370098 0
M  V30 23 H -1.086665 -0.320861 3.924904 0
M  V30 24 H -0.136355 -4.299815 1.622888 0
M  V30 25 H -0.644715 -3.275145 0.335966 0
M  V30 26 H 1.944862 -1.959597 -0.940042 0
M  V30 27 H 4.273925 -3.194051 -1.220087 0
M  V30 28 H 4.093089 -5.253539 0.534765 0
M  V30 29 H -1.740306 1.911117 2.997526 0
M  V30 30 H -1.639776 3.655941 0.878188 0
M  V30 31 H -2.193266 4.499870 -1.387640 0
M  V30 32 H -2.080566 2.917193 -3.345708 0
M  V30 33 H -1.434637 0.649244 -2.903170 0
M  V30 END ATOM
M  V30 BEGIN BOND
M  V30 1 1 1 2
M  V30 2 2 2 3
M  V30 3 1 3 4
M  V30 4 1 4 5
M  V30 5 2 5 6
M  V30 6 1 6 7
M  V30 7 2 7 8
M  V30 8 1 8 9
M  V30 9 1 2 10
M  V30 10 2 10 11
M  V30 11 1 11 12
M  V30 12 1 11 13
M  V30 13 2 13 14
M  V30 14 1 14 15
M  V30 15 2 15 16
M  V30 16 1 16 17
M  V30 17 2 17 18
M  V30 18 1 18 19
M  V30 19 2 19 20
M  V30 20 1 9 5
M  V30 21 1 19 10
M  V30 22 1 18 13
M  V30 23 1 1 21
M  V30 24 1 1 22
M  V30 25 1 1 23
M  V30 26 1 4 24
M  V30 27 1 4 25
M  V30 28 1 6 26
M  V30 29 1 7 27
M  V30 30 1 8 28
M  V30 31 1 12 29
M  V30 32 1 14 30
M  V30 33 1 15 31
M  V30 34 1 16 32
M  V30 35 1 17 33
M  V30 END BOND
M  V30 END CTAB
M  END
>  <Dataset>  (719) 
ChEMBL_Kinases

>  <Ligand_Instance>  (719) 
nan

>  <PDB_ID>  (719) 
nan

>  <Standardized_SMILES>  (719) 
C/C(=N/Cc1ccco1)C1=C(O)c2ccccc2C1=O

>  <Name>  (719) 
nan

>  <Pocket>  (719) 
nan

>  <ATP_Site>  (719) 
nan

>  <Peripheral>  (719) 
nan

>  <Num_H_Atoms_ProtBoundConf>  (719) 
nan

>  <Num_Resolved_Atoms>  (719) 
nan

>  <Num_Not_Resolved_Atoms>  (719) 
nan

$$$$
CHEMBL197581
     RDKit          3D

  0  0  0  0  0  0  0  0  0  0999 V3000
M  V30 BEGIN CTAB
M  V30 COUNTS 53 56 0 0 0
M  V30 BEGIN ATOM
M  V30 1 C 1.960789 -0.479595 -5.248576 0
M  V30 2 C 3.111163 -0.374907 -4.272397 0
M  V30 3 C 2.630332 -0.130660 -2.882188 0
M  V30 4 N 3.095106 0.017273 -1.830066 0
M  V30 5 C 2.463880 0.228865 -0.674843 0
M  V30 6 C 3.079847 0.411690 0.635518 0
M  V30 7 C 3.039993 -0.366725 1.753519 0
M  V30 8 C 3.702275 0.005459 2.903219 0
M  V30 9 C 4.431137 1.155770 3.006019 0
M  V30 10 C 4.488966 1.969399 1.879976 0
M  V30 11 C 5.268147 3.236118 1.933587 0
M  V30 12 C 3.820175 1.599739 0.708898 0
M  V30 13 C 1.056904 0.277310 -0.752845 0
M  V30 14 C -0.066306 0.476996 0.196996 0
M  V30 15 C -0.711723 1.663025 -0.115037 0
M  V30 16 C -1.819709 2.102685 0.618986 0
M  V30 17 N -2.220232 1.312507 1.639359 0
M  V30 18 C -1.586188 0.162727 1.933631 0
M  V30 19 N -2.016446 -0.685778 3.022649 0
M  V30 20 C -2.961380 -1.605296 2.497250 0
M  V30 21 O -3.617080 -2.045076 1.514974 0
M  V30 22 C -3.640827 -2.646509 3.311181 0
M  V30 23 C -4.572036 -3.457298 2.484844 0
M  V30 24 C -5.909173 -3.164522 2.264100 0
M  V30 25 C -6.680872 -4.013860 1.462567 0
M  V30 26 C -6.113734 -5.143246 0.891167 0
M  V30 27 C -4.785933 -5.453251 1.097907 0
M  V30 28 C -4.024665 -4.601434 1.897490 0
M  V30 29 C -0.492251 -0.298328 1.230535 0
M  V30 30 S 0.759692 0.001958 -2.556521 0
M  V30 31 H 2.152956 -0.000058 -6.219679 0
M  V30 32 H 1.021605 -0.009027 -4.836094 0
M  V30 33 H 1.696459 -1.534616 -5.475881 0
M  V30 34 H 3.611501 -1.386198 -4.293224 0
M  V30 35 H 3.889044 0.350725 -4.570995 0
M  V30 36 H 2.453271 -1.265158 1.619523 0
M  V30 37 H 3.590939 -0.697277 3.713606 0
M  V30 38 H 4.935257 1.406004 3.934497 0
M  V30 39 H 5.925995 3.208796 2.826051 0
M  V30 40 H 5.916846 3.358117 1.046664 0
M  V30 41 H 4.604187 4.112586 2.088470 0
M  V30 42 H 3.928889 2.312344 -0.124329 0
M  V30 43 H -0.475579 2.378803 -0.915674 0
M  V30 44 H -2.362708 3.016456 0.423837 0
M  V30 45 H -1.854632 -0.832069 4.051812 0
M  V30 46 H -2.921359 -3.265650 3.848642 0
M  V30 47 H -4.291715 -2.069299 4.031505 0
M  V30 48 H -6.292053 -2.270071 2.737346 0
M  V30 49 H -7.726411 -3.768303 1.299838 0
M  V30 50 H -6.689819 -5.819311 0.265325 0
M  V30 51 H -4.333644 -6.345414 0.647646 0
M  V30 52 H -2.966231 -4.868862 2.049098 0
M  V30 53 H 0.083417 -1.181534 1.367720 0
M  V30 END ATOM
M  V30 BEGIN BOND
M  V30 1 1 1 2
M  V30 2 1 2 3
M  V30 3 2 3 4
M  V30 4 1 4 5
M  V30 5 1 5 6
M  V30 6 2 6 7
M  V30 7 1 7 8
M  V30 8 2 8 9
M  V30 9 1 9 10
M  V30 10 1 10 11
M  V30 11 2 10 12
M  V30 12 2 5 13
M  V30 13 1 13 14
M  V30 14 2 14 15
M  V30 15 1 15 16
M  V30 16 2 16 17
M  V30 17 1 17 18
M  V30 18 1 18 19
M  V30 19 1 19 20
M  V30 20 2 20 21
M  V30 21 1 20 22
M  V30 22 1 22 23
M  V30 23 2 23 24
M  V30 24 1 24 25
M  V30 25 2 25 26
M  V30 26 1 26 27
M  V30 27 2 27 28
M  V30 28 2 18 29
M  V30 29 1 13 30
M  V30 30 1 30 3
M  V30 31 1 12 6
M  V30 32 1 29 14
M  V30 33 1 28 23
M  V30 34 1 1 31
M  V30 35 1 1 32
M  V30 36 1 1 33
M  V30 37 1 2 34
M  V30 38 1 2 35
M  V30 39 1 7 36
M  V30 40 1 8 37
M  V30 41 1 9 38
M  V30 42 1 11 39
M  V30 43 1 11 40
M  V30 44 1 11 41
M  V30 45 1 12 42
M  V30 46 1 15 43
M  V30 47 1 16 44
M  V30 48 1 19 45
M  V30 49 1 22 46
M  V30 50 1 22 47
M  V30 51 1 24 48
M  V30 52 1 25 49
M  V30 53 1 26 50
M  V30 54 1 27 51
M  V30 55 1 28 52
M  V30 56 1 29 53
M  V30 END BOND
M  V30 END CTAB
M  END
>  <Dataset>  (720) 
ChEMBL_Kinases

>  <Ligand_Instance>  (720) 
nan

>  <PDB_ID>  (720) 
nan

>  <Standardized_SMILES>  (720) 
CCc1nc(-c2cccc(C)c2)c(-c2ccnc(NC(=O)Cc3ccccc3)c2)s1

>  <Name>  (720) 
nan

>  <Pocket>  (720) 
nan

>  <ATP_Site>  (720) 
nan

>  <Peripheral>  (720) 
nan

>  <Num_H_Atoms_ProtBoundConf>  (720) 
nan

>  <Num_Resolved_Atoms>  (720) 
nan

>  <Num_Not_Resolved_Atoms>  (720) 
nan

$$$$
CHEMBL197666
     RDKit          3D

  0  0  0  0  0  0  0  0  0  0999 V3000
M  V30 BEGIN CTAB
M  V30 COUNTS 54 57 0 0 0
M  V30 BEGIN ATOM
M  V30 1 C -0.523518 -0.895860 2.869103 0
M  V30 2 C 0.549588 -1.699301 3.577081 0 CFG=2
M  V30 3 O 0.530364 -1.285120 4.905648 0
M  V30 4 C 1.926017 -1.396874 3.033522 0
M  V30 5 N 2.092202 -1.767343 1.670357 0
M  V30 6 C 3.458750 -1.404068 1.271974 0
M  V30 7 C 3.590571 -1.496926 -0.244313 0
M  V30 8 C 2.425228 -2.252978 -0.808862 0
M  V30 9 C 1.189398 -1.419075 -0.794005 0
M  V30 10 C 1.123610 -0.098464 -0.331201 0
M  V30 11 C -0.196703 0.295388 -0.467406 0
M  V30 12 C -0.693547 1.627101 -0.099851 0
M  V30 13 C -0.081084 2.605239 -0.889935 0
M  V30 14 C -0.398513 3.930804 -0.720356 0
M  V30 15 N -1.305523 4.310590 0.209809 0
M  V30 16 C -1.883754 3.364288 0.959012 0
M  V30 17 C -1.618799 2.024448 0.848187 0
M  V30 18 C -0.891462 -0.793090 -1.005418 0
M  V30 19 C -2.320808 -0.778728 -1.289047 0
M  V30 20 C -3.081972 -0.042140 -2.168363 0
M  V30 21 C -4.444819 -0.245596 -2.212232 0
M  V30 22 C -5.100949 -1.158491 -1.414226 0
M  V30 23 F -6.441183 -1.251309 -1.566113 0
M  V30 24 C -4.330316 -1.898891 -0.530367 0
M  V30 25 C -2.949145 -1.718523 -0.459781 0
M  V30 26 N -0.019084 -1.799822 -1.186198 0
M  V30 27 C 2.167637 -3.528329 0.008783 0
M  V30 28 C 1.884555 -3.181652 1.450667 0
M  V30 29 H -0.211598 0.132925 2.685792 0
M  V30 30 H -1.406720 -0.883305 3.553745 0
M  V30 31 H -0.908021 -1.421464 1.947639 0
M  V30 32 H 0.322329 -2.764251 3.534898 0
M  V30 33 H -0.383244 -1.204937 5.284456 0
M  V30 34 H 2.638858 -1.898300 3.711033 0
M  V30 35 H 2.112982 -0.303384 3.110815 0
M  V30 36 H 3.623074 -0.377187 1.652831 0
M  V30 37 H 4.131183 -2.099407 1.803846 0
M  V30 38 H 3.558533 -0.464879 -0.643270 0
M  V30 39 H 4.512965 -2.035463 -0.460172 0
M  V30 40 H 2.627917 -2.627669 -1.825212 0
M  V30 41 H 1.921487 0.535541 0.066722 0
M  V30 42 H 0.667413 2.434359 -1.675588 0
M  V30 43 H 0.034415 4.758880 -1.297429 0
M  V30 44 H -2.629631 3.583136 1.737358 0
M  V30 45 H -2.012613 1.196577 1.384459 0
M  V30 46 H -2.470760 0.632196 -2.735149 0
M  V30 47 H -4.938988 0.383733 -2.935222 0
M  V30 48 H -4.884721 -2.604349 0.076937 0
M  V30 49 H -2.506354 -2.373434 0.279982 0
M  V30 50 H -0.256227 -2.756376 -1.579762 0
M  V30 51 H 3.062323 -4.167591 -0.105054 0
M  V30 52 H 1.321647 -4.037999 -0.487752 0
M  V30 53 H 0.795624 -3.377139 1.635777 0
M  V30 54 H 2.512342 -3.828943 2.070548 0
M  V30 END ATOM
M  V30 BEGIN BOND
M  V30 1 1 1 2
M  V30 2 1 2 3
M  V30 3 1 2 4
M  V30 4 1 4 5
M  V30 5 1 5 6
M  V30 6 1 6 7
M  V30 7 1 7 8
M  V30 8 1 8 9
M  V30 9 2 9 10
M  V30 10 1 10 11
M  V30 11 1 11 12
M  V30 12 2 12 13
M  V30 13 1 13 14
M  V30 14 2 14 15
M  V30 15 1 15 16
M  V30 16 2 16 17
M  V30 17 2 11 18
M  V30 18 1 18 19
M  V30 19 2 19 20
M  V30 20 1 20 21
M  V30 21 2 21 22
M  V30 22 1 22 23
M  V30 23 1 22 24
M  V30 24 2 24 25
M  V30 25 1 18 26
M  V30 26 1 8 27
M  V30 27 1 27 28
M  V30 28 1 28 5
M  V30 29 1 26 9
M  V30 30 1 17 12
M  V30 31 1 25 19
M  V30 32 1 1 29
M  V30 33 1 1 30
M  V30 34 1 1 31
M  V30 35 1 2 32 CFG=1
M  V30 36 1 3 33
M  V30 37 1 4 34
M  V30 38 1 4 35
M  V30 39 1 6 36
M  V30 40 1 6 37
M  V30 41 1 7 38
M  V30 42 1 7 39
M  V30 43 1 8 40
M  V30 44 1 10 41
M  V30 45 1 13 42
M  V30 46 1 14 43
M  V30 47 1 16 44
M  V30 48 1 17 45
M  V30 49 1 20 46
M  V30 50 1 21 47
M  V30 51 1 24 48
M  V30 52 1 25 49
M  V30 53 1 26 50
M  V30 54 1 27 51
M  V30 55 1 27 52
M  V30 56 1 28 53
M  V30 57 1 28 54
M  V30 END BOND
M  V30 END CTAB
M  END
>  <Dataset>  (721) 
ChEMBL_Kinases

>  <Ligand_Instance>  (721) 
nan

>  <PDB_ID>  (721) 
nan

>  <Standardized_SMILES>  (721) 
C[C@H](O)CN1CCC(c2cc(-c3ccncc3)c(-c3ccc(F)cc3)[nH]2)CC1

>  <Name>  (721) 
nan

>  <Pocket>  (721) 
nan

>  <ATP_Site>  (721) 
nan

>  <Peripheral>  (721) 
nan

>  <Num_H_Atoms_ProtBoundConf>  (721) 
nan

>  <Num_Resolved_Atoms>  (721) 
nan

>  <Num_Not_Resolved_Atoms>  (721) 
nan

$$$$
CHEMBL1976777
     RDKit          3D

  0  0  0  0  0  0  0  0  0  0999 V3000
M  V30 BEGIN CTAB
M  V30 COUNTS 52 54 0 0 0
M  V30 BEGIN ATOM
M  V30 1 C 5.090012 -6.539549 4.297339 0
M  V30 2 C 5.634569 -5.430789 3.822308 0
M  V30 3 C 4.809341 -4.330095 3.277475 0
M  V30 4 O 5.153508 -4.107038 1.929163 0
M  V30 5 C 4.508021 -3.105608 1.178196 0
M  V30 6 C 3.530329 -2.360452 1.823633 0
M  V30 7 C 2.901517 -1.373542 1.065791 0
M  V30 8 C 3.246507 -1.164020 -0.253642 0
M  V30 9 C 2.535049 -0.109980 -0.966906 0
M  V30 10 N 1.642464 0.560824 -0.354956 0
M  V30 11 N 0.905826 1.603152 -0.980269 0
M  V30 12 C 0.537480 2.810383 -0.346382 0
M  V30 13 O 1.318202 3.495974 0.397007 0
M  V30 14 C -0.894532 3.159828 -0.676194 0
M  V30 15 C -1.715976 2.112180 -0.022382 0
M  V30 16 C -3.175684 2.275781 -0.228525 0
M  V30 17 O -3.824723 3.133267 -0.850963 0
M  V30 18 N -3.911235 1.245194 0.420407 0
M  V30 19 C -5.319705 1.125774 0.409033 0
M  V30 20 C -5.985498 1.769780 1.431521 0
M  V30 21 C -7.369325 1.683978 1.467040 0
M  V30 22 C -8.137427 1.000030 0.553106 0
M  V30 23 F -9.488518 0.946998 0.633083 0
M  V30 24 C -7.438352 0.355697 -0.473761 0
M  V30 25 C -6.056643 0.434644 -0.519052 0
M  V30 26 F -5.325684 -0.176045 -1.500081 0
M  V30 27 S -0.781265 2.823369 -2.479830 0
M  V30 28 C 0.465224 1.517644 -2.332735 0
M  V30 29 N 0.808066 0.734981 -3.298836 0
M  V30 30 C 0.190874 0.852632 -4.628947 0
M  V30 31 C 4.226747 -1.935630 -0.844042 0
M  V30 32 C 4.893470 -2.938806 -0.140427 0
M  V30 33 H 3.990694 -6.505459 4.222805 0
M  V30 34 H 5.724757 -7.326043 4.689496 0
M  V30 35 H 6.731505 -5.309078 3.825722 0
M  V30 36 H 3.743393 -4.602988 3.394956 0
M  V30 37 H 4.974170 -3.424815 3.910582 0
M  V30 38 H 3.307917 -2.577616 2.863882 0
M  V30 39 H 2.140308 -0.822565 1.635811 0
M  V30 40 H 2.748013 0.118676 -2.011729 0
M  V30 41 H -1.105585 4.192270 -0.450970 0
M  V30 42 H -1.505681 2.044339 1.064697 0
M  V30 43 H -1.401893 1.132588 -0.445066 0
M  V30 44 H -3.515651 0.441772 0.989707 0
M  V30 45 H -5.551429 2.359213 2.245596 0
M  V30 46 H -7.944659 2.170898 2.248583 0
M  V30 47 H -7.977954 -0.205678 -1.234408 0
M  V30 48 H -0.527053 0.018772 -4.780343 0
M  V30 49 H -0.285676 1.838855 -4.752168 0
M  V30 50 H 0.995815 0.686577 -5.395762 0
M  V30 51 H 4.486616 -1.753379 -1.894018 0
M  V30 52 H 5.664172 -3.555961 -0.580473 0
M  V30 END ATOM
M  V30 BEGIN BOND
M  V30 1 2 1 2
M  V30 2 1 2 3
M  V30 3 1 3 4
M  V30 4 1 4 5
M  V30 5 2 5 6
M  V30 6 1 6 7
M  V30 7 2 7 8
M  V30 8 1 8 9
M  V30 9 2 9 10
M  V30 10 1 10 11
M  V30 11 1 11 12
M  V30 12 2 12 13
M  V30 13 1 12 14
M  V30 14 1 14 15
M  V30 15 1 15 16
M  V30 16 2 16 17
M  V30 17 1 16 18
M  V30 18 1 18 19
M  V30 19 2 19 20
M  V30 20 1 20 21
M  V30 21 2 21 22
M  V30 22 1 22 23
M  V30 23 1 22 24
M  V30 24 2 24 25
M  V30 25 1 25 26
M  V30 26 1 14 27
M  V30 27 1 27 28
M  V30 28 2 28 29
M  V30 29 1 29 30
M  V30 30 1 8 31
M  V30 31 2 31 32
M  V30 32 1 32 5
M  V30 33 1 28 11
M  V30 34 1 25 19
M  V30 35 1 1 33
M  V30 36 1 1 34
M  V30 37 1 2 35
M  V30 38 1 3 36
M  V30 39 1 3 37
M  V30 40 1 6 38
M  V30 41 1 7 39
M  V30 42 1 9 40
M  V30 43 1 14 41
M  V30 44 1 15 42
M  V30 45 1 15 43
M  V30 46 1 18 44
M  V30 47 1 20 45
M  V30 48 1 21 46
M  V30 49 1 24 47
M  V30 50 1 30 48
M  V30 51 1 30 49
M  V30 52 1 30 50
M  V30 53 1 31 51
M  V30 54 1 32 52
M  V30 END BOND
M  V30 END CTAB
M  END
>  <Dataset>  (722) 
ChEMBL_Kinases

>  <Ligand_Instance>  (722) 
nan

>  <PDB_ID>  (722) 
nan

>  <Standardized_SMILES>  (722) 
C=CCOc1ccc(/C=N/N2C(=O)C(CC(=O)Nc3ccc(F)cc3F)S/C2=N\C)cc1

>  <Name>  (722) 
nan

>  <Pocket>  (722) 
nan

>  <ATP_Site>  (722) 
nan

>  <Peripheral>  (722) 
nan

>  <Num_H_Atoms_ProtBoundConf>  (722) 
nan

>  <Num_Resolved_Atoms>  (722) 
nan

>  <Num_Not_Resolved_Atoms>  (722) 
nan

$$$$
CHEMBL1977096
     RDKit          3D

  0  0  0  0  0  0  0  0  0  0999 V3000
M  V30 BEGIN CTAB
M  V30 COUNTS 48 51 0 0 0
M  V30 BEGIN ATOM
M  V30 1 C -4.313936 -4.957934 -2.813618 0
M  V30 2 O -3.199871 -5.187164 -1.987429 0
M  V30 3 C -2.345995 -4.174794 -1.594122 0
M  V30 4 C -2.445601 -2.834327 -1.940263 0
M  V30 5 C -1.519955 -1.890471 -1.479706 0
M  V30 6 C -0.539199 -2.418194 -0.677068 0
M  V30 7 C 0.415830 -1.407384 -0.159684 0
M  V30 8 N 1.377269 -1.743326 0.595655 0
M  V30 9 N 2.348771 -0.935228 1.162393 0
M  V30 10 C 1.786405 0.301379 1.617986 0
M  V30 11 N 2.138730 1.512985 1.095384 0
M  V30 12 C 1.575605 2.640866 1.559820 0
M  V30 13 C 1.944305 3.928976 0.991571 0
M  V30 14 C 1.400529 5.112625 1.485603 0
M  V30 15 C 1.724730 6.366008 0.972995 0
M  V30 16 C 2.628594 6.380271 -0.068852 0
M  V30 17 N 3.176839 5.254210 -0.574011 0
M  V30 18 C 2.853623 4.028606 -0.065651 0
M  V30 19 N 0.657944 2.609197 2.543591 0
M  V30 20 C 0.251947 1.457672 3.115325 0
M  V30 21 C -0.691924 1.393899 4.117298 0
M  V30 22 C -1.108631 0.213393 4.691843 0
M  V30 23 C -0.537502 -0.971091 4.225827 0
M  V30 24 C 0.411551 -0.886154 3.215392 0
M  V30 25 C 0.843481 0.283300 2.625679 0
M  V30 26 C -0.355478 -3.711435 -0.282474 0
M  V30 27 O 0.647636 -4.161600 0.515855 0
M  V30 28 C 0.891644 -5.452876 0.954279 0
M  V30 29 C -1.306867 -4.625158 -0.767382 0
M  V30 30 H -4.732702 -3.944558 -2.723136 0
M  V30 31 H -3.973622 -5.168004 -3.853417 0
M  V30 32 H -5.128422 -5.652824 -2.505501 0
M  V30 33 H -3.267852 -2.551200 -2.581527 0
M  V30 34 H -1.592695 -0.850261 -1.745493 0
M  V30 35 H 0.390768 -0.346616 -0.362689 0
M  V30 36 H 3.361583 -1.241744 1.225230 0
M  V30 37 H 0.708936 5.030572 2.294012 0
M  V30 38 H 1.266442 7.258450 1.404044 0
M  V30 39 H 2.864350 7.375780 -0.451639 0
M  V30 40 H 3.299315 3.136236 -0.479962 0
M  V30 41 H -1.065080 2.374872 4.399370 0
M  V30 42 H -1.857583 0.267193 5.471576 0
M  V30 43 H -0.852435 -1.899802 4.662668 0
M  V30 44 H 0.813189 -1.845397 2.903138 0
M  V30 45 H 0.001002 -6.089397 1.115500 0
M  V30 46 H 1.531317 -5.985107 0.207451 0
M  V30 47 H 1.457173 -5.506348 1.910785 0
M  V30 48 H -1.190132 -5.655308 -0.471916 0
M  V30 END ATOM
M  V30 BEGIN BOND
M  V30 1 1 1 2
M  V30 2 1 2 3
M  V30 3 2 3 4
M  V30 4 1 4 5
M  V30 5 2 5 6
M  V30 6 1 6 7
M  V30 7 2 7 8
M  V30 8 1 8 9
M  V30 9 1 9 10
M  V30 10 2 10 11
M  V30 11 1 11 12
M  V30 12 1 12 13
M  V30 13 2 13 14
M  V30 14 1 14 15
M  V30 15 2 15 16
M  V30 16 1 16 17
M  V30 17 2 17 18
M  V30 18 2 12 19
M  V30 19 1 19 20
M  V30 20 2 20 21
M  V30 21 1 21 22
M  V30 22 2 22 23
M  V30 23 1 23 24
M  V30 24 2 24 25
M  V30 25 1 6 26
M  V30 26 1 26 27
M  V30 27 1 27 28
M  V30 28 2 26 29
M  V30 29 1 29 3
M  V30 30 1 25 10
M  V30 31 1 18 13
M  V30 32 1 25 20
M  V30 33 1 1 30
M  V30 34 1 1 31
M  V30 35 1 1 32
M  V30 36 1 4 33
M  V30 37 1 5 34
M  V30 38 1 7 35
M  V30 39 1 9 36
M  V30 40 1 14 37
M  V30 41 1 15 38
M  V30 42 1 16 39
M  V30 43 1 18 40
M  V30 44 1 21 41
M  V30 45 1 22 42
M  V30 46 1 23 43
M  V30 47 1 24 44
M  V30 48 1 28 45
M  V30 49 1 28 46
M  V30 50 1 28 47
M  V30 51 1 29 48
M  V30 END BOND
M  V30 END CTAB
M  END
>  <Dataset>  (723) 
ChEMBL_Kinases

>  <Ligand_Instance>  (723) 
nan

>  <PDB_ID>  (723) 
nan

>  <Standardized_SMILES>  (723) 
COc1ccc(/C=N/Nc2nc(-c3cccnc3)nc3ccccc23)c(OC)c1

>  <Name>  (723) 
nan

>  <Pocket>  (723) 
nan

>  <ATP_Site>  (723) 
nan

>  <Peripheral>  (723) 
nan

>  <Num_H_Atoms_ProtBoundConf>  (723) 
nan

>  <Num_Resolved_Atoms>  (723) 
nan

>  <Num_Not_Resolved_Atoms>  (723) 
nan

$$$$
CHEMBL197753
     RDKit          3D

  0  0  0  0  0  0  0  0  0  0999 V3000
M  V30 BEGIN CTAB
M  V30 COUNTS 51 54 0 0 0
M  V30 BEGIN ATOM
M  V30 1 C -1.013017 2.966470 -3.715187 0
M  V30 2 C -0.834178 3.832884 -2.512805 0
M  V30 3 C -0.276217 3.014613 -1.406387 0
M  V30 4 N 0.701221 2.694253 -0.970175 0
M  V30 5 C 1.062093 1.949263 0.039505 0
M  V30 6 C 2.399435 1.602941 0.511608 0
M  V30 7 C 3.094577 0.791038 -0.379859 0
M  V30 8 C 4.385155 0.344854 -0.132083 0
M  V30 9 C 5.014732 0.712133 1.037645 0
M  V30 10 O 6.298284 0.327421 1.390299 0
M  V30 11 C 7.090202 -0.502932 0.545369 0
M  V30 12 C 4.325050 1.516977 1.920490 0
M  V30 13 C 3.042810 1.961630 1.676501 0
M  V30 14 C 0.007540 1.445495 0.718909 0
M  V30 15 C -0.255127 0.564538 1.911564 0
M  V30 16 C 0.028172 0.791890 3.239987 0
M  V30 17 C -0.317957 -0.192267 4.138166 0
M  V30 18 N -0.908521 -1.331578 3.747034 0
M  V30 19 C -1.200964 -1.586862 2.451832 0
M  V30 20 N -1.829091 -2.808087 2.070439 0
M  V30 21 C -3.232534 -3.029043 1.987181 0
M  V30 22 O -3.880706 -1.993219 2.297499 0
M  V30 23 C -3.727748 -4.340149 1.579794 0
M  V30 24 C -2.960260 -5.412566 1.253873 0
M  V30 25 C -3.597450 -6.583132 0.890335 0
M  V30 26 C -4.966372 -6.651846 0.862026 0
M  V30 27 C -5.760887 -5.579502 1.187745 0
M  V30 28 C -5.118723 -4.414145 1.549662 0
M  V30 29 C -0.868395 -0.618583 1.506015 0
M  V30 30 S -1.444634 2.123412 -0.202536 0
M  V30 31 H -1.601974 2.068731 -3.445213 0
M  V30 32 H -0.004827 2.588099 -4.013388 0
M  V30 33 H -1.491328 3.505855 -4.552622 0
M  V30 34 H -1.825219 4.270707 -2.192724 0
M  V30 35 H -0.173446 4.688702 -2.646660 0
M  V30 36 H 2.710734 0.428536 -1.340947 0
M  V30 37 H 4.940054 -0.280924 -0.803916 0
M  V30 38 H 8.104515 -0.621375 0.965696 0
M  V30 39 H 7.156299 -0.073131 -0.473855 0
M  V30 40 H 6.656905 -1.533678 0.483267 0
M  V30 41 H 4.733937 1.860242 2.867504 0
M  V30 42 H 2.446287 2.590914 2.314681 0
M  V30 43 H 0.499151 1.748664 3.398538 0
M  V30 44 H -0.067482 0.048062 5.172627 0
M  V30 45 H -1.108687 -3.518069 1.860406 0
M  V30 46 H -1.899640 -5.308626 1.291783 0
M  V30 47 H -2.971160 -7.423577 0.634595 0
M  V30 48 H -5.370480 -7.602453 0.567930 0
M  V30 49 H -6.832945 -5.696718 1.146599 0
M  V30 50 H -5.779679 -3.575123 1.804149 0
M  V30 51 H -1.129804 -0.887442 0.491768 0
M  V30 END ATOM
M  V30 BEGIN BOND
M  V30 1 1 1 2
M  V30 2 1 2 3
M  V30 3 2 3 4
M  V30 4 1 4 5
M  V30 5 1 5 6
M  V30 6 2 6 7
M  V30 7 1 7 8
M  V30 8 2 8 9
M  V30 9 1 9 10
M  V30 10 1 10 11
M  V30 11 1 9 12
M  V30 12 2 12 13
M  V30 13 2 5 14
M  V30 14 1 14 15
M  V30 15 2 15 16
M  V30 16 1 16 17
M  V30 17 2 17 18
M  V30 18 1 18 19
M  V30 19 1 19 20
M  V30 20 1 20 21
M  V30 21 2 21 22
M  V30 22 1 21 23
M  V30 23 2 23 24
M  V30 24 1 24 25
M  V30 25 2 25 26
M  V30 26 1 26 27
M  V30 27 2 27 28
M  V30 28 2 19 29
M  V30 29 1 14 30
M  V30 30 1 30 3
M  V30 31 1 13 6
M  V30 32 1 29 15
M  V30 33 1 28 23
M  V30 34 1 1 31
M  V30 35 1 1 32
M  V30 36 1 1 33
M  V30 37 1 2 34
M  V30 38 1 2 35
M  V30 39 1 7 36
M  V30 40 1 8 37
M  V30 41 1 11 38
M  V30 42 1 11 39
M  V30 43 1 11 40
M  V30 44 1 12 41
M  V30 45 1 13 42
M  V30 46 1 16 43
M  V30 47 1 17 44
M  V30 48 1 20 45
M  V30 49 1 24 46
M  V30 50 1 25 47
M  V30 51 1 26 48
M  V30 52 1 27 49
M  V30 53 1 28 50
M  V30 54 1 29 51
M  V30 END BOND
M  V30 END CTAB
M  END
>  <Dataset>  (724) 
ChEMBL_Kinases

>  <Ligand_Instance>  (724) 
nan

>  <PDB_ID>  (724) 
nan

>  <Standardized_SMILES>  (724) 
CCc1nc(-c2ccc(OC)cc2)c(-c2ccnc(NC(=O)c3ccccc3)c2)s1

>  <Name>  (724) 
nan

>  <Pocket>  (724) 
nan

>  <ATP_Site>  (724) 
nan

>  <Peripheral>  (724) 
nan

>  <Num_H_Atoms_ProtBoundConf>  (724) 
nan

>  <Num_Resolved_Atoms>  (724) 
nan

>  <Num_Not_Resolved_Atoms>  (724) 
nan

$$$$
CHEMBL198058
     RDKit          3D

  0  0  0  0  0  0  0  0  0  0999 V3000
M  V30 BEGIN CTAB
M  V30 COUNTS 49 53 0 0 0
M  V30 BEGIN ATOM
M  V30 1 O 2.013305 1.135549 1.685622 0
M  V30 2 C 1.305665 0.622280 2.558250 0
M  V30 3 N 1.852548 -0.285410 3.480523 0
M  V30 4 C 3.187713 -0.743686 3.584807 0
M  V30 5 C 4.261163 -0.387842 2.805382 0
M  V30 6 C 5.529197 -0.882927 2.972253 0
M  V30 7 C 5.791933 -1.790331 3.963143 0
M  V30 8 C 4.742879 -2.162484 4.753483 0
M  V30 9 C 3.478788 -1.655142 4.570868 0
M  V30 10 N -0.057095 1.028362 2.533406 0
M  V30 11 C -0.527882 1.954872 1.559851 0
M  V30 12 N -0.437939 3.296245 1.796406 0
M  V30 13 N -0.943737 3.971074 0.755052 0
M  V30 14 C -1.368151 3.068343 -0.169676 0
M  V30 15 N -1.951183 3.144486 -1.381132 0
M  V30 16 N -2.248746 2.030813 -2.031409 0
M  V30 17 C -2.010669 0.790072 -1.570175 0
M  V30 18 C -2.397635 -0.345500 -2.400778 0
M  V30 19 C -1.508408 -1.282383 -2.887280 0
M  V30 20 C -1.878992 -2.353055 -3.675459 0
M  V30 21 C -3.214709 -2.486548 -3.989871 0
M  V30 22 C -4.136484 -1.572073 -3.523747 0
M  V30 23 C -3.728881 -0.517540 -2.740185 0
M  V30 24 C -1.409553 0.628813 -0.325359 0
M  V30 25 C -1.154038 -0.711814 0.190416 0
M  V30 26 C -2.353716 -1.273450 0.649520 0
M  V30 27 C -2.348907 -2.569879 1.179803 0
M  V30 28 C -1.188847 -3.323383 1.266137 0
M  V30 29 C -0.039814 -2.717272 0.798115 0
M  V30 30 C -0.006706 -1.462340 0.278455 0
M  V30 31 C -1.114793 1.808868 0.319306 0
M  V30 32 H 1.133050 -0.630497 4.149860 0
M  V30 33 H 4.106546 0.323790 2.011695 0
M  V30 34 H 6.332681 -0.542489 2.300460 0
M  V30 35 H 6.809357 -2.140965 4.041134 0
M  V30 36 H 4.921036 -2.870067 5.537177 0
M  V30 37 H 2.703302 -2.005585 5.244219 0
M  V30 38 H -0.708571 0.617097 3.266165 0
M  V30 39 H -0.057562 3.794786 2.614851 0
M  V30 40 H -0.452720 -1.171659 -2.634629 0
M  V30 41 H -1.140604 -3.080183 -4.042179 0
M  V30 42 H -3.495535 -3.337596 -4.615757 0
M  V30 43 H -5.146607 -1.787495 -3.838105 0
M  V30 44 H -4.514818 0.154656 -2.416968 0
M  V30 45 H -3.354552 -0.828818 0.659914 0
M  V30 46 H -3.238527 -3.078583 1.558695 0
M  V30 47 H -1.194398 -4.330249 1.680314 0
M  V30 48 H 0.917220 -3.231826 0.829060 0
M  V30 49 H 0.837295 -0.918487 -0.106033 0
M  V30 END ATOM
M  V30 BEGIN BOND
M  V30 1 2 1 2
M  V30 2 1 2 3
M  V30 3 1 3 4
M  V30 4 2 4 5
M  V30 5 1 5 6
M  V30 6 2 6 7
M  V30 7 1 7 8
M  V30 8 2 8 9
M  V30 9 1 2 10
M  V30 10 1 10 11
M  V30 11 1 11 12
M  V30 12 1 12 13
M  V30 13 2 13 14
M  V30 14 1 14 15
M  V30 15 2 15 16
M  V30 16 1 16 17
M  V30 17 1 17 18
M  V30 18 2 18 19
M  V30 19 1 19 20
M  V30 20 2 20 21
M  V30 21 1 21 22
M  V30 22 2 22 23
M  V30 23 2 17 24
M  V30 24 1 24 25
M  V30 25 2 25 26
M  V30 26 1 26 27
M  V30 27 2 27 28
M  V30 28 1 28 29
M  V30 29 2 29 30
M  V30 30 1 24 31
M  V30 31 1 9 4
M  V30 32 2 31 11
M  V30 33 1 31 14
M  V30 34 1 23 18
M  V30 35 1 30 25
M  V30 36 1 3 32
M  V30 37 1 5 33
M  V30 38 1 6 34
M  V30 39 1 7 35
M  V30 40 1 8 36
M  V30 41 1 9 37
M  V30 42 1 10 38
M  V30 43 1 12 39
M  V30 44 1 19 40
M  V30 45 1 20 41
M  V30 46 1 21 42
M  V30 47 1 22 43
M  V30 48 1 23 44
M  V30 49 1 26 45
M  V30 50 1 27 46
M  V30 51 1 28 47
M  V30 52 1 29 48
M  V30 53 1 30 49
M  V30 END BOND
M  V30 END CTAB
M  END
>  <Dataset>  (725) 
ChEMBL_Kinases

>  <Ligand_Instance>  (725) 
nan

>  <PDB_ID>  (725) 
nan

>  <Standardized_SMILES>  (725) 
O=C(Nc1ccccc1)Nc1[nH]nc2nnc(-c3ccccc3)c(-c3ccccc3)c12

>  <Name>  (725) 
nan

>  <Pocket>  (725) 
nan

>  <ATP_Site>  (725) 
nan

>  <Peripheral>  (725) 
nan

>  <Num_H_Atoms_ProtBoundConf>  (725) 
nan

>  <Num_Resolved_Atoms>  (725) 
nan

>  <Num_Not_Resolved_Atoms>  (725) 
nan

$$$$
CHEMBL197776
     RDKit          3D

  0  0  0  0  0  0  0  0  0  0999 V3000
M  V30 BEGIN CTAB
M  V30 COUNTS 36 38 0 0 0
M  V30 BEGIN ATOM
M  V30 1 C -0.604719 -4.184916 3.979265 0
M  V30 2 C -1.669980 -3.539445 3.148249 0
M  V30 3 C -1.033111 -2.369099 2.399631 0
M  V30 4 N -0.499210 -2.125573 1.417037 0
M  V30 5 C -0.035129 -0.957271 1.016482 0
M  V30 6 C 0.630125 -0.852081 -0.303251 0
M  V30 7 C 1.961132 -0.482675 -0.374407 0
M  V30 8 C 2.578557 -0.387775 -1.618758 0
M  V30 9 C 1.837878 -0.668470 -2.768857 0
M  V30 10 C 0.510110 -1.037518 -2.707418 0
M  V30 11 C -0.267965 -1.334359 -3.938830 0
M  V30 12 C -0.105312 -1.131579 -1.461053 0
M  V30 13 C -0.217676 0.104932 1.895851 0
M  V30 14 C 0.215950 1.500412 1.669718 0
M  V30 15 C 1.117686 2.109889 2.533013 0
M  V30 16 C 1.489505 3.417426 2.273524 0
M  V30 17 N 1.016873 4.126871 1.221424 0
M  V30 18 C 0.139690 3.535704 0.380553 0
M  V30 19 Cl -0.473956 4.442310 -0.977614 0
M  V30 20 C -0.255088 2.236213 0.604332 0
M  V30 21 S -1.084997 -0.703810 3.296267 0
M  V30 22 H -0.837588 -4.075259 5.067823 0
M  V30 23 H -0.584493 -5.296450 3.807532 0
M  V30 24 H 0.421236 -3.793830 3.777368 0
M  V30 25 H -2.496033 -3.158540 3.784579 0
M  V30 26 H -2.118427 -4.227865 2.411941 0
M  V30 27 H 2.521574 -0.268278 0.527164 0
M  V30 28 H 3.633281 -0.095592 -1.684725 0
M  V30 29 H 2.313141 -0.596667 -3.741131 0
M  V30 30 H -0.135655 -0.522479 -4.677196 0
M  V30 31 H 0.001146 -2.295400 -4.407550 0
M  V30 32 H -1.364399 -1.336107 -3.679860 0
M  V30 33 H -1.158375 -1.420211 -1.342543 0
M  V30 34 H 1.524113 1.583633 3.389309 0
M  V30 35 H 2.201805 3.935512 2.934289 0
M  V30 36 H -0.958023 1.741472 -0.057175 0
M  V30 END ATOM
M  V30 BEGIN BOND
M  V30 1 1 1 2
M  V30 2 1 2 3
M  V30 3 2 3 4
M  V30 4 1 4 5
M  V30 5 1 5 6
M  V30 6 2 6 7
M  V30 7 1 7 8
M  V30 8 2 8 9
M  V30 9 1 9 10
M  V30 10 1 10 11
M  V30 11 2 10 12
M  V30 12 2 5 13
M  V30 13 1 13 14
M  V30 14 2 14 15
M  V30 15 1 15 16
M  V30 16 2 16 17
M  V30 17 1 17 18
M  V30 18 1 18 19
M  V30 19 2 18 20
M  V30 20 1 13 21
M  V30 21 1 21 3
M  V30 22 1 12 6
M  V30 23 1 20 14
M  V30 24 1 1 22
M  V30 25 1 1 23
M  V30 26 1 1 24
M  V30 27 1 2 25
M  V30 28 1 2 26
M  V30 29 1 7 27
M  V30 30 1 8 28
M  V30 31 1 9 29
M  V30 32 1 11 30
M  V30 33 1 11 31
M  V30 34 1 11 32
M  V30 35 1 12 33
M  V30 36 1 15 34
M  V30 37 1 16 35
M  V30 38 1 20 36
M  V30 END BOND
M  V30 END CTAB
M  END
>  <Dataset>  (726) 
ChEMBL_Kinases

>  <Ligand_Instance>  (726) 
nan

>  <PDB_ID>  (726) 
nan

>  <Standardized_SMILES>  (726) 
CCc1nc(-c2cccc(C)c2)c(-c2ccnc(Cl)c2)s1

>  <Name>  (726) 
nan

>  <Pocket>  (726) 
nan

>  <ATP_Site>  (726) 
nan

>  <Peripheral>  (726) 
nan

>  <Num_H_Atoms_ProtBoundConf>  (726) 
nan

>  <Num_Resolved_Atoms>  (726) 
nan

>  <Num_Not_Resolved_Atoms>  (726) 
nan

$$$$
CHEMBL197799
     RDKit          3D

  0  0  0  0  0  0  0  0  0  0999 V3000
M  V30 BEGIN CTAB
M  V30 COUNTS 63 67 0 0 0
M  V30 BEGIN ATOM
M  V30 1 C -0.123752 3.353083 5.855300 0
M  V30 2 C 0.528860 2.765935 4.656195 0
M  V30 3 C 1.891210 2.659378 4.559516 0
M  V30 4 C 2.380020 2.090815 3.390005 0
M  V30 5 C 1.508701 1.668368 2.401534 0
M  V30 6 C 0.118246 1.787923 2.523173 0
M  V30 7 C -0.628559 1.288215 1.369427 0
M  V30 8 N -0.586162 1.919264 0.217612 0
M  V30 9 C -1.150978 1.605334 -0.782822 0
M  V30 10 C -1.291474 2.093673 -2.184599 0
M  V30 11 C -2.062312 1.436431 -3.103244 0
M  V30 12 C -2.135268 1.957455 -4.381987 0
M  V30 13 C -1.426768 3.125599 -4.689150 0
M  V30 14 S -1.554997 3.735685 -6.314209 0
M  V30 15 C -0.280642 3.045898 -7.362653 0
M  V30 16 O -1.295591 5.221042 -6.278950 0
M  V30 17 O -2.892282 3.504813 -6.920662 0
M  V30 18 C -0.669004 3.735459 -3.711533 0
M  V30 19 C -0.565260 3.244792 -2.404662 0
M  V30 20 S -2.053197 0.073247 -0.298125 0
M  V30 21 C -1.427170 0.131596 1.395234 0
M  V30 22 C -1.704513 -0.821633 2.516430 0
M  V30 23 C -2.397683 -0.506676 3.644168 0
M  V30 24 C -2.557173 -1.508008 4.576909 0
M  V30 25 N -2.059347 -2.743632 4.399851 0
M  V30 26 C -1.375896 -3.112188 3.324199 0
M  V30 27 N -0.906581 -4.442943 3.258518 0
M  V30 28 C -0.161533 -5.073723 2.242398 0
M  V30 29 O 0.170953 -4.427861 1.219704 0
M  V30 30 C 0.292545 -6.468397 2.242519 0
M  V30 31 C 1.059296 -6.791037 0.994615 0
M  V30 32 C 0.433904 -7.296061 -0.149886 0
M  V30 33 C 1.218171 -7.561350 -1.245275 0
M  V30 34 C 2.575987 -7.365132 -1.296004 0
M  V30 35 C 3.222088 -6.860277 -0.162002 0
M  V30 36 C 2.423720 -6.599670 0.926923 0
M  V30 37 C -1.217867 -2.115542 2.397067 0
M  V30 38 C -0.349077 2.348306 3.677773 0
M  V30 39 H -0.791342 4.206255 5.602819 0
M  V30 40 H 0.659819 3.611689 6.573570 0
M  V30 41 H -0.717187 2.514178 6.312353 0
M  V30 42 H 2.551166 2.994987 5.343287 0
M  V30 43 H 3.456089 1.990603 3.277824 0
M  V30 44 H 1.994483 1.238603 1.528146 0
M  V30 45 H -2.599252 0.534583 -2.834522 0
M  V30 46 H -2.754140 1.409444 -5.078818 0
M  V30 47 H -0.553294 3.154501 -8.426220 0
M  V30 48 H 0.716735 3.467221 -7.106218 0
M  V30 49 H -0.198311 1.952314 -7.183108 0
M  V30 50 H -0.137055 4.639747 -3.997244 0
M  V30 51 H 0.035846 3.751550 -1.674317 0
M  V30 52 H -2.784811 0.485580 3.755453 0
M  V30 53 H -3.095934 -1.320395 5.491595 0
M  V30 54 H -1.098951 -5.105003 4.029207 0
M  V30 55 H -0.611441 -7.135196 2.291877 0
M  V30 56 H 0.926186 -6.628770 3.139112 0
M  V30 57 H -0.638033 -7.458419 -0.131649 0
M  V30 58 H 0.749284 -7.958810 -2.157531 0
M  V30 59 H 3.193480 -7.573916 -2.158914 0
M  V30 60 H 4.294028 -6.685439 -0.148226 0
M  V30 61 H 2.886859 -6.203355 1.837663 0
M  V30 62 H -0.671836 -2.341494 1.494144 0
M  V30 63 H -1.418465 2.428793 3.736706 0
M  V30 END ATOM
M  V30 BEGIN BOND
M  V30 1 1 1 2
M  V30 2 2 2 3
M  V30 3 1 3 4
M  V30 4 2 4 5
M  V30 5 1 5 6
M  V30 6 1 6 7
M  V30 7 1 7 8
M  V30 8 2 8 9
M  V30 9 1 9 10
M  V30 10 2 10 11
M  V30 11 1 11 12
M  V30 12 2 12 13
M  V30 13 1 13 14
M  V30 14 1 14 15
M  V30 15 2 14 16
M  V30 16 2 14 17
M  V30 17 1 13 18
M  V30 18 2 18 19
M  V30 19 1 9 20
M  V30 20 1 20 21
M  V30 21 1 21 22
M  V30 22 2 22 23
M  V30 23 1 23 24
M  V30 24 2 24 25
M  V30 25 1 25 26
M  V30 26 1 26 27
M  V30 27 1 27 28
M  V30 28 2 28 29
M  V30 29 1 28 30
M  V30 30 1 30 31
M  V30 31 2 31 32
M  V30 32 1 32 33
M  V30 33 2 33 34
M  V30 34 1 34 35
M  V30 35 2 35 36
M  V30 36 2 26 37
M  V30 37 2 6 38
M  V30 38 1 38 2
M  V30 39 2 21 7
M  V30 40 1 37 22
M  V30 41 1 19 10
M  V30 42 1 36 31
M  V30 43 1 1 39
M  V30 44 1 1 40
M  V30 45 1 1 41
M  V30 46 1 3 42
M  V30 47 1 4 43
M  V30 48 1 5 44
M  V30 49 1 11 45
M  V30 50 1 12 46
M  V30 51 1 15 47
M  V30 52 1 15 48
M  V30 53 1 15 49
M  V30 54 1 18 50
M  V30 55 1 19 51
M  V30 56 1 23 52
M  V30 57 1 24 53
M  V30 58 1 27 54
M  V30 59 1 30 55
M  V30 60 1 30 56
M  V30 61 1 32 57
M  V30 62 1 33 58
M  V30 63 1 34 59
M  V30 64 1 35 60
M  V30 65 1 36 61
M  V30 66 1 37 62
M  V30 67 1 38 63
M  V30 END BOND
M  V30 END CTAB
M  END
>  <Dataset>  (727) 
ChEMBL_Kinases

>  <Ligand_Instance>  (727) 
nan

>  <PDB_ID>  (727) 
nan

>  <Standardized_SMILES>  (727) 
Cc1cccc(-c2nc(-c3ccc(S(C)(=O)=O)cc3)sc2-c2ccnc(NC(=O)Cc3ccccc3)c2)c1

>  <Name>  (727) 
nan

>  <Pocket>  (727) 
nan

>  <ATP_Site>  (727) 
nan

>  <Peripheral>  (727) 
nan

>  <Num_H_Atoms_ProtBoundConf>  (727) 
nan

>  <Num_Resolved_Atoms>  (727) 
nan

>  <Num_Not_Resolved_Atoms>  (727) 
nan

$$$$
CHEMBL197887
     RDKit          3D

  0  0  0  0  0  0  0  0  0  0999 V3000
M  V30 BEGIN CTAB
M  V30 COUNTS 57 60 0 0 0
M  V30 BEGIN ATOM
M  V30 1 C 1.278814 -2.177920 5.019545 0
M  V30 2 C 0.175910 -2.106885 3.991328 0
M  V30 3 C 0.667904 -1.467912 2.706907 0
M  V30 4 O 1.097044 -0.186916 3.068977 0
M  V30 5 C 1.716476 -2.293556 2.043433 0
M  V30 6 N 2.206446 -1.726851 0.829867 0
M  V30 7 C 2.970346 -0.528832 0.963149 0
M  V30 8 C 3.597349 -0.180580 -0.374222 0
M  V30 9 C 2.759833 -0.742267 -1.514806 0
M  V30 10 C 1.325644 -0.409089 -1.317342 0
M  V30 11 C 0.724491 0.846027 -1.299390 0
M  V30 12 C -0.637815 0.760522 -1.114117 0
M  V30 13 C -1.672461 1.757474 -1.027081 0
M  V30 14 C -1.795395 2.699350 0.000800 0
M  V30 15 C -2.807592 3.626254 0.019537 0
M  V30 16 N -3.706750 3.636343 -0.970106 0
M  V30 17 C -3.684965 2.769258 -2.018819 0
M  V30 18 C -2.648907 1.845545 -2.006260 0
M  V30 19 C -0.884170 -0.609113 -1.014292 0
M  V30 20 C -2.183660 -1.247932 -0.811631 0
M  V30 21 C -2.972559 -1.135675 0.311903 0
M  V30 22 C -4.194973 -1.748448 0.474634 0
M  V30 23 C -4.673169 -2.542121 -0.574499 0
M  V30 24 F -5.873626 -3.178416 -0.485273 0
M  V30 25 C -3.879016 -2.656082 -1.707673 0
M  V30 26 C -2.652857 -2.040054 -1.867307 0
M  V30 27 N 0.298420 -1.285421 -1.137665 0
M  V30 28 C 2.912304 -2.235994 -1.446705 0
M  V30 29 C 2.808608 -2.710990 -0.033735 0
M  V30 30 H 2.252214 -1.802213 4.646931 0
M  V30 31 H 1.348318 -3.188431 5.491296 0
M  V30 32 H 1.006001 -1.465814 5.853353 0
M  V30 33 H -0.226547 -3.130708 3.847133 0
M  V30 34 H -0.695894 -1.506238 4.366411 0
M  V30 35 H -0.224127 -1.371174 2.020819 0
M  V30 36 H 0.389856 0.473786 2.822221 0
M  V30 37 H 2.523339 -2.519433 2.776316 0
M  V30 38 H 1.234680 -3.272856 1.760908 0
M  V30 39 H 3.688252 -0.496699 1.787591 0
M  V30 40 H 2.241373 0.316081 1.150300 0
M  V30 41 H 3.726503 0.898322 -0.534873 0
M  V30 42 H 4.573203 -0.698643 -0.440002 0
M  V30 43 H 3.129570 -0.271560 -2.450326 0
M  V30 44 H 1.253366 1.766621 -1.414229 0
M  V30 45 H -1.025162 2.618754 0.763552 0
M  V30 46 H -2.861017 4.344816 0.849501 0
M  V30 47 H -4.410924 2.785243 -2.810143 0
M  V30 48 H -2.642140 1.163139 -2.844692 0
M  V30 49 H -2.545608 -0.511818 1.079818 0
M  V30 50 H -4.771764 -1.624626 1.383111 0
M  V30 51 H -4.272855 -3.285301 -2.518350 0
M  V30 52 H -2.143248 -2.225044 -2.821887 0
M  V30 53 H 0.330212 -2.330314 -1.096027 0
M  V30 54 H 3.839374 -2.589445 -1.952242 0
M  V30 55 H 2.081300 -2.666645 -2.057766 0
M  V30 56 H 3.819734 -3.018302 0.312568 0
M  V30 57 H 2.172330 -3.634968 0.010642 0
M  V30 END ATOM
M  V30 BEGIN BOND
M  V30 1 1 1 2
M  V30 2 1 2 3
M  V30 3 1 3 4
M  V30 4 1 3 5
M  V30 5 1 5 6
M  V30 6 1 6 7
M  V30 7 1 7 8
M  V30 8 1 8 9
M  V30 9 1 9 10
M  V30 10 2 10 11
M  V30 11 1 11 12
M  V30 12 1 12 13
M  V30 13 2 13 14
M  V30 14 1 14 15
M  V30 15 2 15 16
M  V30 16 1 16 17
M  V30 17 2 17 18
M  V30 18 2 12 19
M  V30 19 1 19 20
M  V30 20 2 20 21
M  V30 21 1 21 22
M  V30 22 2 22 23
M  V30 23 1 23 24
M  V30 24 1 23 25
M  V30 25 2 25 26
M  V30 26 1 19 27
M  V30 27 1 9 28
M  V30 28 1 28 29
M  V30 29 1 29 6
M  V30 30 1 27 10
M  V30 31 1 18 13
M  V30 32 1 26 20
M  V30 33 1 1 30
M  V30 34 1 1 31
M  V30 35 1 1 32
M  V30 36 1 2 33
M  V30 37 1 2 34
M  V30 38 1 3 35
M  V30 39 1 4 36
M  V30 40 1 5 37
M  V30 41 1 5 38
M  V30 42 1 7 39
M  V30 43 1 7 40
M  V30 44 1 8 41
M  V30 45 1 8 42
M  V30 46 1 9 43
M  V30 47 1 11 44
M  V30 48 1 14 45
M  V30 49 1 15 46
M  V30 50 1 17 47
M  V30 51 1 18 48
M  V30 52 1 21 49
M  V30 53 1 22 50
M  V30 54 1 25 51
M  V30 55 1 26 52
M  V30 56 1 27 53
M  V30 57 1 28 54
M  V30 58 1 28 55
M  V30 59 1 29 56
M  V30 60 1 29 57
M  V30 END BOND
M  V30 END CTAB
M  END
>  <Dataset>  (728) 
ChEMBL_Kinases

>  <Ligand_Instance>  (728) 
nan

>  <PDB_ID>  (728) 
nan

>  <Standardized_SMILES>  (728) 
CCC(O)CN1CCC(c2cc(-c3ccncc3)c(-c3ccc(F)cc3)[nH]2)CC1

>  <Name>  (728) 
nan

>  <Pocket>  (728) 
nan

>  <ATP_Site>  (728) 
nan

>  <Peripheral>  (728) 
nan

>  <Num_H_Atoms_ProtBoundConf>  (728) 
nan

>  <Num_Resolved_Atoms>  (728) 
nan

>  <Num_Not_Resolved_Atoms>  (728) 
nan

$$$$
CHEMBL197888
     RDKit          3D

  0  0  0  0  0  0  0  0  0  0999 V3000
M  V30 BEGIN CTAB
M  V30 COUNTS 60 63 0 0 0
M  V30 BEGIN ATOM
M  V30 1 C 3.675479 0.291634 6.957570 0
M  V30 2 C 2.816315 0.209843 5.706556 0
M  V30 3 C 3.547419 -0.431429 4.581929 0
M  V30 4 C 2.702401 -0.531887 3.334165 0
M  V30 5 O 3.541259 -1.159520 2.386729 0
M  V30 6 C 2.281333 0.782520 2.784472 0
M  V30 7 N 1.541609 0.744183 1.542927 0
M  V30 8 C 1.190815 2.125446 1.240132 0
M  V30 9 C 0.216637 2.195940 0.083057 0
M  V30 10 C 0.648658 1.289763 -1.042796 0
M  V30 11 C -0.341007 0.206645 -1.268907 0
M  V30 12 C -0.748805 -0.813658 -0.435004 0
M  V30 13 C -1.696633 -1.610339 -1.042867 0
M  V30 14 C -2.354310 -2.780654 -0.467260 0
M  V30 15 C -3.730097 -2.636780 -0.335314 0
M  V30 16 C -4.418871 -3.718673 0.208375 0
M  V30 17 N -3.765997 -4.831419 0.578119 0
M  V30 18 C -2.432916 -4.976205 0.452491 0
M  V30 19 C -1.685139 -3.926172 -0.086234 0
M  V30 20 C -1.889232 -1.073557 -2.296042 0
M  V30 21 C -2.797894 -1.578112 -3.297455 0
M  V30 22 C -3.838727 -0.826456 -3.789643 0
M  V30 23 C -4.695754 -1.352232 -4.758519 0
M  V30 24 C -4.494398 -2.649118 -5.230266 0
M  V30 25 F -5.323636 -3.188388 -6.182634 0
M  V30 26 C -3.435734 -3.412083 -4.728931 0
M  V30 27 C -2.590736 -2.879538 -3.766673 0
M  V30 28 N -1.077999 -0.008096 -2.395889 0
M  V30 29 C 2.036307 0.771423 -0.858533 0
M  V30 30 C 2.392978 0.264058 0.490708 0
M  V30 31 H 3.616088 -0.666340 7.528890 0
M  V30 32 H 4.725369 0.514462 6.764688 0
M  V30 33 H 3.164354 1.041609 7.625501 0
M  V30 34 H 1.928456 -0.384121 5.950585 0
M  V30 35 H 2.509523 1.247370 5.391320 0
M  V30 36 H 3.800683 -1.477820 4.910569 0
M  V30 37 H 4.524854 0.044059 4.355691 0
M  V30 38 H 1.851138 -1.220497 3.531315 0
M  V30 39 H 4.462041 -0.820439 2.524573 0
M  V30 40 H 3.153876 1.485399 2.640731 0
M  V30 41 H 1.677734 1.308037 3.583111 0
M  V30 42 H 2.136121 2.649702 0.997441 0
M  V30 43 H 0.768251 2.594656 2.140242 0
M  V30 44 H 0.147428 3.241791 -0.262662 0
M  V30 45 H -0.778185 1.874918 0.420745 0
M  V30 46 H 0.672502 1.914856 -1.970678 0
M  V30 47 H -0.402023 -0.994786 0.551559 0
M  V30 48 H -4.280472 -1.752781 -0.624724 0
M  V30 49 H -5.494913 -3.693955 0.347893 0
M  V30 50 H -1.877242 -5.858933 0.740680 0
M  V30 51 H -0.614099 -3.911369 -0.241409 0
M  V30 52 H -4.021887 0.181735 -3.445036 0
M  V30 53 H -5.531857 -0.824648 -5.191408 0
M  V30 54 H -3.341296 -4.413990 -5.144022 0
M  V30 55 H -1.793736 -3.541717 -3.432414 0
M  V30 56 H -1.040189 0.582413 -3.274585 0
M  V30 57 H 2.805107 1.517288 -1.200868 0
M  V30 58 H 2.166521 -0.076820 -1.591237 0
M  V30 59 H 3.466924 0.465095 0.757360 0
M  V30 60 H 2.282282 -0.867274 0.516760 0
M  V30 END ATOM
M  V30 BEGIN BOND
M  V30 1 1 1 2
M  V30 2 1 2 3
M  V30 3 1 3 4
M  V30 4 1 4 5
M  V30 5 1 4 6
M  V30 6 1 6 7
M  V30 7 1 7 8
M  V30 8 1 8 9
M  V30 9 1 9 10
M  V30 10 1 10 11
M  V30 11 2 11 12
M  V30 12 1 12 13
M  V30 13 1 13 14
M  V30 14 2 14 15
M  V30 15 1 15 16
M  V30 16 2 16 17
M  V30 17 1 17 18
M  V30 18 2 18 19
M  V30 19 2 13 20
M  V30 20 1 20 21
M  V30 21 2 21 22
M  V30 22 1 22 23
M  V30 23 2 23 24
M  V30 24 1 24 25
M  V30 25 1 24 26
M  V30 26 2 26 27
M  V30 27 1 20 28
M  V30 28 1 10 29
M  V30 29 1 29 30
M  V30 30 1 30 7
M  V30 31 1 28 11
M  V30 32 1 19 14
M  V30 33 1 27 21
M  V30 34 1 1 31
M  V30 35 1 1 32
M  V30 36 1 1 33
M  V30 37 1 2 34
M  V30 38 1 2 35
M  V30 39 1 3 36
M  V30 40 1 3 37
M  V30 41 1 4 38
M  V30 42 1 5 39
M  V30 43 1 6 40
M  V30 44 1 6 41
M  V30 45 1 8 42
M  V30 46 1 8 43
M  V30 47 1 9 44
M  V30 48 1 9 45
M  V30 49 1 10 46
M  V30 50 1 12 47
M  V30 51 1 15 48
M  V30 52 1 16 49
M  V30 53 1 18 50
M  V30 54 1 19 51
M  V30 55 1 22 52
M  V30 56 1 23 53
M  V30 57 1 26 54
M  V30 58 1 27 55
M  V30 59 1 28 56
M  V30 60 1 29 57
M  V30 61 1 29 58
M  V30 62 1 30 59
M  V30 63 1 30 60
M  V30 END BOND
M  V30 END CTAB
M  END
>  <Dataset>  (729) 
ChEMBL_Kinases

>  <Ligand_Instance>  (729) 
nan

>  <PDB_ID>  (729) 
nan

>  <Standardized_SMILES>  (729) 
CCCC(O)CN1CCC(c2cc(-c3ccncc3)c(-c3ccc(F)cc3)[nH]2)CC1

>  <Name>  (729) 
nan

>  <Pocket>  (729) 
nan

>  <ATP_Site>  (729) 
nan

>  <Peripheral>  (729) 
nan

>  <Num_H_Atoms_ProtBoundConf>  (729) 
nan

>  <Num_Resolved_Atoms>  (729) 
nan

>  <Num_Not_Resolved_Atoms>  (729) 
nan

$$$$
CHEMBL197912
     RDKit          3D

  0  0  0  0  0  0  0  0  0  0999 V3000
M  V30 BEGIN CTAB
M  V30 COUNTS 51 54 0 0 0
M  V30 BEGIN ATOM
M  V30 1 C 2.706631 -5.526576 0.548514 0
M  V30 2 C 3.312710 -4.348275 -0.181172 0
M  V30 3 C 2.639499 -3.071487 0.200746 0
M  V30 4 N 2.820970 -1.802517 -0.170051 0
M  V30 5 C 1.987815 -0.946254 0.422972 0
M  V30 6 C 2.273505 0.426391 -0.056137 0
M  V30 7 C 1.199305 0.978713 -0.721144 0
M  V30 8 C 1.285622 2.256167 -1.238272 0
M  V30 9 C 2.460208 2.998870 -1.092366 0
M  V30 10 C 3.509870 2.412392 -0.422412 0
M  V30 11 C 4.787931 3.156955 -0.236153 0
M  V30 12 C 3.433845 1.136778 0.098025 0
M  V30 13 C 1.031551 -1.264760 1.319702 0
M  V30 14 C 0.145202 -0.342098 1.946914 0
M  V30 15 C 0.670559 0.648345 2.759927 0
M  V30 16 C -0.216169 1.510710 3.341814 0
M  V30 17 N -1.543354 1.441693 3.164228 0
M  V30 18 C -2.136099 0.494534 2.378204 0
M  V30 19 N -3.536900 0.402401 2.186421 0
M  V30 20 C -4.273470 -0.516351 1.388400 0
M  V30 21 C -4.029796 -0.454952 -0.082391 0
M  V30 22 C -4.366249 -1.857424 -0.540885 0
M  V30 23 C -3.881042 -2.761387 0.544056 0
M  V30 24 C -4.080644 -1.957962 1.808180 0
M  V30 25 C -1.225987 -0.364605 1.801130 0
M  V30 26 S 1.229891 -3.075397 1.445227 0
M  V30 27 H 3.127384 -5.618450 1.570398 0
M  V30 28 H 3.009496 -6.439298 -0.004216 0
M  V30 29 H 1.609306 -5.385401 0.565689 0
M  V30 30 H 4.379093 -4.238636 0.076609 0
M  V30 31 H 3.113163 -4.507883 -1.260023 0
M  V30 32 H 0.237364 0.512993 -0.901928 0
M  V30 33 H 0.490159 2.762986 -1.772830 0
M  V30 34 H 2.537524 4.003804 -1.495393 0
M  V30 35 H 4.616011 3.869558 0.597387 0
M  V30 36 H 5.103451 3.668878 -1.169819 0
M  V30 37 H 5.598365 2.486379 0.072251 0
M  V30 38 H 4.215823 0.615771 0.633380 0
M  V30 39 H 1.718001 0.792251 2.968705 0
M  V30 40 H 0.038271 2.339233 4.004689 0
M  V30 41 H -4.072336 1.143818 2.734698 0
M  V30 42 H -5.369445 -0.322986 1.534214 0
M  V30 43 H -3.016284 -0.120407 -0.382607 0
M  V30 44 H -4.810753 0.211818 -0.567452 0
M  V30 45 H -5.478551 -1.945017 -0.566372 0
M  V30 46 H -3.913792 -2.066433 -1.541797 0
M  V30 47 H -2.822220 -3.079673 0.418053 0
M  V30 48 H -4.452870 -3.732903 0.577116 0
M  V30 49 H -4.985464 -2.392615 2.306540 0
M  V30 50 H -3.269940 -2.094001 2.555169 0
M  V30 51 H -1.559459 -1.164397 1.158723 0
M  V30 END ATOM
M  V30 BEGIN BOND
M  V30 1 1 1 2
M  V30 2 1 2 3
M  V30 3 2 3 4
M  V30 4 1 4 5
M  V30 5 1 5 6
M  V30 6 2 6 7
M  V30 7 1 7 8
M  V30 8 2 8 9
M  V30 9 1 9 10
M  V30 10 1 10 11
M  V30 11 2 10 12
M  V30 12 2 5 13
M  V30 13 1 13 14
M  V30 14 2 14 15
M  V30 15 1 15 16
M  V30 16 2 16 17
M  V30 17 1 17 18
M  V30 18 1 18 19
M  V30 19 1 19 20
M  V30 20 1 20 21
M  V30 21 1 21 22
M  V30 22 1 22 23
M  V30 23 1 23 24
M  V30 24 2 18 25
M  V30 25 1 13 26
M  V30 26 1 26 3
M  V30 27 1 12 6
M  V30 28 1 25 14
M  V30 29 1 24 20
M  V30 30 1 1 27
M  V30 31 1 1 28
M  V30 32 1 1 29
M  V30 33 1 2 30
M  V30 34 1 2 31
M  V30 35 1 7 32
M  V30 36 1 8 33
M  V30 37 1 9 34
M  V30 38 1 11 35
M  V30 39 1 11 36
M  V30 40 1 11 37
M  V30 41 1 12 38
M  V30 42 1 15 39
M  V30 43 1 16 40
M  V30 44 1 19 41
M  V30 45 1 20 42
M  V30 46 1 21 43
M  V30 47 1 21 44
M  V30 48 1 22 45
M  V30 49 1 22 46
M  V30 50 1 23 47
M  V30 51 1 23 48
M  V30 52 1 24 49
M  V30 53 1 24 50
M  V30 54 1 25 51
M  V30 END BOND
M  V30 END CTAB
M  END
>  <Dataset>  (730) 
ChEMBL_Kinases

>  <Ligand_Instance>  (730) 
nan

>  <PDB_ID>  (730) 
nan

>  <Standardized_SMILES>  (730) 
CCc1nc(-c2cccc(C)c2)c(-c2ccnc(NC3CCCC3)c2)s1

>  <Name>  (730) 
nan

>  <Pocket>  (730) 
nan

>  <ATP_Site>  (730) 
nan

>  <Peripheral>  (730) 
nan

>  <Num_H_Atoms_ProtBoundConf>  (730) 
nan

>  <Num_Resolved_Atoms>  (730) 
nan

>  <Num_Not_Resolved_Atoms>  (730) 
nan

$$$$
CHEMBL197980
     RDKit          3D

  0  0  0  0  0  0  0  0  0  0999 V3000
M  V30 BEGIN CTAB
M  V30 COUNTS 61 64 0 0 0
M  V30 BEGIN ATOM
M  V30 1 C 2.509370 1.389564 6.301911 0
M  V30 2 C 2.986932 -0.049382 6.308607 0
M  V30 3 O 2.064712 -0.925548 5.803608 0
M  V30 4 C 1.698457 -0.656193 4.462547 0
M  V30 5 C 2.914951 -0.740633 3.601376 0
M  V30 6 O 3.386631 -2.089871 3.878616 0
M  V30 7 C 2.698690 -0.640395 2.150179 0
M  V30 8 N 2.316630 0.589044 1.531717 0
M  V30 9 C 2.343168 0.274739 0.086275 0
M  V30 10 C 1.820027 1.371995 -0.753419 0
M  V30 11 C 0.333252 1.550176 -0.444608 0
M  V30 12 C -0.487542 0.397019 -0.883483 0
M  V30 13 C -1.132356 0.524834 -2.122102 0
M  V30 14 C -1.876280 -0.629600 -2.403567 0
M  V30 15 C -2.686919 -0.903623 -3.581586 0
M  V30 16 C -1.915045 -1.010039 -4.741659 0
M  V30 17 C -2.505470 -1.267068 -5.978378 0
M  V30 18 N -3.833795 -1.412973 -6.043568 0
M  V30 19 C -4.595785 -1.314164 -4.937605 0
M  V30 20 C -4.042877 -1.061315 -3.707527 0
M  V30 21 C -1.666174 -1.448287 -1.314332 0
M  V30 22 C -2.203713 -2.780273 -1.067502 0
M  V30 23 C -3.548714 -3.015480 -0.801076 0
M  V30 24 C -4.073840 -4.279107 -0.573418 0
M  V30 25 C -3.243090 -5.377507 -0.606480 0
M  V30 26 F -3.779801 -6.596016 -0.380632 0
M  V30 27 C -1.911794 -5.153838 -0.868753 0
M  V30 28 C -1.399063 -3.917234 -1.091254 0
M  V30 29 N -0.853067 -0.815277 -0.452521 0
M  V30 30 C 0.209703 1.846328 1.003839 0
M  V30 31 C 1.039649 1.030806 1.922548 0
M  V30 32 H 2.740980 1.927186 7.245990 0
M  V30 33 H 1.418913 1.486323 6.145098 0
M  V30 34 H 3.007065 1.978704 5.496958 0
M  V30 35 H 3.081342 -0.307767 7.407778 0
M  V30 36 H 4.019491 -0.168786 5.926379 0
M  V30 37 H 1.008297 -1.477246 4.178015 0
M  V30 38 H 1.128167 0.270774 4.444683 0
M  V30 39 H 3.716273 -0.093527 3.933217 0
M  V30 40 H 3.684715 -2.508623 3.042344 0
M  V30 41 H 1.977603 -1.474612 1.803188 0
M  V30 42 H 3.666363 -1.031946 1.659572 0
M  V30 43 H 3.383016 -0.026213 -0.197672 0
M  V30 44 H 1.747980 -0.648297 -0.027318 0
M  V30 45 H 2.279783 2.353412 -0.493435 0
M  V30 46 H 1.951061 1.132012 -1.805468 0
M  V30 47 H 0.065763 2.468250 -1.048933 0
M  V30 48 H -1.155454 1.330461 -2.873703 0
M  V30 49 H -0.832164 -0.903036 -4.768262 0
M  V30 50 H -1.902805 -1.350322 -6.885749 0
M  V30 51 H -5.678118 -1.424343 -4.937398 0
M  V30 52 H -4.569098 -0.963332 -2.770855 0
M  V30 53 H -4.242473 -2.189541 -0.759845 0
M  V30 54 H -5.131655 -4.407128 -0.370516 0
M  V30 55 H -1.280811 -6.021856 -0.890506 0
M  V30 56 H -0.322590 -3.800311 -1.298397 0
M  V30 57 H -0.501572 -1.148840 0.466298 0
M  V30 58 H 0.372520 2.943729 1.173100 0
M  V30 59 H -0.863632 1.644128 1.280767 0
M  V30 60 H 1.185049 1.731172 2.835145 0
M  V30 61 H 0.451333 0.128278 2.227202 0
M  V30 END ATOM
M  V30 BEGIN BOND
M  V30 1 1 1 2
M  V30 2 1 2 3
M  V30 3 1 3 4
M  V30 4 1 4 5
M  V30 5 1 5 6
M  V30 6 1 5 7
M  V30 7 1 7 8
M  V30 8 1 8 9
M  V30 9 1 9 10
M  V30 10 1 10 11
M  V30 11 1 11 12
M  V30 12 2 12 13
M  V30 13 1 13 14
M  V30 14 1 14 15
M  V30 15 2 15 16
M  V30 16 1 16 17
M  V30 17 2 17 18
M  V30 18 1 18 19
M  V30 19 2 19 20
M  V30 20 2 14 21
M  V30 21 1 21 22
M  V30 22 2 22 23
M  V30 23 1 23 24
M  V30 24 2 24 25
M  V30 25 1 25 26
M  V30 26 1 25 27
M  V30 27 2 27 28
M  V30 28 1 21 29
M  V30 29 1 11 30
M  V30 30 1 30 31
M  V30 31 1 31 8
M  V30 32 1 29 12
M  V30 33 1 20 15
M  V30 34 1 28 22
M  V30 35 1 1 32
M  V30 36 1 1 33
M  V30 37 1 1 34
M  V30 38 1 2 35
M  V30 39 1 2 36
M  V30 40 1 4 37
M  V30 41 1 4 38
M  V30 42 1 5 39
M  V30 43 1 6 40
M  V30 44 1 7 41
M  V30 45 1 7 42
M  V30 46 1 9 43
M  V30 47 1 9 44
M  V30 48 1 10 45
M  V30 49 1 10 46
M  V30 50 1 11 47
M  V30 51 1 13 48
M  V30 52 1 16 49
M  V30 53 1 17 50
M  V30 54 1 19 51
M  V30 55 1 20 52
M  V30 56 1 23 53
M  V30 57 1 24 54
M  V30 58 1 27 55
M  V30 59 1 28 56
M  V30 60 1 29 57
M  V30 61 1 30 58
M  V30 62 1 30 59
M  V30 63 1 31 60
M  V30 64 1 31 61
M  V30 END BOND
M  V30 END CTAB
M  END
>  <Dataset>  (731) 
ChEMBL_Kinases

>  <Ligand_Instance>  (731) 
nan

>  <PDB_ID>  (731) 
nan

>  <Standardized_SMILES>  (731) 
CCOCC(O)CN1CCC(c2cc(-c3ccncc3)c(-c3ccc(F)cc3)[nH]2)CC1

>  <Name>  (731) 
nan

>  <Pocket>  (731) 
nan

>  <ATP_Site>  (731) 
nan

>  <Peripheral>  (731) 
nan

>  <Num_H_Atoms_ProtBoundConf>  (731) 
nan

>  <Num_Resolved_Atoms>  (731) 
nan

>  <Num_Not_Resolved_Atoms>  (731) 
nan

$$$$
CHEMBL197983
     RDKit          3D

  0  0  0  0  0  0  0  0  0  0999 V3000
M  V30 BEGIN CTAB
M  V30 COUNTS 38 40 0 0 0
M  V30 BEGIN ATOM
M  V30 1 C -0.627760 -4.143878 4.225694 0
M  V30 2 C -1.450304 -2.924613 4.506512 0
M  V30 3 C -0.996230 -1.916638 3.473267 0
M  V30 4 N -0.145785 -1.985880 2.559440 0
M  V30 5 C 0.077485 -0.949859 1.769457 0
M  V30 6 C 1.113584 -1.183480 0.734424 0
M  V30 7 C 2.433405 -1.489890 0.886215 0
M  V30 8 C 3.191363 -1.657284 -0.239678 0
M  V30 9 C 2.663996 -1.526304 -1.505790 0
M  V30 10 C 1.332236 -1.217008 -1.672892 0
M  V30 11 C 0.773781 -1.077692 -3.056516 0
M  V30 12 C 0.549818 -1.044023 -0.536877 0
M  V30 13 C -0.706205 0.264561 2.011323 0
M  V30 14 C -0.402572 1.406300 1.076398 0
M  V30 15 C 0.875630 1.854821 1.166338 0
M  V30 16 C 1.191947 2.902662 0.324071 0
M  V30 17 N 0.254491 3.400024 -0.504356 0
M  V30 18 C -1.007755 2.939663 -0.576959 0
M  V30 19 N -1.971372 3.493111 -1.467527 0
M  V30 20 C -1.357039 1.893741 0.250432 0
M  V30 21 S -1.700661 -0.271076 3.401729 0
M  V30 22 H 0.400694 -3.998026 4.572358 0
M  V30 23 H -0.556824 -4.253564 3.105470 0
M  V30 24 H -1.130144 -5.054977 4.608250 0
M  V30 25 H -1.310630 -2.524175 5.520332 0
M  V30 26 H -2.523156 -3.186289 4.339515 0
M  V30 27 H 2.731254 -1.566043 1.914769 0
M  V30 28 H 4.246838 -1.902656 -0.061628 0
M  V30 29 H 3.279661 -1.662713 -2.377192 0
M  V30 30 H 1.470122 -1.573526 -3.759786 0
M  V30 31 H 0.730262 -0.008486 -3.342324 0
M  V30 32 H -0.227405 -1.546406 -3.124637 0
M  V30 33 H -0.487848 -0.802318 -0.771834 0
M  V30 34 H 1.679780 1.514553 1.797222 0
M  V30 35 H 2.186120 3.338572 0.313768 0
M  V30 36 H -2.381699 2.753115 -2.093701 0
M  V30 37 H -2.359735 4.433371 -1.644714 0
M  V30 38 H -2.364622 1.451175 0.261607 0
M  V30 END ATOM
M  V30 BEGIN BOND
M  V30 1 1 1 2
M  V30 2 1 2 3
M  V30 3 2 3 4
M  V30 4 1 4 5
M  V30 5 1 5 6
M  V30 6 2 6 7
M  V30 7 1 7 8
M  V30 8 2 8 9
M  V30 9 1 9 10
M  V30 10 1 10 11
M  V30 11 2 10 12
M  V30 12 2 5 13
M  V30 13 1 13 14
M  V30 14 2 14 15
M  V30 15 1 15 16
M  V30 16 2 16 17
M  V30 17 1 17 18
M  V30 18 1 18 19
M  V30 19 2 18 20
M  V30 20 1 13 21
M  V30 21 1 21 3
M  V30 22 1 12 6
M  V30 23 1 20 14
M  V30 24 1 1 22
M  V30 25 1 1 23
M  V30 26 1 1 24
M  V30 27 1 2 25
M  V30 28 1 2 26
M  V30 29 1 7 27
M  V30 30 1 8 28
M  V30 31 1 9 29
M  V30 32 1 11 30
M  V30 33 1 11 31
M  V30 34 1 11 32
M  V30 35 1 12 33
M  V30 36 1 15 34
M  V30 37 1 16 35
M  V30 38 1 19 36
M  V30 39 1 19 37
M  V30 40 1 20 38
M  V30 END BOND
M  V30 END CTAB
M  END
>  <Dataset>  (732) 
ChEMBL_Kinases

>  <Ligand_Instance>  (732) 
nan

>  <PDB_ID>  (732) 
nan

>  <Standardized_SMILES>  (732) 
CCc1nc(-c2cccc(C)c2)c(-c2ccnc(N)c2)s1

>  <Name>  (732) 
nan

>  <Pocket>  (732) 
nan

>  <ATP_Site>  (732) 
nan

>  <Peripheral>  (732) 
nan

>  <Num_H_Atoms_ProtBoundConf>  (732) 
nan

>  <Num_Resolved_Atoms>  (732) 
nan

>  <Num_Not_Resolved_Atoms>  (732) 
nan

$$$$
CHEMBL1980140
     RDKit          3D

  0  0  0  0  0  0  0  0  0  0999 V3000
M  V30 BEGIN CTAB
M  V30 COUNTS 45 49 0 0 0
M  V30 BEGIN ATOM
M  V30 1 C -2.745001 0.368393 1.541228 0
M  V30 2 C -1.324053 -0.046412 1.735552 0 CFG=2
M  V30 3 C -0.363940 1.154295 1.641215 0 CFG=2
M  V30 4 C -0.661695 1.817316 0.313493 0
M  V30 5 C 0.912908 0.344160 1.599376 0 CFG=2
M  V30 6 C 2.082784 1.058774 1.096624 0
M  V30 7 C 3.155929 0.194804 0.838153 0
M  V30 8 C 4.359606 0.716945 0.350336 0
M  V30 9 C 4.555583 2.056619 0.104395 0
M  V30 10 C 3.476138 2.882079 0.370189 0
M  V30 11 C 2.276898 2.402388 0.850854 0
M  V30 12 O 3.863577 4.162557 0.065518 0
M  V30 13 C 5.074186 4.082546 -0.677813 0
M  V30 14 O 5.616138 2.812294 -0.364673 0
M  V30 15 O 0.633273 -0.812493 0.912486 0
M  V30 16 C -0.733082 -0.885116 0.660535 0 CFG=1
M  V30 17 C -1.124185 -2.309358 0.725725 0
M  V30 18 C -0.241941 -3.155172 0.046478 0
M  V30 19 C -0.444987 -4.530030 -0.003006 0
M  V30 20 C -1.530007 -5.094446 0.621945 0
M  V30 21 C -2.393372 -4.236589 1.290614 0
M  V30 22 C -2.215399 -2.876459 1.354315 0
M  V30 23 O -3.423207 -5.013151 1.852220 0
M  V30 24 C -3.468992 -6.229411 1.093221 0
M  V30 25 O -2.078384 -6.376250 0.807117 0
M  V30 26 H -3.260669 -0.102843 0.705001 0
M  V30 27 H -3.298614 0.104140 2.483815 0
M  V30 28 H -2.788505 1.484253 1.511173 0
M  V30 29 H -1.127230 -0.549312 2.696380 0
M  V30 30 H -0.463398 1.807825 2.506491 0
M  V30 31 H 0.129807 1.663116 -0.447662 0
M  V30 32 H -0.904228 2.886266 0.501045 0
M  V30 33 H -1.587033 1.403045 -0.180334 0
M  V30 34 H 1.109252 0.052716 2.671794 0
M  V30 35 H 3.151215 -0.890250 0.983799 0
M  V30 36 H 5.201461 0.049966 0.146135 0
M  V30 37 H 1.420082 2.996516 1.070882 0
M  V30 38 H 4.920030 4.141252 -1.765517 0
M  V30 39 H 5.764316 4.844780 -0.269557 0
M  V30 40 H -0.859483 -0.491452 -0.368796 0
M  V30 41 H 0.655598 -2.833592 -0.489544 0
M  V30 42 H 0.221073 -5.204837 -0.520567 0
M  V30 43 H -2.843775 -2.176662 1.850869 0
M  V30 44 H -3.884750 -7.065784 1.653384 0
M  V30 45 H -3.985094 -5.980433 0.155256 0
M  V30 END ATOM
M  V30 BEGIN BOND
M  V30 1 1 1 2
M  V30 2 1 2 3
M  V30 3 1 3 4
M  V30 4 1 3 5
M  V30 5 1 5 6
M  V30 6 2 6 7
M  V30 7 1 7 8
M  V30 8 2 8 9
M  V30 9 1 9 10
M  V30 10 2 10 11
M  V30 11 1 10 12
M  V30 12 1 12 13
M  V30 13 1 13 14
M  V30 14 1 5 15
M  V30 15 1 15 16
M  V30 16 1 16 17
M  V30 17 2 17 18
M  V30 18 1 18 19
M  V30 19 2 19 20
M  V30 20 1 20 21
M  V30 21 2 21 22
M  V30 22 1 21 23
M  V30 23 1 23 24
M  V30 24 1 24 25
M  V30 25 1 16 2
M  V30 26 1 22 17
M  V30 27 1 11 6
M  V30 28 1 25 20
M  V30 29 1 14 9
M  V30 30 1 1 26
M  V30 31 1 1 27
M  V30 32 1 1 28
M  V30 33 1 2 29 CFG=1
M  V30 34 1 3 30 CFG=1
M  V30 35 1 4 31
M  V30 36 1 4 32
M  V30 37 1 4 33
M  V30 38 1 5 34 CFG=1
M  V30 39 1 7 35
M  V30 40 1 8 36
M  V30 41 1 11 37
M  V30 42 1 13 38
M  V30 43 1 13 39
M  V30 44 1 16 40 CFG=3
M  V30 45 1 18 41
M  V30 46 1 19 42
M  V30 47 1 22 43
M  V30 48 1 24 44
M  V30 49 1 24 45
M  V30 END BOND
M  V30 END CTAB
M  END
>  <Dataset>  (733) 
ChEMBL_Kinases

>  <Ligand_Instance>  (733) 
nan

>  <PDB_ID>  (733) 
nan

>  <Standardized_SMILES>  (733) 
C[C@@H]1[C@H](C)[C@H](c2ccc3c(c2)OCO3)O[C@H]1c1ccc2c(c1)OCO2

>  <Name>  (733) 
nan

>  <Pocket>  (733) 
nan

>  <ATP_Site>  (733) 
nan

>  <Peripheral>  (733) 
nan

>  <Num_H_Atoms_ProtBoundConf>  (733) 
nan

>  <Num_Resolved_Atoms>  (733) 
nan

>  <Num_Not_Resolved_Atoms>  (733) 
nan

$$$$
CHEMBL197772
     RDKit          3D

  0  0  0  0  0  0  0  0  0  0999 V3000
M  V30 BEGIN CTAB
M  V30 COUNTS 49 51 0 0 0
M  V30 BEGIN ATOM
M  V30 1 C 1.276931 -5.604633 4.994589 0
M  V30 2 C 1.103111 -4.799003 3.752764 0
M  V30 3 C 2.387195 -4.635435 2.965198 0
M  V30 4 C 2.024314 -3.817116 1.778092 0
M  V30 5 O 0.780054 -3.567709 1.891144 0
M  V30 6 N 2.804739 -3.362945 0.707734 0
M  V30 7 C 1.952082 -2.605625 -0.173919 0
M  V30 8 C 1.852300 -1.230715 0.073576 0
M  V30 9 C 1.027656 -0.567859 -0.797805 0
M  V30 10 C 0.857203 0.904826 -0.619420 0
M  V30 11 S 2.112902 2.188590 -0.717240 0
M  V30 12 C 0.824205 3.538019 -0.351414 0
M  V30 13 C 1.297433 5.017249 -0.289395 0
M  V30 14 C 1.698745 5.356690 1.121279 0
M  V30 15 N -0.112082 2.918455 -0.244822 0
M  V30 16 C -0.268815 1.617757 -0.346086 0
M  V30 17 C -1.555123 0.938270 -0.181971 0
M  V30 18 C -1.566870 0.057158 0.881462 0
M  V30 19 C -2.709428 -0.678723 1.189261 0
M  V30 20 C -3.812969 -0.481187 0.384102 0
M  V30 21 C -3.835190 0.399005 -0.695742 0
M  V30 22 C -5.033936 0.595865 -1.545725 0
M  V30 23 C -2.681813 1.104613 -0.961187 0
M  V30 24 C 0.356457 -1.161344 -1.815643 0
M  V30 25 C 0.492258 -2.535549 -2.017070 0
M  V30 26 N 1.299912 -3.241044 -1.179108 0
M  V30 27 H 0.889383 -6.635899 4.758450 0
M  V30 28 H 2.318174 -5.730929 5.314395 0
M  V30 29 H 0.615392 -5.245281 5.819759 0
M  V30 30 H 0.367014 -5.251454 3.050710 0
M  V30 31 H 0.760594 -3.785456 4.030689 0
M  V30 32 H 2.801872 -5.605010 2.622455 0
M  V30 33 H 3.178147 -4.152183 3.576130 0
M  V30 34 H 3.808079 -3.669623 0.788716 0
M  V30 35 H 2.390275 -0.774614 0.884125 0
M  V30 36 H 2.134967 5.125720 -1.008141 0
M  V30 37 H 0.425232 5.546585 -0.670381 0
M  V30 38 H 0.839801 5.762566 1.703159 0
M  V30 39 H 1.982583 4.385619 1.601951 0
M  V30 40 H 2.605118 5.998445 1.179137 0
M  V30 41 H -0.725639 -0.132293 1.542653 0
M  V30 42 H -2.743227 -1.373183 2.014943 0
M  V30 43 H -4.706406 -1.048408 0.614755 0
M  V30 44 H -5.738791 1.337872 -1.068059 0
M  V30 45 H -4.716839 1.064939 -2.497010 0
M  V30 46 H -5.573219 -0.357538 -1.717062 0
M  V30 47 H -2.583844 1.820397 -1.780506 0
M  V30 48 H -0.299740 -0.648264 -2.513084 0
M  V30 49 H -0.007296 -3.087067 -2.804842 0
M  V30 END ATOM
M  V30 BEGIN BOND
M  V30 1 1 1 2
M  V30 2 1 2 3
M  V30 3 1 3 4
M  V30 4 2 4 5
M  V30 5 1 4 6
M  V30 6 1 6 7
M  V30 7 2 7 8
M  V30 8 1 8 9
M  V30 9 1 9 10
M  V30 10 1 10 11
M  V30 11 1 11 12
M  V30 12 1 12 13
M  V30 13 1 13 14
M  V30 14 2 12 15
M  V30 15 1 15 16
M  V30 16 1 16 17
M  V30 17 2 17 18
M  V30 18 1 18 19
M  V30 19 2 19 20
M  V30 20 1 20 21
M  V30 21 1 21 22
M  V30 22 2 21 23
M  V30 23 2 9 24
M  V30 24 1 24 25
M  V30 25 2 25 26
M  V30 26 1 26 7
M  V30 27 2 16 10
M  V30 28 1 23 17
M  V30 29 1 1 27
M  V30 30 1 1 28
M  V30 31 1 1 29
M  V30 32 1 2 30
M  V30 33 1 2 31
M  V30 34 1 3 32
M  V30 35 1 3 33
M  V30 36 1 6 34
M  V30 37 1 8 35
M  V30 38 1 13 36
M  V30 39 1 13 37
M  V30 40 1 14 38
M  V30 41 1 14 39
M  V30 42 1 14 40
M  V30 43 1 18 41
M  V30 44 1 19 42
M  V30 45 1 20 43
M  V30 46 1 22 44
M  V30 47 1 22 45
M  V30 48 1 22 46
M  V30 49 1 23 47
M  V30 50 1 24 48
M  V30 51 1 25 49
M  V30 END BOND
M  V30 END CTAB
M  END
>  <Dataset>  (734) 
ChEMBL_Kinases

>  <Ligand_Instance>  (734) 
nan

>  <PDB_ID>  (734) 
nan

>  <Standardized_SMILES>  (734) 
CCCC(=O)Nc1cc(-c2sc(CC)nc2-c2cccc(C)c2)ccn1

>  <Name>  (734) 
nan

>  <Pocket>  (734) 
nan

>  <ATP_Site>  (734) 
nan

>  <Peripheral>  (734) 
nan

>  <Num_H_Atoms_ProtBoundConf>  (734) 
nan

>  <Num_Resolved_Atoms>  (734) 
nan

>  <Num_Not_Resolved_Atoms>  (734) 
nan

$$$$
CHEMBL1992679
     RDKit          3D

  0  0  0  0  0  0  0  0  0  0999 V3000
M  V30 BEGIN CTAB
M  V30 COUNTS 41 44 0 0 0
M  V30 BEGIN ATOM
M  V30 1 O 1.186819 -1.155558 3.200649 0
M  V30 2 C 0.321460 -1.582088 2.393667 0
M  V30 3 N 0.646718 -2.186860 1.153283 0
M  V30 4 C 1.923758 -2.434299 0.580146 0
M  V30 5 C 2.411951 -3.692787 0.951570 0
M  V30 6 C 3.637543 -4.141197 0.507703 0
M  V30 7 C 4.368240 -3.309666 -0.314808 0
M  V30 8 C 3.853916 -2.091354 -0.651486 0
M  V30 9 C 2.642976 -1.590765 -0.242105 0
M  V30 10 C 2.041188 -0.316901 -0.557463 0
M  V30 11 N 0.834229 -0.039609 -0.035118 0
M  V30 12 C 0.210634 1.133909 -0.287545 0
M  V30 13 C -1.025767 1.425444 0.244064 0
M  V30 14 C -1.682622 2.615016 0.001987 0
M  V30 15 C -1.090735 3.565810 -0.805209 0
M  V30 16 C 0.147782 3.308714 -1.355412 0
M  V30 17 C 0.767432 2.108338 -1.087410 0
M  V30 18 N 1.974526 1.851625 -1.620288 0
M  V30 19 C 2.563626 0.676363 -1.348006 0
M  V30 20 O 3.677344 0.511194 -1.876003 0
M  V30 21 C -1.070482 -1.425391 2.797077 0
M  V30 22 C -1.341753 -0.814218 4.007387 0
M  V30 23 C -2.647440 -0.624586 4.474276 0
M  V30 24 C -3.719163 -1.053717 3.718867 0
M  V30 25 C -3.459784 -1.664532 2.510146 0
M  V30 26 C -2.163885 -1.838060 2.075345 0
M  V30 27 H -0.067567 -2.539717 0.481436 0
M  V30 28 H 1.896198 -4.390315 1.588279 0
M  V30 29 H 4.037640 -5.107084 0.778850 0
M  V30 30 H 5.332043 -3.642512 -0.673931 0
M  V30 31 H 4.458192 -1.497451 -1.284071 0
M  V30 32 H -1.537449 0.720386 0.882912 0
M  V30 33 H -2.636409 2.847438 0.408260 0
M  V30 34 H -1.579385 4.509245 -1.014952 0
M  V30 35 H 0.648856 4.034898 -1.998847 0
M  V30 36 H 2.416168 2.569615 -2.226892 0
M  V30 37 H -0.562055 -0.439395 4.678897 0
M  V30 38 H -2.824312 -0.139207 5.432594 0
M  V30 39 H -4.748249 -0.934052 4.028839 0
M  V30 40 H -4.302853 -2.006714 1.906931 0
M  V30 41 H -1.986492 -2.316012 1.131461 0
M  V30 END ATOM
M  V30 BEGIN BOND
M  V30 1 2 1 2
M  V30 2 1 2 3
M  V30 3 1 3 4
M  V30 4 2 4 5
M  V30 5 1 5 6
M  V30 6 2 6 7
M  V30 7 1 7 8
M  V30 8 2 8 9
M  V30 9 1 9 10
M  V30 10 2 10 11
M  V30 11 1 11 12
M  V30 12 2 12 13
M  V30 13 1 13 14
M  V30 14 2 14 15
M  V30 15 1 15 16
M  V30 16 2 16 17
M  V30 17 1 17 18
M  V30 18 1 18 19
M  V30 19 2 19 20
M  V30 20 1 2 21
M  V30 21 2 21 22
M  V30 22 1 22 23
M  V30 23 2 23 24
M  V30 24 1 24 25
M  V30 25 2 25 26
M  V30 26 1 9 4
M  V30 27 1 19 10
M  V30 28 1 26 21
M  V30 29 1 17 12
M  V30 30 1 3 27
M  V30 31 1 5 28
M  V30 32 1 6 29
M  V30 33 1 7 30
M  V30 34 1 8 31
M  V30 35 1 13 32
M  V30 36 1 14 33
M  V30 37 1 15 34
M  V30 38 1 16 35
M  V30 39 1 18 36
M  V30 40 1 22 37
M  V30 41 1 23 38
M  V30 42 1 24 39
M  V30 43 1 25 40
M  V30 44 1 26 41
M  V30 END BOND
M  V30 END CTAB
M  END
>  <Dataset>  (735) 
ChEMBL_Kinases

>  <Ligand_Instance>  (735) 
nan

>  <PDB_ID>  (735) 
nan

>  <Standardized_SMILES>  (735) 
O=C(Nc1ccccc1-c1nc2ccccc2[nH]c1=O)c1ccccc1

>  <Name>  (735) 
nan

>  <Pocket>  (735) 
nan

>  <ATP_Site>  (735) 
nan

>  <Peripheral>  (735) 
nan

>  <Num_H_Atoms_ProtBoundConf>  (735) 
nan

>  <Num_Resolved_Atoms>  (735) 
nan

>  <Num_Not_Resolved_Atoms>  (735) 
nan

$$$$
CHEMBL199247
     RDKit          3D

  0  0  0  0  0  0  0  0  0  0999 V3000
M  V30 BEGIN CTAB
M  V30 COUNTS 51 54 0 0 0
M  V30 BEGIN ATOM
M  V30 1 O -0.146647 -4.588977 2.308153 0
M  V30 2 C -0.779470 -3.595632 1.875312 0
M  V30 3 N -0.504845 -2.205926 1.983379 0
M  V30 4 C 0.700944 -1.865057 2.708407 0
M  V30 5 C 1.931036 -2.450351 2.065463 0
M  V30 6 C 2.173798 -1.987137 0.661862 0
M  V30 7 N 2.370824 -0.564001 0.555776 0
M  V30 8 C 3.634737 -0.073315 0.688640 0
M  V30 9 N 3.612047 1.287148 0.562044 0
M  V30 10 C 2.331249 1.671944 0.347143 0
M  V30 11 C 1.955854 3.065604 0.165296 0
M  V30 12 C 1.419883 3.487107 -1.030940 0
M  V30 13 C 1.068641 4.814212 -1.207066 0
M  V30 14 C 1.255116 5.737531 -0.171775 0
M  V30 15 F 0.927709 7.045364 -0.296948 0
M  V30 16 C 1.796619 5.293661 1.026424 0
M  V30 17 C 2.156846 3.960880 1.223628 0
M  V30 18 C 1.598789 0.509046 0.350159 0
M  V30 19 C 0.165879 0.435947 0.152260 0
M  V30 20 C -0.669682 1.070428 1.063774 0
M  V30 21 C -2.056749 1.096538 1.014610 0
M  V30 22 N -2.637046 0.448259 -0.008487 0
M  V30 23 C -1.892284 -0.182317 -0.920002 0
M  V30 24 C -0.514164 -0.208977 -0.872573 0
M  V30 25 C -1.851538 -4.337739 1.247714 0
M  V30 26 C -3.053414 -4.703408 1.812149 0
M  V30 27 C -4.008994 -5.421470 1.091613 0
M  V30 28 C -3.775990 -5.795811 -0.236055 0
M  V30 29 C -2.598743 -5.457980 -0.844384 0
M  V30 30 C -1.691170 -4.744089 -0.072998 0
M  V30 31 H -1.297780 -1.728029 1.475192 0
M  V30 32 H 0.596771 -2.209050 3.756780 0
M  V30 33 H 0.793724 -0.765960 2.749688 0
M  V30 34 H 1.925078 -3.556486 2.132728 0
M  V30 35 H 2.844918 -2.153736 2.665299 0
M  V30 36 H 1.287714 -2.201044 -0.005981 0
M  V30 37 H 3.030271 -2.558310 0.244061 0
M  V30 38 H 4.597648 -0.534539 0.865119 0
M  V30 39 H 1.264403 2.778786 -1.860312 0
M  V30 40 H 0.642022 5.197862 -2.131429 0
M  V30 41 H 1.934905 6.028167 1.822816 0
M  V30 42 H 2.579008 3.639784 2.171376 0
M  V30 43 H -0.223992 1.593220 1.888452 0
M  V30 44 H -2.620716 1.618641 1.772870 0
M  V30 45 H -2.384773 -0.696698 -1.734805 0
M  V30 46 H 0.133129 -0.714995 -1.601924 0
M  V30 47 H -3.203810 -4.397796 2.845469 0
M  V30 48 H -4.920095 -5.664743 1.613404 0
M  V30 49 H -4.534257 -6.347596 -0.758169 0
M  V30 50 H -2.357146 -5.714255 -1.858528 0
M  V30 51 H -0.758555 -4.481412 -0.570022 0
M  V30 END ATOM
M  V30 BEGIN BOND
M  V30 1 2 1 2
M  V30 2 1 2 3
M  V30 3 1 3 4
M  V30 4 1 4 5
M  V30 5 1 5 6
M  V30 6 1 6 7
M  V30 7 1 7 8
M  V30 8 2 8 9
M  V30 9 1 9 10
M  V30 10 1 10 11
M  V30 11 2 11 12
M  V30 12 1 12 13
M  V30 13 2 13 14
M  V30 14 1 14 15
M  V30 15 1 14 16
M  V30 16 2 16 17
M  V30 17 2 10 18
M  V30 18 1 18 19
M  V30 19 2 19 20
M  V30 20 1 20 21
M  V30 21 2 21 22
M  V30 22 1 22 23
M  V30 23 2 23 24
M  V30 24 1 2 25
M  V30 25 2 25 26
M  V30 26 1 26 27
M  V30 27 2 27 28
M  V30 28 1 28 29
M  V30 29 2 29 30
M  V30 30 1 18 7
M  V30 31 1 24 19
M  V30 32 1 30 25
M  V30 33 1 17 11
M  V30 34 1 3 31
M  V30 35 1 4 32
M  V30 36 1 4 33
M  V30 37 1 5 34
M  V30 38 1 5 35
M  V30 39 1 6 36
M  V30 40 1 6 37
M  V30 41 1 8 38
M  V30 42 1 12 39
M  V30 43 1 13 40
M  V30 44 1 16 41
M  V30 45 1 17 42
M  V30 46 1 20 43
M  V30 47 1 21 44
M  V30 48 1 23 45
M  V30 49 1 24 46
M  V30 50 1 26 47
M  V30 51 1 27 48
M  V30 52 1 28 49
M  V30 53 1 29 50
M  V30 54 1 30 51
M  V30 END BOND
M  V30 END CTAB
M  END
>  <Dataset>  (736) 
ChEMBL_Kinases

>  <Ligand_Instance>  (736) 
nan

>  <PDB_ID>  (736) 
nan

>  <Standardized_SMILES>  (736) 
O=C(NCCCn1cnc(-c2ccc(F)cc2)c1-c1ccncc1)c1ccccc1

>  <Name>  (736) 
nan

>  <Pocket>  (736) 
nan

>  <ATP_Site>  (736) 
nan

>  <Peripheral>  (736) 
nan

>  <Num_H_Atoms_ProtBoundConf>  (736) 
nan

>  <Num_Resolved_Atoms>  (736) 
nan

>  <Num_Not_Resolved_Atoms>  (736) 
nan

$$$$
CHEMBL199237
     RDKit          3D

  0  0  0  0  0  0  0  0  0  0999 V3000
M  V30 BEGIN CTAB
M  V30 COUNTS 39 41 0 0 0
M  V30 BEGIN ATOM
M  V30 1 O -0.167075 -2.239915 3.382794 0
M  V30 2 C -0.667709 -2.059182 2.259184 0
M  V30 3 N -0.967652 -3.254505 1.536652 0
M  V30 4 C -0.746873 -4.611109 1.976633 0
M  V30 5 C 0.684114 -4.997005 1.865214 0
M  V30 6 C 1.664990 -4.878300 2.827527 0
M  V30 7 C 2.960249 -5.271166 2.594948 0
M  V30 8 C 3.355635 -5.811379 1.374705 0
M  V30 9 C 2.349444 -5.914058 0.439749 0
M  V30 10 N 1.099996 -5.529429 0.679396 0
M  V30 11 C -0.924631 -0.723460 1.729800 0
M  V30 12 C -1.468027 -0.403411 0.501169 0
M  V30 13 C -1.660273 0.908215 0.116410 0
M  V30 14 C -1.322392 1.971126 0.932993 0
M  V30 15 O -1.578187 3.228802 0.400914 0
M  V30 16 C -0.660457 3.945660 -0.358712 0
M  V30 17 C -0.740785 3.698732 -1.712977 0
M  V30 18 C 0.102651 4.330669 -2.618255 0
M  V30 19 C 1.066425 5.244286 -2.175610 0
M  V30 20 C 1.105637 5.455754 -0.812772 0
M  V30 21 C 0.274644 4.835517 0.097713 0
M  V30 22 C -0.778129 1.666542 2.164177 0
M  V30 23 C -0.592975 0.350490 2.532555 0
M  V30 24 H -1.397494 -3.092429 0.575827 0
M  V30 25 H -1.134225 -4.779498 3.006950 0
M  V30 26 H -1.326143 -5.290019 1.326115 0
M  V30 27 H 1.359577 -4.467360 3.761827 0
M  V30 28 H 3.702746 -5.162531 3.374851 0
M  V30 29 H 4.361505 -6.119514 1.185472 0
M  V30 30 H 2.586047 -6.328834 -0.540841 0
M  V30 31 H -1.731661 -1.231598 -0.135895 0
M  V30 32 H -2.094365 1.023243 -0.870705 0
M  V30 33 H -1.418581 3.029302 -2.233591 0
M  V30 34 H 0.097678 4.186397 -3.696290 0
M  V30 35 H 1.756176 5.773360 -2.821433 0
M  V30 36 H 1.821204 6.147404 -0.380452 0
M  V30 37 H 0.297574 4.993345 1.157778 0
M  V30 38 H -0.527518 2.524203 2.772778 0
M  V30 39 H -0.154179 0.210852 3.529517 0
M  V30 END ATOM
M  V30 BEGIN BOND
M  V30 1 2 1 2
M  V30 2 1 2 3
M  V30 3 1 3 4
M  V30 4 1 4 5
M  V30 5 2 5 6
M  V30 6 1 6 7
M  V30 7 2 7 8
M  V30 8 1 8 9
M  V30 9 2 9 10
M  V30 10 1 2 11
M  V30 11 2 11 12
M  V30 12 1 12 13
M  V30 13 2 13 14
M  V30 14 1 14 15
M  V30 15 1 15 16
M  V30 16 2 16 17
M  V30 17 1 17 18
M  V30 18 2 18 19
M  V30 19 1 19 20
M  V30 20 2 20 21
M  V30 21 1 14 22
M  V30 22 2 22 23
M  V30 23 1 10 5
M  V30 24 1 23 11
M  V30 25 1 21 16
M  V30 26 1 3 24
M  V30 27 1 4 25
M  V30 28 1 4 26
M  V30 29 1 6 27
M  V30 30 1 7 28
M  V30 31 1 8 29
M  V30 32 1 9 30
M  V30 33 1 12 31
M  V30 34 1 13 32
M  V30 35 1 17 33
M  V30 36 1 18 34
M  V30 37 1 19 35
M  V30 38 1 20 36
M  V30 39 1 21 37
M  V30 40 1 22 38
M  V30 41 1 23 39
M  V30 END BOND
M  V30 END CTAB
M  END
>  <Dataset>  (737) 
ChEMBL_Kinases

>  <Ligand_Instance>  (737) 
nan

>  <PDB_ID>  (737) 
nan

>  <Standardized_SMILES>  (737) 
O=C(NCc1ccccn1)c1ccc(Oc2ccccc2)cc1

>  <Name>  (737) 
nan

>  <Pocket>  (737) 
nan

>  <ATP_Site>  (737) 
nan

>  <Peripheral>  (737) 
nan

>  <Num_H_Atoms_ProtBoundConf>  (737) 
nan

>  <Num_Resolved_Atoms>  (737) 
nan

>  <Num_Not_Resolved_Atoms>  (737) 
nan

$$$$
CHEMBL1992306
     RDKit          3D

  0  0  0  0  0  0  0  0  0  0999 V3000
M  V30 BEGIN CTAB
M  V30 COUNTS 48 50 0 0 0
M  V30 BEGIN ATOM
M  V30 1 C 0.345300 -7.136531 3.845505 0
M  V30 2 N 1.301096 -6.323370 3.083596 0
M  V30 3 C 1.544732 -4.946283 3.393225 0
M  V30 4 O 0.953386 -4.352336 4.337121 0
M  V30 5 C 2.518849 -4.231305 2.567695 0
M  V30 6 C 2.788343 -2.895565 2.829233 0
M  V30 7 C 3.696871 -2.162443 2.087764 0
M  V30 8 O 3.922212 -0.811117 2.407386 0
M  V30 9 C 3.176127 0.203140 1.830981 0
M  V30 10 C 3.414733 0.913072 0.672076 0
M  V30 11 C 2.532549 1.895612 0.271998 0
M  V30 12 C 1.410589 2.172302 1.026678 0
M  V30 13 N 0.483770 3.198393 0.614369 0
M  V30 14 C -0.549679 2.712739 -0.225004 0
M  V30 15 O -0.578607 1.475306 -0.533613 0
M  V30 16 N -1.614010 3.468228 -0.796910 0
M  V30 17 C -2.589363 2.839986 -1.628648 0
M  V30 18 C -2.598199 2.647530 -2.995677 0
M  V30 19 C -3.658769 2.008302 -3.580551 0
M  V30 20 C -4.697535 1.564683 -2.825180 0
M  V30 21 C -4.738386 1.731566 -1.453713 0
M  V30 22 C -5.898317 1.224819 -0.693232 0
M  V30 23 F -6.500904 0.230528 -1.427630 0
M  V30 24 F -6.805806 2.219723 -0.444356 0
M  V30 25 F -5.457978 0.684944 0.511897 0
M  V30 26 C -3.661190 2.381370 -0.855638 0
M  V30 27 C 1.143045 1.477597 2.194539 0
M  V30 28 C 2.037758 0.498212 2.578084 0
M  V30 29 C 4.352167 -2.807982 1.047355 0
M  V30 30 C 4.060272 -4.146965 0.810484 0
M  V30 31 N 3.174448 -4.836951 1.544108 0
M  V30 32 H 0.113554 -6.553848 4.755047 0
M  V30 33 H 0.792452 -8.104505 4.117301 0
M  V30 34 H -0.589686 -7.255094 3.238804 0
M  V30 35 H 1.789813 -6.818069 2.301869 0
M  V30 36 H 2.269792 -2.433618 3.631510 0
M  V30 37 H 4.312359 0.617499 0.164668 0
M  V30 38 H 2.755622 2.428755 -0.641853 0
M  V30 39 H 0.390655 4.219201 0.786754 0
M  V30 40 H -1.616946 4.497146 -0.559239 0
M  V30 41 H -1.715190 3.047867 -3.468522 0
M  V30 42 H -3.607370 1.888314 -4.651182 0
M  V30 43 H -5.530426 1.060204 -3.302586 0
M  V30 44 H -3.773490 2.470089 0.220883 0
M  V30 45 H 0.249509 1.733213 2.749770 0
M  V30 46 H 1.741317 0.008488 3.508430 0
M  V30 47 H 5.067645 -2.243848 0.457741 0
M  V30 48 H 4.586910 -4.626211 -0.008612 0
M  V30 END ATOM
M  V30 BEGIN BOND
M  V30 1 1 1 2
M  V30 2 1 2 3
M  V30 3 2 3 4
M  V30 4 1 3 5
M  V30 5 2 5 6
M  V30 6 1 6 7
M  V30 7 1 7 8
M  V30 8 1 8 9
M  V30 9 2 9 10
M  V30 10 1 10 11
M  V30 11 2 11 12
M  V30 12 1 12 13
M  V30 13 1 13 14
M  V30 14 2 14 15
M  V30 15 1 14 16
M  V30 16 1 16 17
M  V30 17 2 17 18
M  V30 18 1 18 19
M  V30 19 2 19 20
M  V30 20 1 20 21
M  V30 21 1 21 22
M  V30 22 1 22 23
M  V30 23 1 22 24
M  V30 24 1 22 25
M  V30 25 2 21 26
M  V30 26 1 12 27
M  V30 27 2 27 28
M  V30 28 2 7 29
M  V30 29 1 29 30
M  V30 30 2 30 31
M  V30 31 1 31 5
M  V30 32 1 28 9
M  V30 33 1 26 17
M  V30 34 1 1 32
M  V30 35 1 1 33
M  V30 36 1 1 34
M  V30 37 1 2 35
M  V30 38 1 6 36
M  V30 39 1 10 37
M  V30 40 1 11 38
M  V30 41 1 13 39
M  V30 42 1 16 40
M  V30 43 1 18 41
M  V30 44 1 19 42
M  V30 45 1 20 43
M  V30 46 1 26 44
M  V30 47 1 27 45
M  V30 48 1 28 46
M  V30 49 1 29 47
M  V30 50 1 30 48
M  V30 END BOND
M  V30 END CTAB
M  END
>  <Dataset>  (738) 
ChEMBL_Kinases

>  <Ligand_Instance>  (738) 
nan

>  <PDB_ID>  (738) 
nan

>  <Standardized_SMILES>  (738) 
CNC(=O)c1cc(Oc2ccc(NC(=O)Nc3cccc(C(F)(F)F)c3)cc2)ccn1

>  <Name>  (738) 
nan

>  <Pocket>  (738) 
nan

>  <ATP_Site>  (738) 
nan

>  <Peripheral>  (738) 
nan

>  <Num_H_Atoms_ProtBoundConf>  (738) 
nan

>  <Num_Resolved_Atoms>  (738) 
nan

>  <Num_Not_Resolved_Atoms>  (738) 
nan

$$$$
CHEMBL199230
     RDKit          3D

  0  0  0  0  0  0  0  0  0  0999 V3000
M  V30 BEGIN CTAB
M  V30 COUNTS 47 50 0 0 0
M  V30 BEGIN ATOM
M  V30 1 C -2.657678 -1.125373 1.530098 0
M  V30 2 C -1.981943 -2.454433 1.306271 0 CFG=1
M  V30 3 N -0.563115 -2.346183 1.048713 0
M  V30 4 C 0.170041 -1.754368 -0.010059 0
M  V30 5 C 0.478460 -0.394675 -0.171381 0
M  V30 6 C 1.228755 -0.106249 -1.296424 0
M  V30 7 C 1.530140 1.228090 -1.466338 0
M  V30 8 N 1.109937 2.229718 -0.563414 0
M  V30 9 C 1.635609 2.848419 0.601598 0
M  V30 10 C 0.844232 3.830779 1.149201 0
M  V30 11 C 1.300552 4.472412 2.280440 0
M  V30 12 C 2.537753 4.082431 2.797349 0
M  V30 13 F 2.918540 4.765037 3.917608 0
M  V30 14 C 3.328049 3.091761 2.239529 0
M  V30 15 Cl 4.863740 2.673690 2.956895 0
M  V30 16 C 2.852578 2.458862 1.103125 0
M  V30 17 C 2.281261 1.581914 -2.587107 0
M  V30 18 C 2.648746 2.939397 -2.871449 0
M  V30 19 N 2.930037 4.055320 -3.106824 0
M  V30 20 C 2.680680 0.583110 -3.460690 0
M  V30 21 N 2.362359 -0.724132 -3.258329 0
M  V30 22 C 1.638087 -1.079198 -2.182550 0
M  V30 23 C 1.315886 -2.405705 -1.990504 0
M  V30 24 N 0.587714 -2.671479 -0.896393 0
M  V30 25 C -2.295389 -3.470954 2.324090 0
M  V30 26 C -3.349288 -4.369670 2.142651 0
M  V30 27 C -3.728587 -5.360129 3.022356 0
M  V30 28 C -3.006041 -5.493534 4.207985 0
M  V30 29 C -1.962861 -4.618310 4.407606 0
M  V30 30 C -1.590660 -3.629696 3.520363 0
M  V30 31 H -3.019360 -0.644949 0.601866 0
M  V30 32 H -1.935541 -0.467575 2.094296 0
M  V30 33 H -3.580803 -1.266136 2.160507 0
M  V30 34 H -2.411690 -2.839210 0.330525 0
M  V30 35 H 0.140567 -2.766193 1.727000 0
M  V30 36 H 0.099263 0.246911 0.583833 0
M  V30 37 H 0.203860 2.439478 -1.002979 0
M  V30 38 H -0.126951 4.128516 0.737978 0
M  V30 39 H 0.705630 5.238587 2.726643 0
M  V30 40 H 3.429354 1.674332 0.623134 0
M  V30 41 H 3.268044 0.800750 -4.351276 0
M  V30 42 H 1.649056 -3.142733 -2.697256 0
M  V30 43 H -3.904619 -4.258336 1.221769 0
M  V30 44 H -4.585876 -5.992744 2.735790 0
M  V30 45 H -3.295160 -6.255176 4.886617 0
M  V30 46 H -1.387722 -4.718745 5.341101 0
M  V30 47 H -0.765561 -2.957900 3.707632 0
M  V30 END ATOM
M  V30 BEGIN BOND
M  V30 1 1 1 2
M  V30 2 1 2 3
M  V30 3 1 3 4
M  V30 4 2 4 5
M  V30 5 1 5 6
M  V30 6 2 6 7
M  V30 7 1 7 8
M  V30 8 1 8 9
M  V30 9 2 9 10
M  V30 10 1 10 11
M  V30 11 2 11 12
M  V30 12 1 12 13
M  V30 13 1 12 14
M  V30 14 1 14 15
M  V30 15 2 14 16
M  V30 16 1 7 17
M  V30 17 1 17 18
M  V30 18 3 18 19
M  V30 19 2 17 20
M  V30 20 1 20 21
M  V30 21 2 21 22
M  V30 22 1 22 23
M  V30 23 2 23 24
M  V30 24 1 2 25
M  V30 25 2 25 26
M  V30 26 1 26 27
M  V30 27 2 27 28
M  V30 28 1 28 29
M  V30 29 2 29 30
M  V30 30 1 24 4
M  V30 31 1 30 25
M  V30 32 1 22 6
M  V30 33 1 16 9
M  V30 34 1 1 31
M  V30 35 1 1 32
M  V30 36 1 1 33
M  V30 37 1 2 34 CFG=3
M  V30 38 1 3 35
M  V30 39 1 5 36
M  V30 40 1 8 37
M  V30 41 1 10 38
M  V30 42 1 11 39
M  V30 43 1 16 40
M  V30 44 1 20 41
M  V30 45 1 23 42
M  V30 46 1 26 43
M  V30 47 1 27 44
M  V30 48 1 28 45
M  V30 49 1 29 46
M  V30 50 1 30 47
M  V30 END BOND
M  V30 END CTAB
M  END
>  <Dataset>  (739) 
ChEMBL_Kinases

>  <Ligand_Instance>  (739) 
nan

>  <PDB_ID>  (739) 
nan

>  <Standardized_SMILES>  (739) 
C[C@@H](Nc1cc2c(Nc3ccc(F)c(Cl)c3)c(C#N)cnc2cn1)c1ccccc1

>  <Name>  (739) 
nan

>  <Pocket>  (739) 
nan

>  <ATP_Site>  (739) 
nan

>  <Peripheral>  (739) 
nan

>  <Num_H_Atoms_ProtBoundConf>  (739) 
nan

>  <Num_Resolved_Atoms>  (739) 
nan

>  <Num_Not_Resolved_Atoms>  (739) 
nan

$$$$
CHEMBL199229
     RDKit          3D

  0  0  0  0  0  0  0  0  0  0999 V3000
M  V30 BEGIN CTAB
M  V30 COUNTS 54 56 0 0 0
M  V30 BEGIN ATOM
M  V30 1 C 3.530475 -3.133917 3.287885 0
M  V30 2 C 4.119532 -1.743501 3.381035 0
M  V30 3 C 3.771848 -1.205308 4.758685 0
M  V30 4 C 5.621533 -1.912445 3.318553 0
M  V30 5 O 6.294356 -0.686884 3.395905 0
M  V30 6 C 3.615647 -0.843253 2.316952 0
M  V30 7 C 2.938555 0.304888 2.611903 0
M  V30 8 C 2.439171 1.191705 1.662865 0
M  V30 9 C 2.642153 0.890767 0.316891 0
M  V30 10 C 2.158878 1.748307 -0.807880 0
M  V30 11 N 0.835430 1.350566 -1.245336 0
M  V30 12 C -0.398906 1.616239 -0.599806 0
M  V30 13 O -0.402356 2.263170 0.470843 0
M  V30 14 C -1.695389 1.180120 -1.104232 0
M  V30 15 C -2.815945 1.511482 -0.363819 0
M  V30 16 C -4.107250 1.139992 -0.761319 0
M  V30 17 C -4.287459 0.412203 -1.939058 0
M  V30 18 O -5.568201 0.042572 -2.335373 0
M  V30 19 C -6.169908 -1.132064 -1.965968 0
M  V30 20 C -7.442412 -1.526807 -2.344014 0
M  V30 21 C -7.986185 -2.725940 -1.933757 0
M  V30 22 C -7.300276 -3.606021 -1.123502 0
M  V30 23 C -6.013096 -3.255236 -0.714329 0
M  V30 24 C -5.497296 -2.038939 -1.147231 0
M  V30 25 C -3.171294 0.081014 -2.678581 0
M  V30 26 C -1.913708 0.461710 -2.260009 0
M  V30 27 C 3.329938 -0.274072 -0.025400 0
M  V30 28 C 3.795124 -1.104383 0.983526 0
M  V30 29 O 4.489829 -2.281113 0.652731 0
M  V30 30 H 3.441693 -3.563241 4.318656 0
M  V30 31 H 2.505343 -3.080104 2.836702 0
M  V30 32 H 4.204899 -3.793331 2.706134 0
M  V30 33 H 4.061772 -1.947055 5.522938 0
M  V30 34 H 4.249166 -0.201910 4.918352 0
M  V30 35 H 2.685853 -1.051454 4.811010 0
M  V30 36 H 5.972265 -2.470688 2.451498 0
M  V30 37 H 5.887450 -2.528092 4.226718 0
M  V30 38 H 5.916542 -0.023770 2.787952 0
M  V30 39 H 2.737116 0.614372 3.629965 0
M  V30 40 H 1.912461 2.088078 1.916891 0
M  V30 41 H 2.071509 2.801448 -0.459503 0
M  V30 42 H 2.853512 1.685722 -1.665761 0
M  V30 43 H 0.742694 0.805335 -2.131484 0
M  V30 44 H -2.778395 2.073630 0.562996 0
M  V30 45 H -4.979114 1.415529 -0.155974 0
M  V30 46 H -7.992200 -0.851820 -2.977446 0
M  V30 47 H -8.999275 -3.006294 -2.254386 0
M  V30 48 H -7.701489 -4.535503 -0.796071 0
M  V30 49 H -5.379773 -3.861887 -0.080676 0
M  V30 50 H -4.488799 -1.752026 -0.833275 0
M  V30 51 H -3.263979 -0.483508 -3.600003 0
M  V30 52 H -1.051854 0.194775 -2.850326 0
M  V30 53 H 3.484714 -0.503665 -1.063046 0
M  V30 54 H 4.986056 -2.272849 -0.221325 0
M  V30 END ATOM
M  V30 BEGIN BOND
M  V30 1 1 1 2
M  V30 2 1 2 3
M  V30 3 1 2 4
M  V30 4 1 4 5
M  V30 5 1 2 6
M  V30 6 2 6 7
M  V30 7 1 7 8
M  V30 8 2 8 9
M  V30 9 1 9 10
M  V30 10 1 10 11
M  V30 11 1 11 12
M  V30 12 2 12 13
M  V30 13 1 12 14
M  V30 14 2 14 15
M  V30 15 1 15 16
M  V30 16 2 16 17
M  V30 17 1 17 18
M  V30 18 1 18 19
M  V30 19 2 19 20
M  V30 20 1 20 21
M  V30 21 2 21 22
M  V30 22 1 22 23
M  V30 23 2 23 24
M  V30 24 1 17 25
M  V30 25 2 25 26
M  V30 26 1 9 27
M  V30 27 2 27 28
M  V30 28 1 28 29
M  V30 29 1 28 6
M  V30 30 1 26 14
M  V30 31 1 24 19
M  V30 32 1 1 30
M  V30 33 1 1 31
M  V30 34 1 1 32
M  V30 35 1 3 33
M  V30 36 1 3 34
M  V30 37 1 3 35
M  V30 38 1 4 36
M  V30 39 1 4 37
M  V30 40 1 5 38
M  V30 41 1 7 39
M  V30 42 1 8 40
M  V30 43 1 10 41
M  V30 44 1 10 42
M  V30 45 1 11 43
M  V30 46 1 15 44
M  V30 47 1 16 45
M  V30 48 1 20 46
M  V30 49 1 21 47
M  V30 50 1 22 48
M  V30 51 1 23 49
M  V30 52 1 24 50
M  V30 53 1 25 51
M  V30 54 1 26 52
M  V30 55 1 27 53
M  V30 56 1 29 54
M  V30 END BOND
M  V30 END CTAB
M  END
>  <Dataset>  (740) 
ChEMBL_Kinases

>  <Ligand_Instance>  (740) 
nan

>  <PDB_ID>  (740) 
nan

>  <Standardized_SMILES>  (740) 
CC(C)(CO)c1ccc(CNC(=O)c2ccc(Oc3ccccc3)cc2)cc1O

>  <Name>  (740) 
nan

>  <Pocket>  (740) 
nan

>  <ATP_Site>  (740) 
nan

>  <Peripheral>  (740) 
nan

>  <Num_H_Atoms_ProtBoundConf>  (740) 
nan

>  <Num_Resolved_Atoms>  (740) 
nan

>  <Num_Not_Resolved_Atoms>  (740) 
nan

$$$$
CHEMBL1992286
     RDKit          3D

  0  0  0  0  0  0  0  0  0  0999 V3000
M  V30 BEGIN CTAB
M  V30 COUNTS 26 27 0 0 0
M  V30 BEGIN ATOM
M  V30 1 F -1.839103 -3.972801 4.863895 0
M  V30 2 C -1.473719 -3.428644 3.669005 0
M  V30 3 C -0.260105 -2.785746 3.718644 0
M  V30 4 C 0.234238 -2.182305 2.560257 0
M  V30 5 C -0.500317 -2.246330 1.408440 0
M  V30 6 C 0.029277 -1.611020 0.206032 0
M  V30 7 N 1.151295 -1.021181 0.267709 0
M  V30 8 N 1.793266 -0.366773 -0.790580 0
M  V30 9 C 1.538277 1.019709 -0.991360 0
M  V30 10 C 0.672828 1.684607 -0.148298 0
M  V30 11 C 0.360356 3.035237 -0.262899 0
M  V30 12 C 0.978160 3.717061 -1.301022 0
M  V30 13 C 1.834857 3.012426 -2.118023 0
M  V30 14 N 2.120153 1.705160 -1.985437 0
M  V30 15 C -1.716333 -2.890433 1.358471 0
M  V30 16 C -2.198572 -3.484004 2.505423 0
M  V30 17 H 0.367146 -2.702484 4.603572 0
M  V30 18 H 1.192652 -1.673639 2.596140 0
M  V30 19 H -0.490550 -1.617666 -0.742540 0
M  V30 20 H 2.454813 -0.861240 -1.440168 0
M  V30 21 H 0.212129 1.122802 0.645975 0
M  V30 22 H -0.322218 3.478301 0.432717 0
M  V30 23 H 0.767752 4.760698 -1.428825 0
M  V30 24 H 2.328386 3.540866 -2.941175 0
M  V30 25 H -2.323159 -2.964741 0.480853 0
M  V30 26 H -3.135550 -4.004788 2.551338 0
M  V30 END ATOM
M  V30 BEGIN BOND
M  V30 1 1 1 2
M  V30 2 2 2 3
M  V30 3 1 3 4
M  V30 4 2 4 5
M  V30 5 1 5 6
M  V30 6 2 6 7
M  V30 7 1 7 8
M  V30 8 1 8 9
M  V30 9 2 9 10
M  V30 10 1 10 11
M  V30 11 2 11 12
M  V30 12 1 12 13
M  V30 13 2 13 14
M  V30 14 1 5 15
M  V30 15 2 15 16
M  V30 16 1 16 2
M  V30 17 1 14 9
M  V30 18 1 3 17
M  V30 19 1 4 18
M  V30 20 1 6 19
M  V30 21 1 8 20
M  V30 22 1 10 21
M  V30 23 1 11 22
M  V30 24 1 12 23
M  V30 25 1 13 24
M  V30 26 1 15 25
M  V30 27 1 16 26
M  V30 END BOND
M  V30 END CTAB
M  END
>  <Dataset>  (741) 
ChEMBL_Kinases

>  <Ligand_Instance>  (741) 
nan

>  <PDB_ID>  (741) 
nan

>  <Standardized_SMILES>  (741) 
Fc1ccc(/C=N/Nc2ccccn2)cc1

>  <Name>  (741) 
nan

>  <Pocket>  (741) 
nan

>  <ATP_Site>  (741) 
nan

>  <Peripheral>  (741) 
nan

>  <Num_H_Atoms_ProtBoundConf>  (741) 
nan

>  <Num_Resolved_Atoms>  (741) 
nan

>  <Num_Not_Resolved_Atoms>  (741) 
nan

$$$$
CHEMBL199210
     RDKit          3D

  0  0  0  0  0  0  0  0  0  0999 V3000
M  V30 BEGIN CTAB
M  V30 COUNTS 61 65 0 0 0
M  V30 BEGIN ATOM
M  V30 1 N -0.590144 -6.802843 4.273599 0
M  V30 2 C 0.085194 -5.865390 4.182799 0
M  V30 3 C 0.894242 -4.714602 4.070139 0
M  V30 4 C 2.242213 -4.716710 4.397813 0
M  V30 5 N 3.036710 -3.611748 4.293923 0
M  V30 6 C 2.509926 -2.451647 3.854595 0
M  V30 7 C 3.247707 -1.285432 3.720507 0
M  V30 8 N 2.706158 -0.129650 3.278763 0
M  V30 9 C 1.393643 -0.072469 2.944900 0
M  V30 10 N 0.829332 1.141602 2.481998 0
M  V30 11 C 1.711617 2.307712 2.383264 0
M  V30 12 C 0.832878 3.429163 1.868628 0
M  V30 13 N 0.310205 3.029328 0.583532 0
M  V30 14 C -0.545405 4.096082 0.059438 0
M  V30 15 C -1.332442 3.518478 -1.106502 0
M  V30 16 O -0.621078 2.471360 -1.711300 0
M  V30 17 C 0.748651 2.794171 -1.785672 0
M  V30 18 C 1.360287 2.806132 -0.389644 0
M  V30 19 C 0.681617 -1.227809 3.082320 0
M  V30 20 C 1.157592 -2.443403 3.524212 0
M  V30 21 C 0.317645 -3.547580 3.616863 0
M  V30 22 N -1.041871 -3.401755 3.247827 0
M  V30 23 C -1.365623 -3.656128 1.890039 0
M  V30 24 C -0.374152 -4.031333 0.976992 0
M  V30 25 C -0.636496 -4.293983 -0.371463 0
M  V30 26 C -1.953961 -4.175636 -0.828641 0
M  V30 27 S -2.220096 -4.524744 -2.559749 0
M  V30 28 C -2.046344 -3.054858 -3.543879 0
M  V30 29 C -3.006297 -2.133352 -3.904967 0
M  V30 30 C -2.639660 -1.056065 -4.683535 0
M  V30 31 C -1.355425 -0.855331 -5.119700 0
M  V30 32 C -0.381451 -1.773937 -4.763828 0
M  V30 33 C -0.735589 -2.859249 -3.983106 0
M  V30 34 C -2.940473 -3.804583 0.069835 0
M  V30 35 C -2.649625 -3.552055 1.394968 0
M  V30 36 H 2.658862 -5.666869 4.754041 0
M  V30 37 H 4.277857 -1.407394 4.003243 0
M  V30 38 H -0.190377 1.135344 2.236054 0
M  V30 39 H 2.084726 2.544479 3.400069 0
M  V30 40 H 2.539910 2.110460 1.675612 0
M  V30 41 H 1.348211 4.409433 1.859188 0
M  V30 42 H -0.046131 3.483603 2.550697 0
M  V30 43 H -1.206864 4.405601 0.884648 0
M  V30 44 H 0.120264 4.927526 -0.250986 0
M  V30 45 H -1.523707 4.329133 -1.846427 0
M  V30 46 H -2.299563 3.118420 -0.753604 0
M  V30 47 H 1.228341 2.021410 -2.391486 0
M  V30 48 H 0.865554 3.764443 -2.290895 0
M  V30 49 H 1.882085 1.830282 -0.235089 0
M  V30 50 H 2.092647 3.631694 -0.285270 0
M  V30 51 H -0.365002 -1.183542 2.816452 0
M  V30 52 H -1.825420 -3.126058 3.876936 0
M  V30 53 H 0.664685 -4.128207 1.321829 0
M  V30 54 H 0.200995 -4.578641 -1.000921 0
M  V30 55 H -3.977143 -2.375102 -3.517528 0
M  V30 56 H -3.445647 -0.363262 -4.934832 0
M  V30 57 H -1.095200 -0.007984 -5.725344 0
M  V30 58 H 0.611900 -1.585968 -5.122168 0
M  V30 59 H 0.113162 -3.507206 -3.770806 0
M  V30 60 H -3.936764 -3.730451 -0.343383 0
M  V30 61 H -3.434682 -3.263498 2.080427 0
M  V30 END ATOM
M  V30 BEGIN BOND
M  V30 1 3 1 2
M  V30 2 1 2 3
M  V30 3 2 3 4
M  V30 4 1 4 5
M  V30 5 2 5 6
M  V30 6 1 6 7
M  V30 7 2 7 8
M  V30 8 1 8 9
M  V30 9 1 9 10
M  V30 10 1 10 11
M  V30 11 1 11 12
M  V30 12 1 12 13
M  V30 13 1 13 14
M  V30 14 1 14 15
M  V30 15 1 15 16
M  V30 16 1 16 17
M  V30 17 1 17 18
M  V30 18 2 9 19
M  V30 19 1 19 20
M  V30 20 2 20 21
M  V30 21 1 21 22
M  V30 22 1 22 23
M  V30 23 2 23 24
M  V30 24 1 24 25
M  V30 25 2 25 26
M  V30 26 1 26 27
M  V30 27 1 27 28
M  V30 28 2 28 29
M  V30 29 1 29 30
M  V30 30 2 30 31
M  V30 31 1 31 32
M  V30 32 2 32 33
M  V30 33 1 26 34
M  V30 34 2 34 35
M  V30 35 1 21 3
M  V30 36 1 35 23
M  V30 37 1 20 6
M  V30 38 1 33 28
M  V30 39 1 18 13
M  V30 40 1 4 36
M  V30 41 1 7 37
M  V30 42 1 10 38
M  V30 43 1 11 39
M  V30 44 1 11 40
M  V30 45 1 12 41
M  V30 46 1 12 42
M  V30 47 1 14 43
M  V30 48 1 14 44
M  V30 49 1 15 45
M  V30 50 1 15 46
M  V30 51 1 17 47
M  V30 52 1 17 48
M  V30 53 1 18 49
M  V30 54 1 18 50
M  V30 55 1 19 51
M  V30 56 1 22 52
M  V30 57 1 24 53
M  V30 58 1 25 54
M  V30 59 1 29 55
M  V30 60 1 30 56
M  V30 61 1 31 57
M  V30 62 1 32 58
M  V30 63 1 33 59
M  V30 64 1 34 60
M  V30 65 1 35 61
M  V30 END BOND
M  V30 END CTAB
M  END
>  <Dataset>  (742) 
ChEMBL_Kinases

>  <Ligand_Instance>  (742) 
nan

>  <PDB_ID>  (742) 
nan

>  <Standardized_SMILES>  (742) 
N#Cc1cnc2cnc(NCCN3CCOCC3)cc2c1Nc1ccc(Sc2ccccc2)cc1

>  <Name>  (742) 
nan

>  <Pocket>  (742) 
nan

>  <ATP_Site>  (742) 
nan

>  <Peripheral>  (742) 
nan

>  <Num_H_Atoms_ProtBoundConf>  (742) 
nan

>  <Num_Resolved_Atoms>  (742) 
nan

>  <Num_Not_Resolved_Atoms>  (742) 
nan

$$$$
CHEMBL1991908
     RDKit          3D

  0  0  0  0  0  0  0  0  0  0999 V3000
M  V30 BEGIN CTAB
M  V30 COUNTS 38 40 0 0 0
M  V30 BEGIN ATOM
M  V30 1 C 2.672366 -4.139387 4.008309 0
M  V30 2 O 2.226241 -3.239047 2.990949 0
M  V30 3 C 3.066650 -2.498181 2.192125 0
M  V30 4 O 4.338802 -2.529432 2.267331 0
M  V30 5 C 2.371096 -1.651776 1.226944 0
M  V30 6 C 3.065142 -0.839550 0.343949 0
M  V30 7 C 2.499217 -0.008457 -0.600073 0
M  V30 8 O 3.315307 0.661522 -1.320696 0
M  V30 9 N 1.214262 0.189388 -0.861318 0
M  V30 10 C 0.773484 1.106371 -1.897123 0
M  V30 11 C 0.610145 2.440027 -1.262384 0
M  V30 12 C -0.512365 2.967178 -0.670305 0
M  V30 13 C -0.132415 4.232083 -0.240780 0
M  V30 14 C 1.198775 4.382912 -0.604259 0
M  V30 15 O 1.592011 3.305072 -1.201492 0
M  V30 16 C 0.209468 -0.432849 -0.199886 0
M  V30 17 N -1.055403 -0.258284 -0.434579 0
M  V30 18 C -2.004402 -0.998795 0.360419 0
M  V30 19 C -2.298365 -2.278548 -0.082568 0
M  V30 20 C -3.210590 -3.030487 0.655297 0
M  V30 21 C -3.800592 -2.522145 1.785225 0
M  V30 22 F -4.688846 -3.282286 2.485346 0
M  V30 23 C -3.480791 -1.241872 2.193679 0
M  V30 24 Cl -4.253414 -0.614573 3.648155 0
M  V30 25 C -2.576827 -0.453480 1.490886 0
M  V30 26 S 0.660422 -1.536466 1.044147 0
M  V30 27 H 2.753347 -5.176907 3.626694 0
M  V30 28 H 3.575059 -3.771500 4.523613 0
M  V30 29 H 1.859406 -4.172478 4.779728 0
M  V30 30 H 4.161987 -0.891480 0.436636 0
M  V30 31 H -0.167625 0.798331 -2.381054 0
M  V30 32 H 1.573071 1.120220 -2.676879 0
M  V30 33 H -1.474736 2.507147 -0.560734 0
M  V30 34 H -0.785567 4.923080 0.271448 0
M  V30 35 H 1.785431 5.290360 -0.397406 0
M  V30 36 H -1.843754 -2.698369 -0.971659 0
M  V30 37 H -3.437774 -4.037259 0.301300 0
M  V30 38 H -2.323503 0.558783 1.813194 0
M  V30 END ATOM
M  V30 BEGIN BOND
M  V30 1 1 1 2
M  V30 2 1 2 3
M  V30 3 2 3 4
M  V30 4 1 3 5
M  V30 5 2 5 6
M  V30 6 1 6 7
M  V30 7 2 7 8
M  V30 8 1 7 9
M  V30 9 1 9 10
M  V30 10 1 10 11
M  V30 11 2 11 12
M  V30 12 1 12 13
M  V30 13 2 13 14
M  V30 14 1 14 15
M  V30 15 1 9 16
M  V30 16 2 16 17
M  V30 17 1 17 18
M  V30 18 2 18 19
M  V30 19 1 19 20
M  V30 20 2 20 21
M  V30 21 1 21 22
M  V30 22 1 21 23
M  V30 23 1 23 24
M  V30 24 2 23 25
M  V30 25 1 16 26
M  V30 26 1 26 5
M  V30 27 1 15 11
M  V30 28 1 25 18
M  V30 29 1 1 27
M  V30 30 1 1 28
M  V30 31 1 1 29
M  V30 32 1 6 30
M  V30 33 1 10 31
M  V30 34 1 10 32
M  V30 35 1 12 33
M  V30 36 1 13 34
M  V30 37 1 14 35
M  V30 38 1 19 36
M  V30 39 1 20 37
M  V30 40 1 25 38
M  V30 END BOND
M  V30 END CTAB
M  END
>  <Dataset>  (743) 
ChEMBL_Kinases

>  <Ligand_Instance>  (743) 
nan

>  <PDB_ID>  (743) 
nan

>  <Standardized_SMILES>  (743) 
COC(=O)c1cc(=O)n(Cc2ccco2)/c(=N/c2ccc(F)c(Cl)c2)s1

>  <Name>  (743) 
nan

>  <Pocket>  (743) 
nan

>  <ATP_Site>  (743) 
nan

>  <Peripheral>  (743) 
nan

>  <Num_H_Atoms_ProtBoundConf>  (743) 
nan

>  <Num_Resolved_Atoms>  (743) 
nan

>  <Num_Not_Resolved_Atoms>  (743) 
nan

$$$$
CHEMBL199189
     RDKit          3D

  0  0  0  0  0  0  0  0  0  0999 V3000
M  V30 BEGIN CTAB
M  V30 COUNTS 68 72 0 0 0
M  V30 BEGIN ATOM
M  V30 1 O 1.465680 -1.912012 4.290835 0
M  V30 2 C 2.029302 -0.780637 3.507625 0
M  V30 3 C 3.245572 -1.418995 2.936261 0
M  V30 4 O 4.144981 -0.750690 2.230592 0
M  V30 5 C 4.952261 0.211649 2.653580 0
M  V30 6 C 4.455803 1.464849 3.210828 0
M  V30 7 C 4.221896 1.796659 4.537201 0
M  V30 8 C 3.766064 3.005736 5.004647 0
M  V30 9 C 3.506579 4.006007 4.098149 0
M  V30 10 C 3.705066 3.782759 2.753855 0
M  V30 11 C 4.164335 2.542364 2.363655 0
M  V30 12 C 0.916502 -0.402410 2.620834 0
M  V30 13 N 1.026501 0.671894 1.671027 0
M  V30 14 C -0.369814 0.939102 1.309732 0
M  V30 15 C -0.578732 1.771006 0.124942 0
M  V30 16 C -0.062527 0.984542 -1.084602 0
M  V30 17 C -0.972318 -0.175252 -1.322400 0
M  V30 18 C -1.032430 -1.463639 -0.793197 0
M  V30 19 C -2.123105 -2.104877 -1.392007 0
M  V30 20 C -2.423763 -3.470801 -1.021852 0
M  V30 21 C -2.331882 -4.390590 -2.055653 0
M  V30 22 C -2.587211 -5.732320 -1.870410 0
M  V30 23 N -2.940256 -6.146157 -0.619617 0
M  V30 24 C -3.031876 -5.276575 0.378715 0
M  V30 25 C -2.788237 -3.927827 0.248070 0
M  V30 26 C -2.708130 -1.244221 -2.254191 0
M  V30 27 C -3.876345 -1.644842 -3.022037 0
M  V30 28 C -4.974585 -1.964011 -2.211648 0
M  V30 29 C -6.118121 -2.354283 -2.913079 0
M  V30 30 C -6.219884 -2.438066 -4.285484 0
M  V30 31 F -7.385373 -2.830405 -4.849808 0
M  V30 32 C -5.091060 -2.105967 -5.008911 0
M  V30 33 C -3.915737 -1.709057 -4.398684 0
M  V30 34 N -1.984729 -0.110875 -2.174720 0
M  V30 35 C 1.327495 0.598429 -0.827137 0
M  V30 36 C 1.773839 0.229817 0.525135 0
M  V30 37 H 0.989320 -2.474609 3.606258 0
M  V30 38 H 2.208451 -0.075336 4.343814 0
M  V30 39 H 3.726371 -2.025115 3.783375 0
M  V30 40 H 2.846550 -2.291443 2.295415 0
M  V30 41 H 5.657907 0.464208 1.775241 0
M  V30 42 H 5.623586 -0.233657 3.455474 0
M  V30 43 H 4.436216 0.981775 5.245306 0
M  V30 44 H 3.619804 3.145412 6.080751 0
M  V30 45 H 3.153868 4.925620 4.522939 0
M  V30 46 H 3.499604 4.570954 2.045515 0
M  V30 47 H 4.299846 2.442863 1.297314 0
M  V30 48 H 0.004090 -0.250808 3.284546 0
M  V30 49 H 0.617161 -1.369046 2.080828 0
M  V30 50 H -0.952311 0.017159 1.281340 0
M  V30 51 H -0.771665 1.505239 2.203302 0
M  V30 52 H -1.669211 1.867851 -0.051436 0
M  V30 53 H -0.124864 2.772708 0.145523 0
M  V30 54 H -0.111013 1.701513 -1.943697 0
M  V30 55 H -0.323523 -1.822668 -0.063778 0
M  V30 56 H -2.050341 -4.094067 -3.073742 0
M  V30 57 H -2.504520 -6.437421 -2.713075 0
M  V30 58 H -3.313505 -5.604821 1.379654 0
M  V30 59 H -2.843852 -3.167666 1.016422 0
M  V30 60 H -4.961830 -1.919460 -1.134715 0
M  V30 61 H -7.001595 -2.614412 -2.341926 0
M  V30 62 H -5.134178 -2.160062 -6.102680 0
M  V30 63 H -3.023842 -1.445969 -4.959069 0
M  V30 64 H -2.270102 0.717235 -2.778943 0
M  V30 65 H 1.628623 -0.266549 -1.510468 0
M  V30 66 H 1.980457 1.432764 -1.250964 0
M  V30 67 H 2.782573 0.732459 0.644695 0
M  V30 68 H 1.978941 -0.855820 0.611301 0
M  V30 END ATOM
M  V30 BEGIN BOND
M  V30 1 1 1 2
M  V30 2 1 2 3
M  V30 3 1 3 4
M  V30 4 1 4 5
M  V30 5 1 5 6
M  V30 6 2 6 7
M  V30 7 1 7 8
M  V30 8 2 8 9
M  V30 9 1 9 10
M  V30 10 2 10 11
M  V30 11 1 2 12
M  V30 12 1 12 13
M  V30 13 1 13 14
M  V30 14 1 14 15
M  V30 15 1 15 16
M  V30 16 1 16 17
M  V30 17 2 17 18
M  V30 18 1 18 19
M  V30 19 1 19 20
M  V30 20 2 20 21
M  V30 21 1 21 22
M  V30 22 2 22 23
M  V30 23 1 23 24
M  V30 24 2 24 25
M  V30 25 2 19 26
M  V30 26 1 26 27
M  V30 27 2 27 28
M  V30 28 1 28 29
M  V30 29 2 29 30
M  V30 30 1 30 31
M  V30 31 1 30 32
M  V30 32 2 32 33
M  V30 33 1 26 34
M  V30 34 1 16 35
M  V30 35 1 35 36
M  V30 36 1 11 6
M  V30 37 1 36 13
M  V30 38 1 34 17
M  V30 39 1 25 20
M  V30 40 1 33 27
M  V30 41 1 1 37
M  V30 42 1 2 38
M  V30 43 1 3 39
M  V30 44 1 3 40
M  V30 45 1 5 41
M  V30 46 1 5 42
M  V30 47 1 7 43
M  V30 48 1 8 44
M  V30 49 1 9 45
M  V30 50 1 10 46
M  V30 51 1 11 47
M  V30 52 1 12 48
M  V30 53 1 12 49
M  V30 54 1 14 50
M  V30 55 1 14 51
M  V30 56 1 15 52
M  V30 57 1 15 53
M  V30 58 1 16 54
M  V30 59 1 18 55
M  V30 60 1 21 56
M  V30 61 1 22 57
M  V30 62 1 24 58
M  V30 63 1 25 59
M  V30 64 1 28 60
M  V30 65 1 29 61
M  V30 66 1 32 62
M  V30 67 1 33 63
M  V30 68 1 34 64
M  V30 69 1 35 65
M  V30 70 1 35 66
M  V30 71 1 36 67
M  V30 72 1 36 68
M  V30 END BOND
M  V30 END CTAB
M  END
>  <Dataset>  (744) 
ChEMBL_Kinases

>  <Ligand_Instance>  (744) 
nan

>  <PDB_ID>  (744) 
nan

>  <Standardized_SMILES>  (744) 
OC(COCc1ccccc1)CN1CCC(c2cc(-c3ccncc3)c(-c3ccc(F)cc3)[nH]2)CC1

>  <Name>  (744) 
nan

>  <Pocket>  (744) 
nan

>  <ATP_Site>  (744) 
nan

>  <Peripheral>  (744) 
nan

>  <Num_H_Atoms_ProtBoundConf>  (744) 
nan

>  <Num_Resolved_Atoms>  (744) 
nan

>  <Num_Not_Resolved_Atoms>  (744) 
nan

$$$$
CHEMBL1991885
     RDKit          3D

  0  0  0  0  0  0  0  0  0  0999 V3000
M  V30 BEGIN CTAB
M  V30 COUNTS 34 36 0 0 0
M  V30 BEGIN ATOM
M  V30 1 C 2.152711 -2.496516 5.228376 0
M  V30 2 C 1.748407 -2.893844 3.842248 0
M  V30 3 C 1.951727 -4.167095 3.356190 0
M  V30 4 C 1.580267 -4.536680 2.078963 0
M  V30 5 C 0.984218 -3.605970 1.253378 0
M  V30 6 O 0.561397 -3.850613 -0.059059 0
M  V30 7 C 0.760212 -2.326825 1.689582 0
M  V30 8 N 0.162054 -1.243760 0.980847 0
M  V30 9 C 0.285346 -1.001518 -0.258304 0
M  V30 10 C -0.390672 0.155410 -0.859555 0
M  V30 11 C -1.144799 0.982957 -0.152199 0
M  V30 12 O -1.487075 1.015178 1.190750 0
M  V30 13 C -1.652009 2.005232 -1.062346 0
M  V30 14 C -2.477417 3.125203 -0.925617 0
M  V30 15 C -2.764889 3.908588 -2.048560 0
M  V30 16 C -2.265142 3.624207 -3.303050 0
M  V30 17 C -1.448508 2.523007 -3.458748 0
M  V30 18 C -1.176117 1.762139 -2.339426 0
M  V30 19 C -0.344147 0.561329 -2.263173 0
M  V30 20 O 0.319233 -0.088746 -3.117228 0
M  V30 21 C 1.148524 -1.983863 2.989904 0
M  V30 22 H 2.504598 -3.416542 5.732500 0
M  V30 23 H 1.287922 -2.100261 5.799258 0
M  V30 24 H 2.963590 -1.753670 5.165449 0
M  V30 25 H 2.407634 -4.914149 3.959441 0
M  V30 26 H 1.731816 -5.537247 1.675287 0
M  V30 27 H 1.318048 -4.070684 -0.718544 0
M  V30 28 H 0.900259 -1.674110 -0.841462 0
M  V30 29 H -0.791690 0.794897 1.902987 0
M  V30 30 H -2.869491 3.349080 0.056321 0
M  V30 31 H -3.408159 4.764135 -1.890551 0
M  V30 32 H -2.517043 4.260253 -4.137053 0
M  V30 33 H -1.036999 2.266448 -4.425129 0
M  V30 34 H 1.004585 -0.979450 3.416766 0
M  V30 END ATOM
M  V30 BEGIN BOND
M  V30 1 1 1 2
M  V30 2 2 2 3
M  V30 3 1 3 4
M  V30 4 2 4 5
M  V30 5 1 5 6
M  V30 6 1 5 7
M  V30 7 1 7 8
M  V30 8 2 8 9
M  V30 9 1 9 10
M  V30 10 2 10 11
M  V30 11 1 11 12
M  V30 12 1 11 13
M  V30 13 2 13 14
M  V30 14 1 14 15
M  V30 15 2 15 16
M  V30 16 1 16 17
M  V30 17 2 17 18
M  V30 18 1 18 19
M  V30 19 2 19 20
M  V30 20 2 7 21
M  V30 21 1 21 2
M  V30 22 1 19 10
M  V30 23 1 18 13
M  V30 24 1 1 22
M  V30 25 1 1 23
M  V30 26 1 1 24
M  V30 27 1 3 25
M  V30 28 1 4 26
M  V30 29 1 6 27
M  V30 30 1 9 28
M  V30 31 1 12 29
M  V30 32 1 14 30
M  V30 33 1 15 31
M  V30 34 1 16 32
M  V30 35 1 17 33
M  V30 36 1 21 34
M  V30 END BOND
M  V30 END CTAB
M  END
>  <Dataset>  (745) 
ChEMBL_Kinases

>  <Ligand_Instance>  (745) 
nan

>  <PDB_ID>  (745) 
nan

>  <Standardized_SMILES>  (745) 
Cc1ccc(O)c(/N=C/C2=C(O)c3ccccc3C2=O)c1

>  <Name>  (745) 
nan

>  <Pocket>  (745) 
nan

>  <ATP_Site>  (745) 
nan

>  <Peripheral>  (745) 
nan

>  <Num_H_Atoms_ProtBoundConf>  (745) 
nan

>  <Num_Resolved_Atoms>  (745) 
nan

>  <Num_Not_Resolved_Atoms>  (745) 
nan

$$$$
CHEMBL199174
     RDKit          3D

  0  0  0  0  0  0  0  0  0  0999 V3000
M  V30 BEGIN CTAB
M  V30 COUNTS 43 45 0 0 0
M  V30 BEGIN ATOM
M  V30 1 C 2.316094 -6.732827 0.402924 0
M  V30 2 C 1.828490 -5.598433 -0.405891 0
M  V30 3 C 0.485806 -5.395610 -0.640664 0
M  V30 4 C 0.020943 -4.335937 -1.397209 0
M  V30 5 C 0.903470 -3.413807 -1.963045 0
M  V30 6 C 0.263814 -2.330480 -2.752879 0
M  V30 7 N -0.054120 -1.219535 -1.882936 0
M  V30 8 C 0.825172 -0.247872 -1.355461 0
M  V30 9 O 2.044032 -0.342923 -1.670173 0
M  V30 10 C 0.402915 0.838147 -0.482710 0
M  V30 11 C -0.886157 1.070125 -0.052428 0
M  V30 12 C -1.269551 2.104361 0.772983 0
M  V30 13 C -0.300086 2.979787 1.207740 0
M  V30 14 O -0.670062 4.039189 2.048372 0
M  V30 15 C -0.628208 3.763038 3.425539 0
M  V30 16 C 0.414437 3.913643 4.313849 0
M  V30 17 C 0.222188 3.574561 5.630077 0
M  V30 18 C -0.986842 3.088422 6.080624 0
M  V30 19 C -2.053311 2.925497 5.213948 0
M  V30 20 C -1.846768 3.269420 3.896832 0
M  V30 21 C 1.011572 2.805412 0.814423 0
M  V30 22 C 1.327505 1.747875 -0.013940 0
M  V30 23 C 2.250502 -3.612859 -1.730577 0
M  V30 24 C 2.684535 -4.678782 -0.972010 0
M  V30 25 H 2.242699 -6.416589 1.470007 0
M  V30 26 H 1.638648 -7.596745 0.224495 0
M  V30 27 H 3.350972 -7.021843 0.148082 0
M  V30 28 H -0.224323 -6.113475 -0.201736 0
M  V30 29 H -1.048038 -4.281096 -1.511755 0
M  V30 30 H 0.986594 -2.020826 -3.544093 0
M  V30 31 H -0.663277 -2.704148 -3.225118 0
M  V30 32 H -1.050282 -1.096957 -1.592357 0
M  V30 33 H -1.663332 0.398853 -0.378758 0
M  V30 34 H -2.282078 2.240599 1.078148 0
M  V30 35 H 1.302443 4.301993 3.834563 0
M  V30 36 H 1.091259 3.722174 6.266886 0
M  V30 37 H -1.073398 2.841833 7.120681 0
M  V30 38 H -2.990358 2.542176 5.594105 0
M  V30 39 H -2.734659 3.113221 3.272808 0
M  V30 40 H 1.759030 3.509138 1.170035 0
M  V30 41 H 2.368900 1.639817 -0.304283 0
M  V30 42 H 2.898254 -2.892192 -2.178247 0
M  V30 43 H 3.759544 -4.755727 -0.842061 0
M  V30 END ATOM
M  V30 BEGIN BOND
M  V30 1 1 1 2
M  V30 2 2 2 3
M  V30 3 1 3 4
M  V30 4 2 4 5
M  V30 5 1 5 6
M  V30 6 1 6 7
M  V30 7 1 7 8
M  V30 8 2 8 9
M  V30 9 1 8 10
M  V30 10 2 10 11
M  V30 11 1 11 12
M  V30 12 2 12 13
M  V30 13 1 13 14
M  V30 14 1 14 15
M  V30 15 2 15 16
M  V30 16 1 16 17
M  V30 17 2 17 18
M  V30 18 1 18 19
M  V30 19 2 19 20
M  V30 20 1 13 21
M  V30 21 2 21 22
M  V30 22 1 5 23
M  V30 23 2 23 24
M  V30 24 1 24 2
M  V30 25 1 22 10
M  V30 26 1 20 15
M  V30 27 1 1 25
M  V30 28 1 1 26
M  V30 29 1 1 27
M  V30 30 1 3 28
M  V30 31 1 4 29
M  V30 32 1 6 30
M  V30 33 1 6 31
M  V30 34 1 7 32
M  V30 35 1 11 33
M  V30 36 1 12 34
M  V30 37 1 16 35
M  V30 38 1 17 36
M  V30 39 1 18 37
M  V30 40 1 19 38
M  V30 41 1 20 39
M  V30 42 1 21 40
M  V30 43 1 22 41
M  V30 44 1 23 42
M  V30 45 1 24 43
M  V30 END BOND
M  V30 END CTAB
M  END
>  <Dataset>  (746) 
ChEMBL_Kinases

>  <Ligand_Instance>  (746) 
nan

>  <PDB_ID>  (746) 
nan

>  <Standardized_SMILES>  (746) 
Cc1ccc(CNC(=O)c2ccc(Oc3ccccc3)cc2)cc1

>  <Name>  (746) 
nan

>  <Pocket>  (746) 
nan

>  <ATP_Site>  (746) 
nan

>  <Peripheral>  (746) 
nan

>  <Num_H_Atoms_ProtBoundConf>  (746) 
nan

>  <Num_Resolved_Atoms>  (746) 
nan

>  <Num_Not_Resolved_Atoms>  (746) 
nan

$$$$
CHEMBL199160
     RDKit          3D

  0  0  0  0  0  0  0  0  0  0999 V3000
M  V30 BEGIN CTAB
M  V30 COUNTS 46 48 0 0 0
M  V30 BEGIN ATOM
M  V30 1 C 1.167841 -6.798957 2.297581 0
M  V30 2 C 0.496267 -5.506658 2.641875 0
M  V30 3 C 0.029751 -4.799547 1.423198 0
M  V30 4 O 0.158459 -5.186873 0.242635 0
M  V30 5 N -0.606268 -3.580059 1.780423 0
M  V30 6 C -1.183441 -2.625757 0.898567 0
M  V30 7 C -0.505106 -1.563762 0.349473 0
M  V30 8 C -1.250534 -0.749262 -0.486705 0
M  V30 9 C -0.523538 0.401587 -1.084920 0
M  V30 10 S -0.093714 0.883484 -2.870665 0
M  V30 11 C 0.765439 2.427241 -2.230833 0
M  V30 12 C 1.408581 3.373988 -3.262376 0
M  V30 13 C 2.831593 2.974036 -3.505544 0
M  V30 14 N 0.643962 2.375563 -1.114173 0
M  V30 15 C 0.040563 1.453693 -0.386549 0
M  V30 16 C -0.029470 1.537989 1.078499 0
M  V30 17 C -1.313026 1.633853 1.562544 0
M  V30 18 C -1.512482 1.720851 2.930224 0
M  V30 19 C -0.428104 1.710267 3.785633 0
M  V30 20 C 0.837771 1.612725 3.253269 0
M  V30 21 C 2.035904 1.599511 4.158137 0
M  V30 22 C 1.088561 1.523416 1.893345 0
M  V30 23 C -2.571602 -0.981771 -0.750989 0
M  V30 24 C -3.224333 -2.060553 -0.181291 0
M  V30 25 N -2.481067 -2.847572 0.634223 0
M  V30 26 H 0.436706 -7.614452 2.165310 0
M  V30 27 H 1.797344 -6.719667 1.388476 0
M  V30 28 H 1.870389 -7.121933 3.114479 0
M  V30 29 H -0.276541 -5.648668 3.397272 0
M  V30 30 H 1.289215 -4.846874 3.087130 0
M  V30 31 H -0.763972 -3.171679 2.710291 0
M  V30 32 H 0.545151 -1.435305 0.600810 0
M  V30 33 H 0.782403 3.336772 -4.176616 0
M  V30 34 H 1.375223 4.340842 -2.753705 0
M  V30 35 H 3.522196 3.570240 -2.846168 0
M  V30 36 H 3.181041 3.139158 -4.523592 0
M  V30 37 H 3.003086 1.908392 -3.241609 0
M  V30 38 H -2.199166 1.646681 0.942795 0
M  V30 39 H -2.533576 1.797361 3.318483 0
M  V30 40 H -0.571350 1.778140 4.870195 0
M  V30 41 H 2.481601 0.570843 4.045104 0
M  V30 42 H 1.704663 1.770582 5.217686 0
M  V30 43 H 2.809064 2.308788 3.831449 0
M  V30 44 H 2.050716 1.446632 1.441843 0
M  V30 45 H -3.127035 -0.340209 -1.399215 0
M  V30 46 H -4.270867 -2.289542 -0.358098 0
M  V30 END ATOM
M  V30 BEGIN BOND
M  V30 1 1 1 2
M  V30 2 1 2 3
M  V30 3 2 3 4
M  V30 4 1 3 5
M  V30 5 1 5 6
M  V30 6 2 6 7
M  V30 7 1 7 8
M  V30 8 1 8 9
M  V30 9 1 9 10
M  V30 10 1 10 11
M  V30 11 1 11 12
M  V30 12 1 12 13
M  V30 13 2 11 14
M  V30 14 1 14 15
M  V30 15 1 15 16
M  V30 16 2 16 17
M  V30 17 1 17 18
M  V30 18 2 18 19
M  V30 19 1 19 20
M  V30 20 1 20 21
M  V30 21 2 20 22
M  V30 22 2 8 23
M  V30 23 1 23 24
M  V30 24 2 24 25
M  V30 25 1 25 6
M  V30 26 2 15 9
M  V30 27 1 22 16
M  V30 28 1 1 26
M  V30 29 1 1 27
M  V30 30 1 1 28
M  V30 31 1 2 29
M  V30 32 1 2 30
M  V30 33 1 5 31
M  V30 34 1 7 32
M  V30 35 1 12 33
M  V30 36 1 12 34
M  V30 37 1 13 35
M  V30 38 1 13 36
M  V30 39 1 13 37
M  V30 40 1 17 38
M  V30 41 1 18 39
M  V30 42 1 19 40
M  V30 43 1 21 41
M  V30 44 1 21 42
M  V30 45 1 21 43
M  V30 46 1 22 44
M  V30 47 1 23 45
M  V30 48 1 24 46
M  V30 END BOND
M  V30 END CTAB
M  END
>  <Dataset>  (747) 
ChEMBL_Kinases

>  <Ligand_Instance>  (747) 
nan

>  <PDB_ID>  (747) 
nan

>  <Standardized_SMILES>  (747) 
CCC(=O)Nc1cc(-c2sc(CC)nc2-c2cccc(C)c2)ccn1

>  <Name>  (747) 
nan

>  <Pocket>  (747) 
nan

>  <ATP_Site>  (747) 
nan

>  <Peripheral>  (747) 
nan

>  <Num_H_Atoms_ProtBoundConf>  (747) 
nan

>  <Num_Resolved_Atoms>  (747) 
nan

>  <Num_Not_Resolved_Atoms>  (747) 
nan

$$$$
CHEMBL1991126
     RDKit          3D

  0  0  0  0  0  0  0  0  0  0999 V3000
M  V30 BEGIN CTAB
M  V30 COUNTS 25 26 0 0 0
M  V30 BEGIN ATOM
M  V30 1 O 1.223254 -1.289647 3.589029 0
M  V30 2 C 0.807508 -0.336607 2.928170 0
M  V30 3 C 0.507294 -0.410869 1.505862 0
M  V30 4 C 0.682067 -1.540395 0.880191 0
M  V30 5 C 0.425065 -1.766024 -0.538280 0
M  V30 6 C 0.630892 -2.996717 -1.151663 0
M  V30 7 C 0.389397 -3.214327 -2.491544 0
M  V30 8 C -0.075120 -2.199173 -3.291671 0
M  V30 9 Cl -0.382015 -2.469679 -4.986930 0
M  V30 10 C -0.295209 -0.959784 -2.730710 0
M  V30 11 C -0.041237 -0.794040 -1.399833 0
M  V30 12 C 0.584644 1.006909 3.605996 0
M  V30 13 C 0.165657 2.207881 3.238068 0
M  V30 14 C 0.094920 3.195340 4.148613 0
M  V30 15 C 0.492660 2.851848 5.485265 0
M  V30 16 S 0.957324 1.023515 5.277952 0
M  V30 17 H 0.145096 0.441971 0.958084 0
M  V30 18 H 1.046632 -2.391949 1.440051 0
M  V30 19 H 0.995862 -3.830316 -0.567608 0
M  V30 20 H 0.566966 -4.185334 -2.908252 0
M  V30 21 H -0.655613 -0.187883 -3.370984 0
M  V30 22 H -0.234074 0.199751 -1.022532 0
M  V30 23 H -0.077633 2.228382 2.185439 0
M  V30 24 H -0.253854 4.168942 3.809931 0
M  V30 25 H 0.384964 3.843570 6.237318 0
M  V30 END ATOM
M  V30 BEGIN BOND
M  V30 1 2 1 2
M  V30 2 1 2 3
M  V30 3 2 3 4
M  V30 4 1 4 5
M  V30 5 2 5 6
M  V30 6 1 6 7
M  V30 7 2 7 8
M  V30 8 1 8 9
M  V30 9 1 8 10
M  V30 10 2 10 11
M  V30 11 1 2 12
M  V30 12 2 12 13
M  V30 13 1 13 14
M  V30 14 2 14 15
M  V30 15 1 15 16
M  V30 16 1 11 5
M  V30 17 1 16 12
M  V30 18 1 3 17
M  V30 19 1 4 18
M  V30 20 1 6 19
M  V30 21 1 7 20
M  V30 22 1 10 21
M  V30 23 1 11 22
M  V30 24 1 13 23
M  V30 25 1 14 24
M  V30 26 1 15 25
M  V30 END BOND
M  V30 END CTAB
M  END
>  <Dataset>  (748) 
ChEMBL_Kinases

>  <Ligand_Instance>  (748) 
nan

>  <PDB_ID>  (748) 
nan

>  <Standardized_SMILES>  (748) 
O=C(/C=C/c1ccc(Cl)cc1)c1cccs1

>  <Name>  (748) 
nan

>  <Pocket>  (748) 
nan

>  <ATP_Site>  (748) 
nan

>  <Peripheral>  (748) 
nan

>  <Num_H_Atoms_ProtBoundConf>  (748) 
nan

>  <Num_Resolved_Atoms>  (748) 
nan

>  <Num_Not_Resolved_Atoms>  (748) 
nan

$$$$
CHEMBL199108
     RDKit          3D

  0  0  0  0  0  0  0  0  0  0999 V3000
M  V30 BEGIN CTAB
M  V30 COUNTS 62 65 0 0 0
M  V30 BEGIN ATOM
M  V30 1 C 1.121536 0.279268 7.311017 0
M  V30 2 C 2.434517 0.306826 7.152083 0
M  V30 3 C 3.646169 0.121924 6.337323 0
M  V30 4 O 3.300718 -0.294550 5.076606 0
M  V30 5 C 2.470939 0.621004 4.393939 0
M  V30 6 C 2.227181 0.006655 3.048089 0
M  V30 7 O 1.614947 -1.242029 3.136317 0
M  V30 8 C 1.551461 0.890938 2.047042 0
M  V30 9 N 0.202314 1.189114 2.250907 0
M  V30 10 C -0.770372 0.191953 2.132972 0
M  V30 11 C -2.076927 0.820952 1.710123 0
M  V30 12 C -1.970066 1.412140 0.316291 0
M  V30 13 C -1.894943 0.282340 -0.634105 0
M  V30 14 C -2.943698 -0.341236 -1.310344 0
M  V30 15 C -2.437974 -1.349689 -2.111454 0
M  V30 16 C -3.071521 -2.301519 -3.008275 0
M  V30 17 C -2.943552 -3.605319 -2.563386 0
M  V30 18 C -3.473604 -4.663225 -3.273107 0
M  V30 19 N -4.134216 -4.398650 -4.436479 0
M  V30 20 C -4.259012 -3.126014 -4.870697 0
M  V30 21 C -3.740934 -2.047728 -4.184055 0
M  V30 22 C -1.061811 -1.358213 -1.937044 0
M  V30 23 C 0.020328 -2.186393 -2.507203 0
M  V30 24 C 0.927485 -2.975197 -1.852405 0
M  V30 25 C 1.854420 -3.662537 -2.602444 0
M  V30 26 C 1.858830 -3.551863 -3.972954 0
M  V30 27 F 2.797409 -4.257246 -4.626032 0
M  V30 28 C 0.953233 -2.761856 -4.653510 0
M  V30 29 C 0.021262 -2.070353 -3.903786 0
M  V30 30 N -0.792954 -0.364567 -1.045918 0
M  V30 31 C -0.788616 2.311176 0.278478 0
M  V30 32 C -0.149132 2.448341 1.634647 0
M  V30 33 H 0.227971 0.043886 6.730850 0
M  V30 34 H 0.222221 0.050417 6.752496 0
M  V30 35 H 2.694107 0.636045 8.151410 0
M  V30 36 H 4.302874 -0.655167 6.773833 0
M  V30 37 H 4.261455 1.069245 6.310040 0
M  V30 38 H 1.589101 0.895925 4.962967 0
M  V30 39 H 3.090470 1.547394 4.328346 0
M  V30 40 H 3.246063 -0.197222 2.636199 0
M  V30 41 H 1.600338 -1.709223 2.288839 0
M  V30 42 H 1.699809 0.397115 1.064040 0
M  V30 43 H 2.130053 1.838260 1.989489 0
M  V30 44 H -0.605463 -0.648426 1.463761 0
M  V30 45 H -1.002906 -0.197148 3.175858 0
M  V30 46 H -2.423936 1.564075 2.455210 0
M  V30 47 H -2.837861 0.006313 1.649247 0
M  V30 48 H -2.936282 1.954388 0.160321 0
M  V30 49 H -3.996911 -0.109257 -1.250936 0
M  V30 50 H -2.441703 -3.918553 -1.660112 0
M  V30 51 H -3.401027 -5.710848 -2.966873 0
M  V30 52 H -4.783747 -2.904671 -5.796358 0
M  V30 53 H -3.796078 -1.007448 -4.461549 0
M  V30 54 H 0.799639 -2.961853 -0.771392 0
M  V30 55 H 2.553706 -4.277523 -2.017117 0
M  V30 56 H 0.983880 -2.695004 -5.745183 0
M  V30 57 H -0.659464 -1.469420 -4.501904 0
M  V30 58 H 0.174895 -0.107755 -0.704901 0
M  V30 59 H 0.010228 1.951683 -0.415383 0
M  V30 60 H -1.081315 3.348032 -0.019567 0
M  V30 61 H -0.723572 3.107339 2.314118 0
M  V30 62 H 0.808856 3.012714 1.455323 0
M  V30 END ATOM
M  V30 BEGIN BOND
M  V30 1 2 1 2
M  V30 2 1 2 3
M  V30 3 1 3 4
M  V30 4 1 4 5
M  V30 5 1 5 6
M  V30 6 1 6 7
M  V30 7 1 6 8
M  V30 8 1 8 9
M  V30 9 1 9 10
M  V30 10 1 10 11
M  V30 11 1 11 12
M  V30 12 1 12 13
M  V30 13 2 13 14
M  V30 14 1 14 15
M  V30 15 1 15 16
M  V30 16 2 16 17
M  V30 17 1 17 18
M  V30 18 2 18 19
M  V30 19 1 19 20
M  V30 20 2 20 21
M  V30 21 2 15 22
M  V30 22 1 22 23
M  V30 23 2 23 24
M  V30 24 1 24 25
M  V30 25 2 25 26
M  V30 26 1 26 27
M  V30 27 1 26 28
M  V30 28 2 28 29
M  V30 29 1 22 30
M  V30 30 1 12 31
M  V30 31 1 31 32
M  V30 32 1 32 9
M  V30 33 1 30 13
M  V30 34 1 21 16
M  V30 35 1 29 23
M  V30 36 1 1 33
M  V30 37 1 1 34
M  V30 38 1 2 35
M  V30 39 1 3 36
M  V30 40 1 3 37
M  V30 41 1 5 38
M  V30 42 1 5 39
M  V30 43 1 6 40
M  V30 44 1 7 41
M  V30 45 1 8 42
M  V30 46 1 8 43
M  V30 47 1 10 44
M  V30 48 1 10 45
M  V30 49 1 11 46
M  V30 50 1 11 47
M  V30 51 1 12 48
M  V30 52 1 14 49
M  V30 53 1 17 50
M  V30 54 1 18 51
M  V30 55 1 20 52
M  V30 56 1 21 53
M  V30 57 1 24 54
M  V30 58 1 25 55
M  V30 59 1 28 56
M  V30 60 1 29 57
M  V30 61 1 30 58
M  V30 62 1 31 59
M  V30 63 1 31 60
M  V30 64 1 32 61
M  V30 65 1 32 62
M  V30 END BOND
M  V30 END CTAB
M  END
>  <Dataset>  (749) 
ChEMBL_Kinases

>  <Ligand_Instance>  (749) 
nan

>  <PDB_ID>  (749) 
nan

>  <Standardized_SMILES>  (749) 
C=CCOCC(O)CN1CCC(c2cc(-c3ccncc3)c(-c3ccc(F)cc3)[nH]2)CC1

>  <Name>  (749) 
nan

>  <Pocket>  (749) 
nan

>  <ATP_Site>  (749) 
nan

>  <Peripheral>  (749) 
nan

>  <Num_H_Atoms_ProtBoundConf>  (749) 
nan

>  <Num_Resolved_Atoms>  (749) 
nan

>  <Num_Not_Resolved_Atoms>  (749) 
nan

$$$$
CHEMBL198563
     RDKit          3D

  0  0  0  0  0  0  0  0  0  0999 V3000
M  V30 BEGIN CTAB
M  V30 COUNTS 43 45 0 0 0
M  V30 BEGIN ATOM
M  V30 1 O 2.832183 -0.229764 2.063553 0
M  V30 2 C 2.385717 -1.015135 1.185356 0
M  V30 3 N 3.044041 -1.026169 -0.068331 0
M  V30 4 C 4.188471 -0.216167 -0.449080 0
M  V30 5 C 3.711220 1.152318 -0.743667 0
M  V30 6 C 3.338970 1.285332 -2.086839 0
M  V30 7 C 2.864747 2.474244 -2.600754 0
M  V30 8 C 2.740439 3.594225 -1.786624 0
M  V30 9 C 3.112009 3.438745 -0.472308 0
M  V30 10 C 3.000702 4.602518 0.446643 0
M  V30 11 F 4.004154 5.491933 0.134081 0
M  V30 12 F 3.054020 4.231664 1.774308 0
M  V30 13 F 1.783318 5.215112 0.163547 0
M  V30 14 C 3.590066 2.257707 0.066207 0
M  V30 15 C 1.236203 -1.874083 1.458896 0
M  V30 16 C 0.665052 -2.754422 0.550016 0
M  V30 17 C -0.419059 -3.492668 0.969590 0
M  V30 18 C -0.967018 -3.409585 2.231042 0
M  V30 19 O -2.080597 -4.202382 2.580458 0
M  V30 20 C -3.317306 -3.569563 2.326809 0
M  V30 21 C -4.083561 -3.598603 1.184744 0
M  V30 22 C -5.264862 -2.892787 1.178773 0
M  V30 23 C -5.678989 -2.169884 2.288324 0
M  V30 24 C -4.901801 -2.148012 3.429278 0
M  V30 25 C -3.705567 -2.857768 3.446945 0
M  V30 26 C -0.420071 -2.543022 3.156017 0
M  V30 27 C 0.665751 -1.803669 2.735343 0
M  V30 28 H 2.719376 -1.664702 -0.846843 0
M  V30 29 H 4.867269 -0.126889 0.445838 0
M  V30 30 H 4.782325 -0.651040 -1.249470 0
M  V30 31 H 3.380412 0.502459 -2.838594 0
M  V30 32 H 2.567928 2.614593 -3.631369 0
M  V30 33 H 2.375863 4.558324 -2.123207 0
M  V30 34 H 3.893522 2.079191 1.067196 0
M  V30 35 H 1.100783 -2.813888 -0.437161 0
M  V30 36 H -0.814842 -4.158630 0.209982 0
M  V30 37 H -3.651839 -4.195210 0.394235 0
M  V30 38 H -5.840147 -2.949586 0.239660 0
M  V30 39 H -6.621976 -1.636966 2.211207 0
M  V30 40 H -5.272485 -1.564794 4.273112 0
M  V30 41 H -3.189801 -2.762743 4.392307 0
M  V30 42 H -0.807212 -2.437060 4.157336 0
M  V30 43 H 1.107559 -1.112553 3.462237 0
M  V30 END ATOM
M  V30 BEGIN BOND
M  V30 1 2 1 2
M  V30 2 1 2 3
M  V30 3 1 3 4
M  V30 4 1 4 5
M  V30 5 2 5 6
M  V30 6 1 6 7
M  V30 7 2 7 8
M  V30 8 1 8 9
M  V30 9 1 9 10
M  V30 10 1 10 11
M  V30 11 1 10 12
M  V30 12 1 10 13
M  V30 13 2 9 14
M  V30 14 1 2 15
M  V30 15 2 15 16
M  V30 16 1 16 17
M  V30 17 2 17 18
M  V30 18 1 18 19
M  V30 19 1 19 20
M  V30 20 2 20 21
M  V30 21 1 21 22
M  V30 22 2 22 23
M  V30 23 1 23 24
M  V30 24 2 24 25
M  V30 25 1 18 26
M  V30 26 2 26 27
M  V30 27 1 14 5
M  V30 28 1 27 15
M  V30 29 1 25 20
M  V30 30 1 3 28
M  V30 31 1 4 29
M  V30 32 1 4 30
M  V30 33 1 6 31
M  V30 34 1 7 32
M  V30 35 1 8 33
M  V30 36 1 14 34
M  V30 37 1 16 35
M  V30 38 1 17 36
M  V30 39 1 21 37
M  V30 40 1 22 38
M  V30 41 1 23 39
M  V30 42 1 24 40
M  V30 43 1 25 41
M  V30 44 1 26 42
M  V30 45 1 27 43
M  V30 END BOND
M  V30 END CTAB
M  END
>  <Dataset>  (750) 
ChEMBL_Kinases

>  <Ligand_Instance>  (750) 
nan

>  <PDB_ID>  (750) 
nan

>  <Standardized_SMILES>  (750) 
O=C(NCc1cccc(C(F)(F)F)c1)c1ccc(Oc2ccccc2)cc1

>  <Name>  (750) 
nan

>  <Pocket>  (750) 
nan

>  <ATP_Site>  (750) 
nan

>  <Peripheral>  (750) 
nan

>  <Num_H_Atoms_ProtBoundConf>  (750) 
nan

>  <Num_Resolved_Atoms>  (750) 
nan

>  <Num_Not_Resolved_Atoms>  (750) 
nan

$$$$
CHEMBL198581
     RDKit          3D

  0  0  0  0  0  0  0  0  0  0999 V3000
M  V30 BEGIN CTAB
M  V30 COUNTS 53 56 0 0 0
M  V30 BEGIN ATOM
M  V30 1 N 1.098671 -6.386538 3.151161 0
M  V30 2 C 1.405137 -5.319586 2.826911 0
M  V30 3 C 1.773867 -4.005832 2.413051 0
M  V30 4 C 2.886395 -3.414710 2.967947 0
M  V30 5 N 3.247391 -2.176939 2.589056 0
M  V30 6 C 2.550335 -1.487619 1.674965 0
M  V30 7 C 2.911661 -0.215230 1.276948 0
M  V30 8 N 2.183922 0.440535 0.355819 0
M  V30 9 C 1.094872 -0.046231 -0.236835 0
M  V30 10 N 0.324747 0.631511 -1.202365 0
M  V30 11 C 0.644047 1.971096 -1.651983 0
M  V30 12 C 0.600798 2.966564 -0.482252 0
M  V30 13 C -0.789432 2.917051 0.063947 0
M  V30 14 N -1.102244 3.744641 1.158744 0
M  V30 15 C -0.479907 3.433095 2.403771 0
M  V30 16 C -1.149357 2.209666 2.981626 0
M  V30 17 O -2.452464 2.550471 3.278493 0
M  V30 18 C -3.193516 2.930362 2.180317 0
M  V30 19 C -2.522084 3.892407 1.267740 0
M  V30 20 C 0.749587 -1.316416 0.172798 0
M  V30 21 C 1.441642 -2.054229 1.109867 0
M  V30 22 C 1.019834 -3.322750 1.457736 0
M  V30 23 N -0.122213 -3.892822 0.867586 0
M  V30 24 C -0.450712 -4.669125 -0.272701 0
M  V30 25 C -1.764871 -5.039409 -0.434263 0
M  V30 26 C -2.013708 -5.789603 -1.565048 0
M  V30 27 C -1.058354 -6.152300 -2.469515 0
M  V30 28 F -1.394982 -6.892926 -3.556724 0
M  V30 29 C 0.254620 -5.770580 -2.289170 0
M  V30 30 Cl 1.463831 -6.232253 -3.440649 0
M  V30 31 C 0.526790 -5.018531 -1.163199 0
M  V30 32 H 3.475266 -3.938003 3.708450 0
M  V30 33 H 3.796274 0.246136 1.723167 0
M  V30 34 H -0.506124 0.169254 -1.617695 0
M  V30 35 H 0.023683 2.297561 -2.485707 0
M  V30 36 H 1.709885 1.946714 -2.004404 0
M  V30 37 H 1.384870 2.670712 0.206460 0
M  V30 38 H 0.738578 3.963729 -0.964307 0
M  V30 39 H -1.029711 1.852063 0.287719 0
M  V30 40 H -1.494717 3.180169 -0.767802 0
M  V30 41 H 0.599853 3.404991 2.363554 0
M  V30 42 H -0.749001 4.267491 3.116638 0
M  V30 43 H -0.680701 1.931896 3.968715 0
M  V30 44 H -1.118281 1.381122 2.269267 0
M  V30 45 H -4.151646 3.360741 2.534789 0
M  V30 46 H -3.453311 2.000782 1.623427 0
M  V30 47 H -2.960413 3.799779 0.253643 0
M  V30 48 H -2.754827 4.925479 1.605079 0
M  V30 49 H -0.127857 -1.799388 -0.255432 0
M  V30 50 H -0.813209 -3.571581 1.565396 0
M  V30 51 H -2.512663 -4.748603 0.284894 0
M  V30 52 H -3.028296 -6.116644 -1.756179 0
M  V30 53 H 1.554108 -4.722152 -1.025848 0
M  V30 END ATOM
M  V30 BEGIN BOND
M  V30 1 3 1 2
M  V30 2 1 2 3
M  V30 3 2 3 4
M  V30 4 1 4 5
M  V30 5 2 5 6
M  V30 6 1 6 7
M  V30 7 2 7 8
M  V30 8 1 8 9
M  V30 9 1 9 10
M  V30 10 1 10 11
M  V30 11 1 11 12
M  V30 12 1 12 13
M  V30 13 1 13 14
M  V30 14 1 14 15
M  V30 15 1 15 16
M  V30 16 1 16 17
M  V30 17 1 17 18
M  V30 18 1 18 19
M  V30 19 2 9 20
M  V30 20 1 20 21
M  V30 21 2 21 22
M  V30 22 1 22 23
M  V30 23 1 23 24
M  V30 24 2 24 25
M  V30 25 1 25 26
M  V30 26 2 26 27
M  V30 27 1 27 28
M  V30 28 1 27 29
M  V30 29 1 29 30
M  V30 30 2 29 31
M  V30 31 1 22 3
M  V30 32 1 31 24
M  V30 33 1 21 6
M  V30 34 1 19 14
M  V30 35 1 4 32
M  V30 36 1 7 33
M  V30 37 1 10 34
M  V30 38 1 11 35
M  V30 39 1 11 36
M  V30 40 1 12 37
M  V30 41 1 12 38
M  V30 42 1 13 39
M  V30 43 1 13 40
M  V30 44 1 15 41
M  V30 45 1 15 42
M  V30 46 1 16 43
M  V30 47 1 16 44
M  V30 48 1 18 45
M  V30 49 1 18 46
M  V30 50 1 19 47
M  V30 51 1 19 48
M  V30 52 1 20 49
M  V30 53 1 23 50
M  V30 54 1 25 51
M  V30 55 1 26 52
M  V30 56 1 31 53
M  V30 END BOND
M  V30 END CTAB
M  END
>  <Dataset>  (751) 
ChEMBL_Kinases

>  <Ligand_Instance>  (751) 
nan

>  <PDB_ID>  (751) 
nan

>  <Standardized_SMILES>  (751) 
N#Cc1cnc2cnc(NCCCN3CCOCC3)cc2c1Nc1ccc(F)c(Cl)c1

>  <Name>  (751) 
nan

>  <Pocket>  (751) 
nan

>  <ATP_Site>  (751) 
nan

>  <Peripheral>  (751) 
nan

>  <Num_H_Atoms_ProtBoundConf>  (751) 
nan

>  <Num_Resolved_Atoms>  (751) 
nan

>  <Num_Not_Resolved_Atoms>  (751) 
nan

$$$$
CHEMBL1986284
     RDKit          3D

  0  0  0  0  0  0  0  0  0  0999 V3000
M  V30 BEGIN CTAB
M  V30 COUNTS 56 59 0 0 0
M  V30 BEGIN ATOM
M  V30 1 C 3.776563 -2.319281 5.068521 0
M  V30 2 C 4.140612 -2.080244 3.651696 0
M  V30 3 C 4.928740 -2.986254 2.938469 0
M  V30 4 C 5.246111 -2.716667 1.622959 0
M  V30 5 C 6.083979 -3.655459 0.820298 0
M  V30 6 N 4.775679 -1.581099 1.085324 0
M  V30 7 C 4.013104 -0.681846 1.738263 0
M  V30 8 N 3.575348 0.501894 1.066918 0
M  V30 9 N 2.442226 -0.003791 0.430716 0
M  V30 10 C 1.284361 0.508008 0.614747 0
M  V30 11 C 0.155990 -0.085186 -0.092878 0
M  V30 12 C -1.133974 0.299175 -0.041947 0
M  V30 13 N -1.702709 1.385810 0.725011 0
M  V30 14 C -1.569928 2.741893 0.247146 0
M  V30 15 C -1.500884 3.669614 1.451349 0
M  V30 16 O -1.001608 2.959724 2.568169 0
M  V30 17 C -1.977551 2.083992 3.023923 0
M  V30 18 C -2.405494 1.111393 1.972207 0
M  V30 19 C -1.986145 -0.535316 -0.923116 0
M  V30 20 C -3.132887 -0.293386 -1.513380 0
M  V30 21 C -3.829292 -1.255146 -2.355122 0
M  V30 22 C -4.462674 -0.865944 -3.526692 0
M  V30 23 C -5.134022 -1.740588 -4.350906 0
M  V30 24 C -5.202504 -3.080475 -4.029228 0
M  V30 25 C -4.585965 -3.542744 -2.861546 0
M  V30 26 C -3.936998 -2.603485 -2.094683 0
M  V30 27 C -1.205273 -1.810072 -1.028463 0
M  V30 28 C 0.219771 -1.272521 -1.027534 0
M  V30 29 N 3.731729 -0.989667 3.015790 0
M  V30 30 H 4.108978 -1.486303 5.724204 0
M  V30 31 H 2.686225 -2.479956 5.166164 0
M  V30 32 H 4.284251 -3.234616 5.396240 0
M  V30 33 H 5.291928 -3.893395 3.401640 0
M  V30 34 H 6.999572 -3.163895 0.458438 0
M  V30 35 H 5.466543 -3.894405 -0.090639 0
M  V30 36 H 6.259644 -4.601153 1.385677 0
M  V30 37 H 4.176040 1.340322 1.227525 0
M  V30 38 H 1.108017 1.345866 1.262084 0
M  V30 39 H -2.530445 3.017704 -0.273644 0
M  V30 40 H -0.745207 2.893004 -0.445782 0
M  V30 41 H -0.763307 4.497754 1.298080 0
M  V30 42 H -2.466447 4.161311 1.679634 0
M  V30 43 H -2.851445 2.655700 3.409584 0
M  V30 44 H -1.554427 1.515266 3.877935 0
M  V30 45 H -3.519814 1.183075 1.838984 0
M  V30 46 H -2.175345 0.049149 2.281459 0
M  V30 47 H -3.538888 0.692384 -1.332402 0
M  V30 48 H -4.459202 0.165244 -3.856188 0
M  V30 49 H -5.635106 -1.490298 -5.260931 0
M  V30 50 H -5.714023 -3.819216 -4.632555 0
M  V30 51 H -4.624603 -4.586910 -2.585696 0
M  V30 52 H -3.476670 -2.993907 -1.197814 0
M  V30 53 H -1.335693 -2.314117 -2.004298 0
M  V30 54 H -1.398326 -2.445415 -0.146051 0
M  V30 55 H 0.864304 -2.078295 -0.625498 0
M  V30 56 H 0.560644 -1.003094 -2.029320 0
M  V30 END ATOM
M  V30 BEGIN BOND
M  V30 1 1 1 2
M  V30 2 2 2 3
M  V30 3 1 3 4
M  V30 4 1 4 5
M  V30 5 2 4 6
M  V30 6 1 6 7
M  V30 7 1 7 8
M  V30 8 1 8 9
M  V30 9 2 9 10
M  V30 10 1 10 11
M  V30 11 2 11 12
M  V30 12 1 12 13
M  V30 13 1 13 14
M  V30 14 1 14 15
M  V30 15 1 15 16
M  V30 16 1 16 17
M  V30 17 1 17 18
M  V30 18 1 12 19
M  V30 19 2 19 20
M  V30 20 1 20 21
M  V30 21 2 21 22
M  V30 22 1 22 23
M  V30 23 2 23 24
M  V30 24 1 24 25
M  V30 25 2 25 26
M  V30 26 1 19 27
M  V30 27 1 27 28
M  V30 28 2 7 29
M  V30 29 1 29 2
M  V30 30 1 28 11
M  V30 31 1 18 13
M  V30 32 1 26 21
M  V30 33 1 1 30
M  V30 34 1 1 31
M  V30 35 1 1 32
M  V30 36 1 3 33
M  V30 37 1 5 34
M  V30 38 1 5 35
M  V30 39 1 5 36
M  V30 40 1 8 37
M  V30 41 1 10 38
M  V30 42 1 14 39
M  V30 43 1 14 40
M  V30 44 1 15 41
M  V30 45 1 15 42
M  V30 46 1 17 43
M  V30 47 1 17 44
M  V30 48 1 18 45
M  V30 49 1 18 46
M  V30 50 1 20 47
M  V30 51 1 22 48
M  V30 52 1 23 49
M  V30 53 1 24 50
M  V30 54 1 25 51
M  V30 55 1 26 52
M  V30 56 1 27 53
M  V30 57 1 27 54
M  V30 58 1 28 55
M  V30 59 1 28 56
M  V30 END BOND
M  V30 END CTAB
M  END
>  <Dataset>  (752) 
ChEMBL_Kinases

>  <Ligand_Instance>  (752) 
nan

>  <PDB_ID>  (752) 
nan

>  <Standardized_SMILES>  (752) 
Cc1cc(C)nc(N/N=C/C2=C(N3CCOCC3)/C(=C/c3ccccc3)CC2)n1

>  <Name>  (752) 
nan

>  <Pocket>  (752) 
nan

>  <ATP_Site>  (752) 
nan

>  <Peripheral>  (752) 
nan

>  <Num_H_Atoms_ProtBoundConf>  (752) 
nan

>  <Num_Resolved_Atoms>  (752) 
nan

>  <Num_Not_Resolved_Atoms>  (752) 
nan

$$$$
CHEMBL1986658
     RDKit          3D

  0  0  0  0  0  0  0  0  0  0999 V3000
M  V30 BEGIN CTAB
M  V30 COUNTS 49 52 0 0 0
M  V30 BEGIN ATOM
M  V30 1 N 1.117666 -2.302942 1.465193 0
M  V30 2 C 2.463655 -2.704017 1.637583 0
M  V30 3 N 2.397175 -4.112765 2.017761 0
M  V30 4 S 4.212586 -4.443403 2.193473 0
M  V30 5 C 4.824330 -2.748993 1.761577 0
M  V30 6 C 6.052337 -2.231098 1.679358 0
M  V30 7 C 6.171575 -0.908987 1.325810 0
M  V30 8 C 5.000348 -0.227544 1.084686 0
M  V30 9 C 3.709104 -0.695671 1.150346 0
M  V30 10 C 2.558902 0.147053 0.865389 0
M  V30 11 O 1.867723 0.092096 -0.186669 0
M  V30 12 N 2.115444 1.136352 1.798720 0
M  V30 13 C 0.981266 1.891400 1.397533 0
M  V30 14 C 1.311664 3.034494 0.694738 0
M  V30 15 C 0.307319 3.883594 0.233043 0
M  V30 16 C -1.000301 3.535374 0.505893 0
M  V30 17 C -1.284571 2.370653 1.219551 0
M  V30 18 C -2.718052 2.131291 1.434753 0
M  V30 19 N -3.354523 1.355302 0.387439 0
M  V30 20 C -3.238717 -0.032092 0.209923 0
M  V30 21 O -2.547126 -0.751073 0.973467 0
M  V30 22 N -3.897390 -0.725481 -0.848839 0
M  V30 23 C -3.629231 -2.131349 -0.821933 0
M  V30 24 C -4.575174 -2.786598 -0.045096 0
M  V30 25 C -4.525770 -4.174119 0.135445 0
M  V30 26 C -3.485029 -4.852415 -0.501776 0
M  V30 27 C -2.552653 -4.186637 -1.270840 0
M  V30 28 F -1.534396 -4.827972 -1.899348 0
M  V30 29 C -2.607421 -2.818627 -1.444478 0
M  V30 30 C -0.300698 1.533755 1.674467 0
M  V30 31 C 3.616612 -2.004157 1.501659 0
M  V30 32 H 0.572530 -2.012138 2.318054 0
M  V30 33 H 0.724227 -2.314355 0.483339 0
M  V30 34 H 6.891709 -2.874379 1.894547 0
M  V30 35 H 7.141664 -0.453376 1.248645 0
M  V30 36 H 5.129582 0.825866 0.803520 0
M  V30 37 H 2.678065 1.203490 2.691284 0
M  V30 38 H 2.324305 3.344938 0.459506 0
M  V30 39 H 0.542609 4.783466 -0.320349 0
M  V30 40 H -1.766228 4.221050 0.131842 0
M  V30 41 H -3.255459 3.071123 1.627390 0
M  V30 42 H -2.856724 1.516345 2.371440 0
M  V30 43 H -3.961383 1.848796 -0.315363 0
M  V30 44 H -4.485717 -0.164985 -1.512191 0
M  V30 45 H -5.408736 -2.348180 0.482650 0
M  V30 46 H -5.239309 -4.730193 0.730810 0
M  V30 47 H -3.425624 -5.928299 -0.376966 0
M  V30 48 H -1.940096 -2.191912 -2.017111 0
M  V30 49 H -0.529169 0.649866 2.215724 0
M  V30 END ATOM
M  V30 BEGIN BOND
M  V30 1 1 1 2
M  V30 2 2 2 3
M  V30 3 1 3 4
M  V30 4 1 4 5
M  V30 5 2 5 6
M  V30 6 1 6 7
M  V30 7 2 7 8
M  V30 8 1 8 9
M  V30 9 1 9 10
M  V30 10 2 10 11
M  V30 11 1 10 12
M  V30 12 1 12 13
M  V30 13 2 13 14
M  V30 14 1 14 15
M  V30 15 2 15 16
M  V30 16 1 16 17
M  V30 17 1 17 18
M  V30 18 1 18 19
M  V30 19 1 19 20
M  V30 20 2 20 21
M  V30 21 1 20 22
M  V30 22 1 22 23
M  V30 23 2 23 24
M  V30 24 1 24 25
M  V30 25 2 25 26
M  V30 26 1 26 27
M  V30 27 1 27 28
M  V30 28 2 27 29
M  V30 29 2 17 30
M  V30 30 2 9 31
M  V30 31 1 31 2
M  V30 32 1 31 5
M  V30 33 1 30 13
M  V30 34 1 29 23
M  V30 35 1 1 32
M  V30 36 1 1 33
M  V30 37 1 6 34
M  V30 38 1 7 35
M  V30 39 1 8 36
M  V30 40 1 12 37
M  V30 41 1 14 38
M  V30 42 1 15 39
M  V30 43 1 16 40
M  V30 44 1 18 41
M  V30 45 1 18 42
M  V30 46 1 19 43
M  V30 47 1 22 44
M  V30 48 1 24 45
M  V30 49 1 25 46
M  V30 50 1 26 47
M  V30 51 1 29 48
M  V30 52 1 30 49
M  V30 END BOND
M  V30 END CTAB
M  END
>  <Dataset>  (753) 
ChEMBL_Kinases

>  <Ligand_Instance>  (753) 
nan

>  <PDB_ID>  (753) 
nan

>  <Standardized_SMILES>  (753) 
Nc1nsc2cccc(C(=O)Nc3cccc(CNC(=O)Nc4cccc(F)c4)c3)c12

>  <Name>  (753) 
nan

>  <Pocket>  (753) 
nan

>  <ATP_Site>  (753) 
nan

>  <Peripheral>  (753) 
nan

>  <Num_H_Atoms_ProtBoundConf>  (753) 
nan

>  <Num_Resolved_Atoms>  (753) 
nan

>  <Num_Not_Resolved_Atoms>  (753) 
nan

$$$$
CHEMBL198707
     RDKit          3D

  0  0  0  0  0  0  0  0  0  0999 V3000
M  V30 BEGIN CTAB
M  V30 COUNTS 60 63 0 0 0
M  V30 BEGIN ATOM
M  V30 1 O 0.507133 -0.700495 6.901742 0
M  V30 2 C 1.250791 -1.336742 5.918286 0
M  V30 3 C 1.185827 -0.583850 4.619084 0
M  V30 4 C 1.985005 -1.243725 3.513112 0
M  V30 5 C 1.822212 -0.375827 2.273162 0
M  V30 6 C 2.590042 -0.964815 1.109797 0
M  V30 7 N 2.467515 -0.194832 -0.070250 0
M  V30 8 C 3.075424 1.086160 -0.101836 0
M  V30 9 C 2.262320 1.966975 -1.057964 0
M  V30 10 C 1.684649 1.208674 -2.193362 0
M  V30 11 C 0.423193 0.488435 -1.817524 0
M  V30 12 C -0.206296 0.552142 -0.584528 0
M  V30 13 C -1.340713 -0.271026 -0.585554 0
M  V30 14 C -2.204199 -0.406733 0.591108 0
M  V30 15 C -2.338497 -1.630692 1.212173 0
M  V30 16 C -3.110621 -1.885646 2.324268 0
M  V30 17 N -3.805624 -0.839628 2.863310 0
M  V30 18 C -3.689705 0.365160 2.273365 0
M  V30 19 C -2.922071 0.638165 1.160550 0
M  V30 20 C -1.358455 -0.818848 -1.855668 0
M  V30 21 C -2.421234 -1.746013 -2.215573 0
M  V30 22 C -3.776771 -1.523485 -2.294698 0
M  V30 23 C -4.632623 -2.540528 -2.655606 0
M  V30 24 C -4.110225 -3.785660 -2.937099 0
M  V30 25 F -5.003564 -4.762663 -3.291432 0
M  V30 26 C -2.753360 -4.052627 -2.870212 0
M  V30 27 C -1.912474 -3.014587 -2.504758 0
M  V30 28 N -0.298954 -0.347630 -2.560807 0
M  V30 29 C 2.680303 0.060420 -2.485324 0
M  V30 30 C 2.594931 -0.881674 -1.313239 0
M  V30 31 H -0.460706 -0.849602 6.801413 0
M  V30 32 H 2.296555 -1.503945 6.245382 0
M  V30 33 H 0.802079 -2.358350 5.788444 0
M  V30 34 H 0.136360 -0.500843 4.271590 0
M  V30 35 H 1.547840 0.440287 4.805275 0
M  V30 36 H 1.691137 -2.291445 3.356947 0
M  V30 37 H 3.058065 -1.249570 3.777994 0
M  V30 38 H 0.755379 -0.268581 2.069937 0
M  V30 39 H 2.274517 0.600808 2.522264 0
M  V30 40 H 3.657890 -1.118009 1.354077 0
M  V30 41 H 2.168119 -1.978668 0.908049 0
M  V30 42 H 4.146543 1.071972 -0.404658 0
M  V30 43 H 3.037525 1.541311 0.891463 0
M  V30 44 H 2.933919 2.779843 -1.436216 0
M  V30 45 H 1.514675 2.482506 -0.427254 0
M  V30 46 H 1.601175 1.739095 -3.155080 0
M  V30 47 H 0.099073 1.144126 0.263437 0
M  V30 48 H -1.783989 -2.470173 0.785877 0
M  V30 49 H -3.142392 -2.898430 2.732951 0
M  V30 50 H -4.266887 1.179461 2.739839 0
M  V30 51 H -2.842023 1.606376 0.704849 0
M  V30 52 H -4.003520 -0.498091 -2.042054 0
M  V30 53 H -5.676664 -2.270474 -2.689829 0
M  V30 54 H -2.444960 -5.060062 -3.109430 0
M  V30 55 H -0.866518 -3.340485 -2.485461 0
M  V30 56 H -0.106397 -0.621913 -3.544823 0
M  V30 57 H 3.692876 0.445956 -2.683541 0
M  V30 58 H 2.296077 -0.484684 -3.378570 0
M  V30 59 H 3.496834 -1.525206 -1.271567 0
M  V30 60 H 1.700133 -1.546579 -1.490957 0
M  V30 END ATOM
M  V30 BEGIN BOND
M  V30 1 1 1 2
M  V30 2 1 2 3
M  V30 3 1 3 4
M  V30 4 1 4 5
M  V30 5 1 5 6
M  V30 6 1 6 7
M  V30 7 1 7 8
M  V30 8 1 8 9
M  V30 9 1 9 10
M  V30 10 1 10 11
M  V30 11 2 11 12
M  V30 12 1 12 13
M  V30 13 1 13 14
M  V30 14 2 14 15
M  V30 15 1 15 16
M  V30 16 2 16 17
M  V30 17 1 17 18
M  V30 18 2 18 19
M  V30 19 2 13 20
M  V30 20 1 20 21
M  V30 21 2 21 22
M  V30 22 1 22 23
M  V30 23 2 23 24
M  V30 24 1 24 25
M  V30 25 1 24 26
M  V30 26 2 26 27
M  V30 27 1 20 28
M  V30 28 1 10 29
M  V30 29 1 29 30
M  V30 30 1 30 7
M  V30 31 1 28 11
M  V30 32 1 19 14
M  V30 33 1 27 21
M  V30 34 1 1 31
M  V30 35 1 2 32
M  V30 36 1 2 33
M  V30 37 1 3 34
M  V30 38 1 3 35
M  V30 39 1 4 36
M  V30 40 1 4 37
M  V30 41 1 5 38
M  V30 42 1 5 39
M  V30 43 1 6 40
M  V30 44 1 6 41
M  V30 45 1 8 42
M  V30 46 1 8 43
M  V30 47 1 9 44
M  V30 48 1 9 45
M  V30 49 1 10 46
M  V30 50 1 12 47
M  V30 51 1 15 48
M  V30 52 1 16 49
M  V30 53 1 18 50
M  V30 54 1 19 51
M  V30 55 1 22 52
M  V30 56 1 23 53
M  V30 57 1 26 54
M  V30 58 1 27 55
M  V30 59 1 28 56
M  V30 60 1 29 57
M  V30 61 1 29 58
M  V30 62 1 30 59
M  V30 63 1 30 60
M  V30 END BOND
M  V30 END CTAB
M  END
>  <Dataset>  (754) 
ChEMBL_Kinases

>  <Ligand_Instance>  (754) 
nan

>  <PDB_ID>  (754) 
nan

>  <Standardized_SMILES>  (754) 
OCCCCCN1CCC(c2cc(-c3ccncc3)c(-c3ccc(F)cc3)[nH]2)CC1

>  <Name>  (754) 
nan

>  <Pocket>  (754) 
nan

>  <ATP_Site>  (754) 
nan

>  <Peripheral>  (754) 
nan

>  <Num_H_Atoms_ProtBoundConf>  (754) 
nan

>  <Num_Resolved_Atoms>  (754) 
nan

>  <Num_Not_Resolved_Atoms>  (754) 
nan

$$$$
CHEMBL1987813
     RDKit          3D

  0  0  0  0  0  0  0  0  0  0999 V3000
M  V30 BEGIN CTAB
M  V30 COUNTS 33 35 0 0 0
M  V30 BEGIN ATOM
M  V30 1 O 1.039675 1.288811 2.452129 0
M  V30 2 C 0.518992 0.709251 1.463493 0
M  V30 3 C -0.045423 -0.614523 1.709684 0
M  V30 4 C -0.605664 -1.279387 0.724107 0
M  V30 5 C -0.676734 -0.719893 -0.620828 0
M  V30 6 O -1.196437 -1.283204 -1.636370 0
M  V30 7 C -0.123139 0.615688 -0.932724 0
M  V30 8 C -0.166140 1.187929 -2.189317 0
M  V30 9 O -0.770207 0.448943 -3.210032 0
M  V30 10 C 0.366593 2.433358 -2.414055 0
M  V30 11 C 0.948710 3.104643 -1.353005 0
M  V30 12 C 1.006725 2.557408 -0.083613 0
M  V30 13 O 1.581831 3.197240 1.008916 0
M  V30 14 C 0.463133 1.289595 0.140023 0
M  V30 15 C -1.235015 -2.642571 0.784663 0 CFG=1
M  V30 16 O -0.758255 -3.450597 -0.249554 0
M  V30 17 C -0.961072 -3.342802 2.065937 0 CFG=1
M  V30 18 O -0.865122 -4.714687 1.839953 0
M  V30 19 C 0.326909 -2.773986 2.672969 0 CFG=1
M  V30 20 O 1.308616 -2.688256 1.686647 0
M  V30 21 C -0.058005 -1.331408 3.017648 0
M  V30 22 H -1.676773 0.704638 -3.556849 0
M  V30 23 H 0.331592 2.887031 -3.413974 0
M  V30 24 H 1.377390 4.089174 -1.500454 0
M  V30 25 H 1.620694 4.210139 1.051154 0
M  V30 26 H -2.338933 -2.521108 0.579456 0
M  V30 27 H 0.107558 -3.070415 -0.532562 0
M  V30 28 H -1.775486 -3.210927 2.816188 0
M  V30 29 H 0.087264 -4.985167 1.712560 0
M  V30 30 H 0.643462 -3.349585 3.562018 0
M  V30 31 H 1.863498 -3.496032 1.631801 0
M  V30 32 H -1.070888 -1.305469 3.475724 0
M  V30 33 H 0.671629 -0.925903 3.733377 0
M  V30 END ATOM
M  V30 BEGIN BOND
M  V30 1 2 1 2
M  V30 2 1 2 3
M  V30 3 2 3 4
M  V30 4 1 4 5
M  V30 5 2 5 6
M  V30 6 1 5 7
M  V30 7 2 7 8
M  V30 8 1 8 9
M  V30 9 1 8 10
M  V30 10 2 10 11
M  V30 11 1 11 12
M  V30 12 1 12 13
M  V30 13 2 12 14
M  V30 14 1 4 15
M  V30 15 1 15 16
M  V30 16 1 15 17
M  V30 17 1 17 18
M  V30 18 1 17 19
M  V30 19 1 19 20
M  V30 20 1 19 21
M  V30 21 1 14 2
M  V30 22 1 21 3
M  V30 23 1 14 7
M  V30 24 1 9 22
M  V30 25 1 10 23
M  V30 26 1 11 24
M  V30 27 1 13 25
M  V30 28 1 15 26 CFG=3
M  V30 29 1 16 27
M  V30 30 1 17 28 CFG=1
M  V30 31 1 18 29
M  V30 32 1 19 30 CFG=1
M  V30 33 1 20 31
M  V30 34 1 21 32
M  V30 35 1 21 33
M  V30 END BOND
M  V30 END CTAB
M  END
>  <Dataset>  (755) 
ChEMBL_Kinases

>  <Ligand_Instance>  (755) 
nan

>  <PDB_ID>  (755) 
nan

>  <Standardized_SMILES>  (755) 
O=C1C2=C(C(=O)c3c(O)ccc(O)c31)[C@@H](O)[C@@H](O)[C@@H](O)C2

>  <Name>  (755) 
nan

>  <Pocket>  (755) 
nan

>  <ATP_Site>  (755) 
nan

>  <Peripheral>  (755) 
nan

>  <Num_H_Atoms_ProtBoundConf>  (755) 
nan

>  <Num_Resolved_Atoms>  (755) 
nan

>  <Num_Not_Resolved_Atoms>  (755) 
nan

$$$$
CHEMBL1988153
     RDKit          3D

  0  0  0  0  0  0  0  0  0  0999 V3000
M  V30 BEGIN CTAB
M  V30 COUNTS 36 39 0 0 0
M  V30 BEGIN ATOM
M  V30 1 C 0.986569 -6.035326 4.277880 0
M  V30 2 C 0.842735 -5.043763 3.172841 0
M  V30 3 N 0.021961 -5.108577 2.085240 0
M  V30 4 N 0.271088 -3.980153 1.404416 0
M  V30 5 C 1.186949 -3.262080 2.029230 0
M  V30 6 C 1.749244 -1.961920 1.629346 0
M  V30 7 C 1.485644 -1.153663 0.524108 0
M  V30 8 C 2.179574 0.004166 0.438288 0
M  V30 9 C 2.054220 0.919546 -0.576735 0
M  V30 10 O 1.268340 0.946586 -1.700436 0
M  V30 11 C -0.103850 0.944997 -1.594365 0
M  V30 12 C -0.493570 2.269977 -1.340984 0
M  V30 13 C -1.843044 2.616707 -1.179063 0
M  V30 14 C -2.827054 1.655197 -1.265848 0
M  V30 15 C -4.266166 1.969204 -1.102303 0
M  V30 16 F -4.597742 2.116128 0.246299 0
M  V30 17 F -4.586217 3.162897 -1.732402 0
M  V30 18 F -5.002503 0.937783 -1.620492 0
M  V30 19 C -2.430174 0.357853 -1.515388 0
M  V30 20 C -1.109382 0.006994 -1.676050 0
M  V30 21 C 2.849050 2.053804 -0.506647 0
M  V30 22 N 3.744278 2.371586 0.453549 0
M  V30 23 C 3.884290 1.499998 1.449695 0
M  V30 24 C 3.101574 0.329785 1.429158 0
M  V30 25 S 2.990505 -1.087926 2.566665 0
M  V30 26 O 1.528258 -3.919130 3.105158 0
M  V30 27 H 2.013931 -5.972720 4.673531 0
M  V30 28 H 0.875484 -7.065691 3.864514 0
M  V30 29 H 0.215803 -5.944659 5.055441 0
M  V30 30 H 0.750264 -1.564518 -0.135586 0
M  V30 31 H 0.118091 3.180347 -1.234298 0
M  V30 32 H -2.219269 3.609752 -0.982705 0
M  V30 33 H -3.120702 -0.459916 -1.600450 0
M  V30 34 H -0.683921 -0.958050 -1.881672 0
M  V30 35 H 2.848718 2.867255 -1.254065 0
M  V30 36 H 4.530689 1.570658 2.289113 0
M  V30 END ATOM
M  V30 BEGIN BOND
M  V30 1 1 1 2
M  V30 2 2 2 3
M  V30 3 1 3 4
M  V30 4 2 4 5
M  V30 5 1 5 6
M  V30 6 2 6 7
M  V30 7 1 7 8
M  V30 8 2 8 9
M  V30 9 1 9 10
M  V30 10 1 10 11
M  V30 11 2 11 12
M  V30 12 1 12 13
M  V30 13 2 13 14
M  V30 14 1 14 15
M  V30 15 1 15 16
M  V30 16 1 15 17
M  V30 17 1 15 18
M  V30 18 1 14 19
M  V30 19 2 19 20
M  V30 20 1 9 21
M  V30 21 2 21 22
M  V30 22 1 22 23
M  V30 23 2 23 24
M  V30 24 1 24 25
M  V30 25 1 5 26
M  V30 26 1 26 2
M  V30 27 1 25 6
M  V30 28 1 24 8
M  V30 29 1 20 11
M  V30 30 1 1 27
M  V30 31 1 1 28
M  V30 32 1 1 29
M  V30 33 1 7 30
M  V30 34 1 12 31
M  V30 35 1 13 32
M  V30 36 1 19 33
M  V30 37 1 20 34
M  V30 38 1 21 35
M  V30 39 1 23 36
M  V30 END BOND
M  V30 END CTAB
M  END
>  <Dataset>  (756) 
ChEMBL_Kinases

>  <Ligand_Instance>  (756) 
nan

>  <PDB_ID>  (756) 
nan

>  <Standardized_SMILES>  (756) 
Cc1nnc(-c2cc3c(Oc4ccc(C(F)(F)F)cc4)cncc3s2)o1

>  <Name>  (756) 
nan

>  <Pocket>  (756) 
nan

>  <ATP_Site>  (756) 
nan

>  <Peripheral>  (756) 
nan

>  <Num_H_Atoms_ProtBoundConf>  (756) 
nan

>  <Num_Resolved_Atoms>  (756) 
nan

>  <Num_Not_Resolved_Atoms>  (756) 
nan

$$$$
CHEMBL198819
     RDKit          3D

  0  0  0  0  0  0  0  0  0  0999 V3000
M  V30 BEGIN CTAB
M  V30 COUNTS 67 70 0 0 0
M  V30 BEGIN ATOM
M  V30 1 C 4.970797 -0.240007 3.767394 0
M  V30 2 C 3.714717 -0.863503 3.054734 0
M  V30 3 C 3.408964 -2.080209 3.914778 0
M  V30 4 C 4.251980 -1.377714 1.762131 0
M  V30 5 O 2.803886 0.091537 3.086256 0
M  V30 6 C 1.546244 0.111664 2.720609 0
M  V30 7 C 1.220096 -0.138410 1.279412 0
M  V30 8 O 1.610111 -1.372734 0.888523 0
M  V30 9 C 1.702994 1.021726 0.445182 0
M  V30 10 N 1.279823 0.967074 -0.901328 0
M  V30 11 C 1.838936 -0.032116 -1.747169 0
M  V30 12 C 1.134246 0.038255 -3.084268 0
M  V30 13 C -0.152683 0.806524 -2.977939 0
M  V30 14 C -1.047994 0.104393 -2.027610 0
M  V30 15 C -2.112181 0.765932 -1.490669 0
M  V30 16 C -2.805017 -0.077141 -0.646857 0
M  V30 17 C -3.992475 -0.003769 0.211528 0
M  V30 18 C -5.092701 -0.832561 -0.014034 0
M  V30 19 C -6.139901 -0.672878 0.840737 0
M  V30 20 N -6.169438 0.218306 1.864191 0
M  V30 21 C -5.103425 1.010488 2.070870 0
M  V30 22 C -3.976917 0.921510 1.245221 0
M  V30 23 C -2.148482 -1.294566 -0.663432 0
M  V30 24 C -2.323988 -2.601572 -0.015083 0
M  V30 25 C -2.554102 -3.651956 -0.900890 0
M  V30 26 C -2.726402 -4.935271 -0.393133 0
M  V30 27 C -2.664422 -5.127194 0.954472 0
M  V30 28 F -2.821866 -6.354206 1.503345 0
M  V30 29 C -2.436084 -4.096447 1.863264 0
M  V30 30 C -2.268657 -2.835910 1.344215 0
M  V30 31 N -1.099290 -1.152624 -1.502134 0
M  V30 32 C 0.142145 2.225196 -2.548673 0
M  V30 33 C 1.324935 2.218132 -1.618058 0
M  V30 34 H 4.544378 0.215566 4.683993 0
M  V30 35 H 5.701543 -1.029915 3.942814 0
M  V30 36 H 5.295253 0.581643 3.109928 0
M  V30 37 H 3.530845 -1.816504 4.974117 0
M  V30 38 H 4.113840 -2.901218 3.673862 0
M  V30 39 H 2.390356 -2.460290 3.774811 0
M  V30 40 H 5.378923 -1.524027 1.902203 0
M  V30 41 H 4.187940 -0.725213 0.895669 0
M  V30 42 H 3.932055 -2.426629 1.515088 0
M  V30 43 H 1.071611 1.139419 2.963703 0
M  V30 44 H 0.862282 -0.556438 3.344880 0
M  V30 45 H 0.078300 -0.102876 1.165715 0
M  V30 46 H 0.862466 -2.014252 0.961893 0
M  V30 47 H 2.801709 1.189579 0.570836 0
M  V30 48 H 1.241005 1.941818 0.899109 0
M  V30 49 H 1.777612 -1.068980 -1.395513 0
M  V30 50 H 2.949303 0.129656 -1.907645 0
M  V30 51 H 1.798561 0.434321 -3.881928 0
M  V30 52 H 0.840852 -0.987178 -3.442154 0
M  V30 53 H -0.668852 0.864842 -3.982407 0
M  V30 54 H -2.555638 1.760947 -1.544942 0
M  V30 55 H -5.086477 -1.550100 -0.824011 0
M  V30 56 H -7.016970 -1.286790 0.713133 0
M  V30 57 H -5.028261 1.761127 2.868468 0
M  V30 58 H -3.095083 1.546969 1.382066 0
M  V30 59 H -2.611948 -3.545943 -1.989129 0
M  V30 60 H -2.907548 -5.751294 -1.076919 0
M  V30 61 H -2.381417 -4.214028 2.940600 0
M  V30 62 H -2.082821 -1.935762 1.941621 0
M  V30 63 H -0.378273 -1.848417 -1.782652 0
M  V30 64 H 0.303469 2.899172 -3.421058 0
M  V30 65 H -0.726322 2.615716 -1.943778 0
M  V30 66 H 2.232145 2.308317 -2.270708 0
M  V30 67 H 1.342075 3.096600 -0.942477 0
M  V30 END ATOM
M  V30 BEGIN BOND
M  V30 1 1 1 2
M  V30 2 1 2 3
M  V30 3 1 2 4
M  V30 4 1 2 5
M  V30 5 1 5 6
M  V30 6 1 6 7
M  V30 7 1 7 8
M  V30 8 1 7 9
M  V30 9 1 9 10
M  V30 10 1 10 11
M  V30 11 1 11 12
M  V30 12 1 12 13
M  V30 13 1 13 14
M  V30 14 2 14 15
M  V30 15 1 15 16
M  V30 16 1 16 17
M  V30 17 2 17 18
M  V30 18 1 18 19
M  V30 19 2 19 20
M  V30 20 1 20 21
M  V30 21 2 21 22
M  V30 22 2 16 23
M  V30 23 1 23 24
M  V30 24 2 24 25
M  V30 25 1 25 26
M  V30 26 2 26 27
M  V30 27 1 27 28
M  V30 28 1 27 29
M  V30 29 2 29 30
M  V30 30 1 23 31
M  V30 31 1 13 32
M  V30 32 1 32 33
M  V30 33 1 33 10
M  V30 34 1 31 14
M  V30 35 1 22 17
M  V30 36 1 30 24
M  V30 37 1 1 34
M  V30 38 1 1 35
M  V30 39 1 1 36
M  V30 40 1 3 37
M  V30 41 1 3 38
M  V30 42 1 3 39
M  V30 43 1 4 40
M  V30 44 1 4 41
M  V30 45 1 4 42
M  V30 46 1 6 43
M  V30 47 1 6 44
M  V30 48 1 7 45
M  V30 49 1 8 46
M  V30 50 1 9 47
M  V30 51 1 9 48
M  V30 52 1 11 49
M  V30 53 1 11 50
M  V30 54 1 12 51
M  V30 55 1 12 52
M  V30 56 1 13 53
M  V30 57 1 15 54
M  V30 58 1 18 55
M  V30 59 1 19 56
M  V30 60 1 21 57
M  V30 61 1 22 58
M  V30 62 1 25 59
M  V30 63 1 26 60
M  V30 64 1 29 61
M  V30 65 1 30 62
M  V30 66 1 31 63
M  V30 67 1 32 64
M  V30 68 1 32 65
M  V30 69 1 33 66
M  V30 70 1 33 67
M  V30 END BOND
M  V30 END CTAB
M  END
>  <Dataset>  (757) 
ChEMBL_Kinases

>  <Ligand_Instance>  (757) 
nan

>  <PDB_ID>  (757) 
nan

>  <Standardized_SMILES>  (757) 
CC(C)(C)OCC(O)CN1CCC(c2cc(-c3ccncc3)c(-c3ccc(F)cc3)[nH]2)CC1

>  <Name>  (757) 
nan

>  <Pocket>  (757) 
nan

>  <ATP_Site>  (757) 
nan

>  <Peripheral>  (757) 
nan

>  <Num_H_Atoms_ProtBoundConf>  (757) 
nan

>  <Num_Resolved_Atoms>  (757) 
nan

>  <Num_Not_Resolved_Atoms>  (757) 
nan

$$$$
CHEMBL1990774
     RDKit          3D

  0  0  0  0  0  0  0  0  0  0999 V3000
M  V30 BEGIN CTAB
M  V30 COUNTS 56 59 0 0 0
M  V30 BEGIN ATOM
M  V30 1 N -4.082323 -3.845059 0.544549 0
M  V30 2 C -3.055696 -3.445502 0.194339 0
M  V30 3 C -1.758223 -2.962056 -0.263193 0
M  V30 4 C -1.285489 -1.867188 0.252176 0
M  V30 5 C -1.899964 -1.020637 1.260087 0
M  V30 6 C -1.221899 0.054449 1.655036 0
M  V30 7 N 0.071873 0.529153 1.222583 0
M  V30 8 C 0.205797 1.823761 0.543445 0
M  V30 9 C 1.103751 1.672394 -0.693908 0
M  V30 10 O 1.321497 0.353496 -1.009988 0
M  V30 11 C 2.056752 -0.281968 -0.003376 0
M  V30 12 C 1.347229 -0.175152 1.343149 0
M  V30 13 C -2.091334 0.658409 2.640132 0
M  V30 14 C -1.864568 1.610563 3.501716 0
M  V30 15 C -0.610033 2.306423 3.670324 0
M  V30 16 C -0.655401 3.713745 3.604233 0
M  V30 17 C 0.489187 4.510057 3.805497 0
M  V30 18 C 1.718944 3.916082 4.080472 0
M  V30 19 Cl 3.122095 4.932984 4.320553 0
M  V30 20 C 1.769949 2.550259 4.147268 0
M  V30 21 C 0.624688 1.829791 3.942817 0
M  V30 22 C -3.429515 0.057830 2.666363 0
M  V30 23 C -3.239120 -1.214456 1.855175 0
M  V30 24 C -1.145441 -3.808332 -1.297752 0
M  V30 25 O -1.671019 -4.861469 -1.743865 0
M  V30 26 N 0.097771 -3.550911 -1.918077 0
M  V30 27 C 0.679615 -4.378059 -2.920396 0
M  V30 28 C 0.231808 -3.941889 -4.160775 0
M  V30 29 C 0.671150 -4.591488 -5.321343 0
M  V30 30 C 1.539129 -5.650839 -5.206095 0
M  V30 31 C 1.984323 -6.084858 -3.979406 0
M  V30 32 C 1.562127 -5.456592 -2.822837 0
M  V30 33 F 1.866946 -5.715153 -1.531220 0
M  V30 34 H -0.331888 -1.698716 -0.222481 0
M  V30 35 H -0.809466 2.045423 0.133155 0
M  V30 36 H 0.645903 2.598952 1.159877 0
M  V30 37 H 2.087774 2.184772 -0.519399 0
M  V30 38 H 0.631638 2.160067 -1.573899 0
M  V30 39 H 3.045357 0.159956 0.099193 0
M  V30 40 H 2.106049 -1.367947 -0.295014 0
M  V30 41 H 2.001990 0.319873 2.082972 0
M  V30 42 H 1.157398 -1.212781 1.748274 0
M  V30 43 H -2.592550 2.009769 4.217696 0
M  V30 44 H -1.592906 4.248362 3.390237 0
M  V30 45 H 0.386551 5.580114 3.740757 0
M  V30 46 H 2.715979 2.035790 4.358040 0
M  V30 47 H 0.672305 0.729977 4.007068 0
M  V30 48 H -3.739541 -0.262886 3.689047 0
M  V30 49 H -4.242816 0.703990 2.275201 0
M  V30 50 H -3.212956 -2.088393 2.502421 0
M  V30 51 H -4.029531 -1.242663 1.052627 0
M  V30 52 H 0.645673 -2.703214 -1.646072 0
M  V30 53 H -0.437612 -3.139685 -4.408529 0
M  V30 54 H 0.409182 -4.363253 -6.359389 0
M  V30 55 H 1.991168 -6.276470 -5.982494 0
M  V30 56 H 2.661196 -6.894689 -3.704127 0
M  V30 END ATOM
M  V30 BEGIN BOND
M  V30 1 3 1 2
M  V30 2 1 2 3
M  V30 3 2 3 4
M  V30 4 1 4 5
M  V30 5 2 5 6
M  V30 6 1 6 7
M  V30 7 1 7 8
M  V30 8 1 8 9
M  V30 9 1 9 10
M  V30 10 1 10 11
M  V30 11 1 11 12
M  V30 12 1 6 13
M  V30 13 2 13 14
M  V30 14 1 14 15
M  V30 15 2 15 16
M  V30 16 1 16 17
M  V30 17 2 17 18
M  V30 18 1 18 19
M  V30 19 1 18 20
M  V30 20 2 20 21
M  V30 21 1 13 22
M  V30 22 1 22 23
M  V30 23 1 3 24
M  V30 24 2 24 25
M  V30 25 1 24 26
M  V30 26 1 26 27
M  V30 27 2 27 28
M  V30 28 1 28 29
M  V30 29 2 29 30
M  V30 30 1 30 31
M  V30 31 2 31 32
M  V30 32 1 32 33
M  V30 33 1 23 5
M  V30 34 1 32 27
M  V30 35 1 12 7
M  V30 36 1 21 15
M  V30 37 1 4 34
M  V30 38 1 8 35
M  V30 39 1 8 36
M  V30 40 1 9 37
M  V30 41 1 9 38
M  V30 42 1 11 39
M  V30 43 1 11 40
M  V30 44 1 12 41
M  V30 45 1 12 42
M  V30 46 1 14 43
M  V30 47 1 16 44
M  V30 48 1 17 45
M  V30 49 1 20 46
M  V30 50 1 21 47
M  V30 51 1 22 48
M  V30 52 1 22 49
M  V30 53 1 23 50
M  V30 54 1 23 51
M  V30 55 1 26 52
M  V30 56 1 28 53
M  V30 57 1 29 54
M  V30 58 1 30 55
M  V30 59 1 31 56
M  V30 END BOND
M  V30 END CTAB
M  END
>  <Dataset>  (758) 
ChEMBL_Kinases

>  <Ligand_Instance>  (758) 
nan

>  <PDB_ID>  (758) 
nan

>  <Standardized_SMILES>  (758) 
N#C/C(=C\C1=C(N2CCOCC2)/C(=C\c2ccc(Cl)cc2)CC1)C(=O)Nc1ccccc1F

>  <Name>  (758) 
nan

>  <Pocket>  (758) 
nan

>  <ATP_Site>  (758) 
nan

>  <Peripheral>  (758) 
nan

>  <Num_H_Atoms_ProtBoundConf>  (758) 
nan

>  <Num_Resolved_Atoms>  (758) 
nan

>  <Num_Not_Resolved_Atoms>  (758) 
nan

$$$$
CHEMBL1988437
     RDKit          3D

  0  0  0  0  0  0  0  0  0  0999 V3000
M  V30 BEGIN CTAB
M  V30 COUNTS 46 49 0 0 0
M  V30 BEGIN ATOM
M  V30 1 C 1.799927 -1.407253 -0.045859 0
M  V30 2 N 2.431295 -0.119013 0.140162 0
M  V30 3 C 2.070642 1.172147 -0.399407 0
M  V30 4 O 1.029503 0.992613 -1.120452 0
M  V30 5 C 2.957911 2.244083 0.016743 0
M  V30 6 C 4.102149 2.476705 -0.713269 0
M  V30 7 C 4.963520 3.491344 -0.320352 0
M  V30 8 C 4.623967 4.221650 0.793711 0
M  V30 9 C 3.460300 3.965813 1.513934 0
M  V30 10 C 2.577410 2.944509 1.131753 0
M  V30 11 S 1.210299 2.835755 2.201881 0
M  V30 12 C -0.016203 1.640362 1.817514 0
M  V30 13 C -0.083334 0.316798 2.198572 0
M  V30 14 C -1.126791 -0.493322 1.824448 0
M  V30 15 C -2.156741 -0.033859 1.052046 0
M  V30 16 C -3.277350 -0.678162 0.600849 0
M  V30 17 C -3.783993 -2.028969 0.585232 0
M  V30 18 C -3.454305 -3.278768 0.732400 0
M  V30 19 C -2.350789 -4.221236 1.009343 0
M  V30 20 C -2.483820 -5.569288 1.219603 0
M  V30 21 C -1.388382 -6.363001 1.412051 0
M  V30 22 C -0.132766 -5.825211 1.398625 0
M  V30 23 C -0.025599 -4.481024 1.187349 0
M  V30 24 N -1.110744 -3.742821 1.004480 0
M  V30 25 N -3.910909 0.327222 -0.080558 0
M  V30 26 N -3.221072 1.440981 -0.030668 0
M  V30 27 C -2.092590 1.281923 0.673730 0
M  V30 28 C -1.063558 2.129619 1.027590 0
M  V30 29 H 1.492458 -1.770928 0.960460 0
M  V30 30 H 2.583871 -2.107147 -0.424837 0
M  V30 31 H 0.972187 -1.400533 -0.784229 0
M  V30 32 H 3.262377 -0.244028 0.776612 0
M  V30 33 H 4.292745 1.855284 -1.576092 0
M  V30 34 H 5.841972 3.642899 -0.911284 0
M  V30 35 H 5.339922 4.991886 1.037241 0
M  V30 36 H 3.365119 4.641759 2.356700 0
M  V30 37 H 0.726058 -0.013803 2.793497 0
M  V30 38 H -1.141374 -1.499657 2.178164 0
M  V30 39 H -4.866214 -1.990444 0.389176 0
M  V30 40 H -4.346782 -3.928601 0.589706 0
M  V30 41 H -3.500099 -5.898152 1.217848 0
M  V30 42 H -1.656583 -7.398173 1.563661 0
M  V30 43 H 0.697957 -6.479281 1.553655 0
M  V30 44 H 1.012463 -4.109471 1.187633 0
M  V30 45 H -3.588571 2.284890 -0.508127 0
M  V30 46 H -1.147186 3.137435 0.656666 0
M  V30 END ATOM
M  V30 BEGIN BOND
M  V30 1 1 1 2
M  V30 2 1 2 3
M  V30 3 2 3 4
M  V30 4 1 3 5
M  V30 5 2 5 6
M  V30 6 1 6 7
M  V30 7 2 7 8
M  V30 8 1 8 9
M  V30 9 2 9 10
M  V30 10 1 10 11
M  V30 11 1 11 12
M  V30 12 2 12 13
M  V30 13 1 13 14
M  V30 14 2 14 15
M  V30 15 1 15 16
M  V30 16 1 16 17
M  V30 17 2 17 18 CFG=2
M  V30 18 1 18 19
M  V30 19 2 19 20
M  V30 20 1 20 21
M  V30 21 2 21 22
M  V30 22 1 22 23
M  V30 23 2 23 24
M  V30 24 2 16 25
M  V30 25 1 25 26
M  V30 26 1 26 27
M  V30 27 2 27 28
M  V30 28 1 10 5
M  V30 29 1 28 12
M  V30 30 1 27 15
M  V30 31 1 24 19
M  V30 32 1 1 29
M  V30 33 1 1 30
M  V30 34 1 1 31
M  V30 35 1 2 32
M  V30 36 1 6 33
M  V30 37 1 7 34
M  V30 38 1 8 35
M  V30 39 1 9 36
M  V30 40 1 13 37
M  V30 41 1 14 38
M  V30 42 1 17 39
M  V30 43 1 18 40
M  V30 44 1 20 41
M  V30 45 1 21 42
M  V30 46 1 22 43
M  V30 47 1 23 44
M  V30 48 1 26 45
M  V30 49 1 28 46
M  V30 END BOND
M  V30 END CTAB
M  END
>  <Dataset>  (759) 
ChEMBL_Kinases

>  <Ligand_Instance>  (759) 
nan

>  <PDB_ID>  (759) 
nan

>  <Standardized_SMILES>  (759) 
CNC(=O)c1ccccc1Sc1ccc2c(C=Cc3ccccn3)n[nH]c2c1

>  <Name>  (759) 
nan

>  <Pocket>  (759) 
nan

>  <ATP_Site>  (759) 
nan

>  <Peripheral>  (759) 
nan

>  <Num_H_Atoms_ProtBoundConf>  (759) 
nan

>  <Num_Resolved_Atoms>  (759) 
nan

>  <Num_Not_Resolved_Atoms>  (759) 
nan

$$$$
CHEMBL1989043
     RDKit          3D

  0  0  0  0  0  0  0  0  0  0999 V3000
M  V30 BEGIN CTAB
M  V30 COUNTS 51 54 0 0 0
M  V30 BEGIN ATOM
M  V30 1 C 0.852891 -4.850115 -1.147682 0
M  V30 2 N 1.923084 -5.374765 -0.332175 0
M  V30 3 C 3.181191 -4.853809 -0.647770 0
M  V30 4 C 3.955877 -4.188935 0.455099 0
M  V30 5 N 3.011287 -3.566804 1.346892 0
M  V30 6 C 2.828103 -2.171567 1.555684 0
M  V30 7 C 3.773817 -1.270006 1.123333 0
M  V30 8 C 3.639007 0.093804 1.278660 0
M  V30 9 C 2.516871 0.609238 1.891236 0
M  V30 10 N 2.197819 1.970227 2.164912 0
M  V30 11 C 0.889632 2.389487 1.543675 0
M  V30 12 N 0.655461 3.126579 0.752489 0
M  V30 13 C -0.414516 3.554614 0.129918 0
M  V30 14 N -0.281945 4.579668 -0.883418 0
M  V30 15 C -1.550836 2.918171 0.576986 0
M  V30 16 C -2.934094 3.181675 0.089847 0
M  V30 17 O -2.895441 4.156585 -0.682106 0
M  V30 18 C -4.220316 2.590361 0.309306 0
M  V30 19 C -5.267537 3.385912 -0.094380 0
M  V30 20 Cl -5.111027 4.996698 -0.797028 0
M  V30 21 C -6.577886 2.955973 0.031695 0
M  V30 22 C -6.825092 1.723195 0.565473 0
M  V30 23 C -5.823764 0.885989 0.984939 0
M  V30 24 C -4.552660 1.367172 0.833855 0
M  V30 25 Cl -3.282406 0.302137 1.323931 0
M  V30 26 S -0.853513 1.758929 1.882098 0
M  V30 27 C 1.571378 -0.322569 2.322160 0
M  V30 28 C 1.686190 -1.711350 2.175142 0
M  V30 29 C 2.295575 -4.629426 1.987327 0
M  V30 30 C 1.582661 -5.533197 1.039066 0
M  V30 31 H -0.129758 -5.271772 -0.879800 0
M  V30 32 H 1.053966 -5.111520 -2.209852 0
M  V30 33 H 0.774063 -3.744897 -1.040699 0
M  V30 34 H 3.827786 -5.717059 -0.988745 0
M  V30 35 H 3.118995 -4.179344 -1.527471 0
M  V30 36 H 4.590958 -4.908116 1.004852 0
M  V30 37 H 4.604104 -3.419437 -0.052365 0
M  V30 38 H 4.695716 -1.531189 0.630044 0
M  V30 39 H 4.348537 0.840901 0.955862 0
M  V30 40 H 2.672036 2.724870 2.697377 0
M  V30 41 H -0.324934 5.587062 -0.704840 0
M  V30 42 H -0.129407 4.421843 -1.902764 0
M  V30 43 H -7.426583 3.540964 -0.272754 0
M  V30 44 H -7.852959 1.382683 0.666556 0
M  V30 45 H -6.040205 -0.079290 1.402228 0
M  V30 46 H 0.668046 -0.002787 2.819440 0
M  V30 47 H 0.896998 -2.348503 2.539072 0
M  V30 48 H 3.047895 -5.225850 2.583714 0
M  V30 49 H 1.628108 -4.202752 2.754054 0
M  V30 50 H 1.763997 -6.590638 1.322976 0
M  V30 51 H 0.490530 -5.365743 1.148611 0
M  V30 END ATOM
M  V30 BEGIN BOND
M  V30 1 1 1 2
M  V30 2 1 2 3
M  V30 3 1 3 4
M  V30 4 1 4 5
M  V30 5 1 5 6
M  V30 6 2 6 7
M  V30 7 1 7 8
M  V30 8 2 8 9
M  V30 9 1 9 10
M  V30 10 1 10 11
M  V30 11 2 11 12
M  V30 12 1 12 13
M  V30 13 1 13 14
M  V30 14 2 13 15
M  V30 15 1 15 16
M  V30 16 2 16 17
M  V30 17 1 16 18
M  V30 18 2 18 19
M  V30 19 1 19 20
M  V30 20 1 19 21
M  V30 21 2 21 22
M  V30 22 1 22 23
M  V30 23 2 23 24
M  V30 24 1 24 25
M  V30 25 1 15 26
M  V30 26 1 9 27
M  V30 27 2 27 28
M  V30 28 1 5 29
M  V30 29 1 29 30
M  V30 30 1 30 2
M  V30 31 1 28 6
M  V30 32 1 26 11
M  V30 33 1 24 18
M  V30 34 1 1 31
M  V30 35 1 1 32
M  V30 36 1 1 33
M  V30 37 1 3 34
M  V30 38 1 3 35
M  V30 39 1 4 36
M  V30 40 1 4 37
M  V30 41 1 7 38
M  V30 42 1 8 39
M  V30 43 1 10 40
M  V30 44 1 14 41
M  V30 45 1 14 42
M  V30 46 1 21 43
M  V30 47 1 22 44
M  V30 48 1 23 45
M  V30 49 1 27 46
M  V30 50 1 28 47
M  V30 51 1 29 48
M  V30 52 1 29 49
M  V30 53 1 30 50
M  V30 54 1 30 51
M  V30 END BOND
M  V30 END CTAB
M  END
>  <Dataset>  (760) 
ChEMBL_Kinases

>  <Ligand_Instance>  (760) 
nan

>  <PDB_ID>  (760) 
nan

>  <Standardized_SMILES>  (760) 
CN1CCN(c2ccc(Nc3nc(N)c(C(=O)c4c(Cl)cccc4Cl)s3)cc2)CC1

>  <Name>  (760) 
nan

>  <Pocket>  (760) 
nan

>  <ATP_Site>  (760) 
nan

>  <Peripheral>  (760) 
nan

>  <Num_H_Atoms_ProtBoundConf>  (760) 
nan

>  <Num_Resolved_Atoms>  (760) 
nan

>  <Num_Not_Resolved_Atoms>  (760) 
nan

$$$$
CHEMBL198905
     RDKit          3D

  0  0  0  0  0  0  0  0  0  0999 V3000
M  V30 BEGIN CTAB
M  V30 COUNTS 50 53 0 0 0
M  V30 BEGIN ATOM
M  V30 1 N -1.205505 -5.743307 3.668781 0
M  V30 2 C -0.553987 -4.871419 3.315240 0
M  V30 3 C 0.260600 -3.808427 2.864167 0
M  V30 4 C 1.472741 -3.585574 3.470675 0
M  V30 5 N 2.234811 -2.551562 3.010867 0
M  V30 6 C 1.833552 -1.771095 2.006327 0
M  V30 7 C 2.604968 -0.736519 1.552949 0
M  V30 8 N 2.183783 0.039504 0.539749 0
M  V30 9 C 1.015606 -0.109719 -0.106380 0
M  V30 10 N 0.613064 0.752863 -1.187151 0
M  V30 11 C 1.471933 1.820888 -1.594915 0
M  V30 12 C 1.763904 2.902924 -0.627654 0
M  V30 13 N 0.672770 3.690348 -0.193216 0
M  V30 14 C 1.201355 4.787558 0.637260 0
M  V30 15 C 1.709313 4.301371 1.944423 0
M  V30 16 O 1.342112 3.033157 2.309108 0
M  V30 17 C 0.081948 2.632226 1.969532 0
M  V30 18 C -0.314665 2.978560 0.544094 0
M  V30 19 C 0.232349 -1.151678 0.345876 0
M  V30 20 C 0.628636 -1.972938 1.384937 0
M  V30 21 C -0.176203 -3.007312 1.816314 0
M  V30 22 N -1.436086 -3.272392 1.219835 0
M  V30 23 C -1.924027 -4.071161 0.147355 0
M  V30 24 C -3.284225 -4.017995 -0.097102 0
M  V30 25 C -3.718595 -4.798073 -1.133994 0
M  V30 26 Cl -5.451177 -4.755923 -1.475791 0
M  V30 27 C -2.897601 -5.593649 -1.904963 0
M  V30 28 C -1.545358 -5.600098 -1.606176 0
M  V30 29 Cl -0.569270 -6.635417 -2.630330 0
M  V30 30 C -1.036867 -4.836566 -0.572346 0
M  V30 31 H 1.859534 -4.179982 4.290216 0
M  V30 32 H 3.574004 -0.517297 1.999247 0
M  V30 33 H -0.319450 0.520867 -1.623903 0
M  V30 34 H 1.155020 2.227847 -2.598690 0
M  V30 35 H 2.473783 1.320345 -1.815771 0
M  V30 36 H 2.630466 3.546663 -0.979787 0
M  V30 37 H 2.190635 2.394090 0.287672 0
M  V30 38 H 0.422293 5.578429 0.726506 0
M  V30 39 H 2.029945 5.244007 0.063537 0
M  V30 40 H 2.838595 4.290909 1.900298 0
M  V30 41 H 1.472195 5.050622 2.733938 0
M  V30 42 H -0.693027 2.966315 2.717229 0
M  V30 43 H 0.056097 1.522005 2.050105 0
M  V30 44 H -0.771039 2.116358 0.035932 0
M  V30 45 H -1.218071 3.678785 0.674724 0
M  V30 46 H -0.717234 -1.323337 -0.132311 0
M  V30 47 H -2.024374 -2.676611 1.810965 0
M  V30 48 H -3.920178 -3.400091 0.501619 0
M  V30 49 H -3.359751 -6.159677 -2.690623 0
M  V30 50 H 0.012199 -4.890261 -0.399109 0
M  V30 END ATOM
M  V30 BEGIN BOND
M  V30 1 3 1 2
M  V30 2 1 2 3
M  V30 3 2 3 4
M  V30 4 1 4 5
M  V30 5 2 5 6
M  V30 6 1 6 7
M  V30 7 2 7 8
M  V30 8 1 8 9
M  V30 9 1 9 10
M  V30 10 1 10 11
M  V30 11 1 11 12
M  V30 12 1 12 13
M  V30 13 1 13 14
M  V30 14 1 14 15
M  V30 15 1 15 16
M  V30 16 1 16 17
M  V30 17 1 17 18
M  V30 18 2 9 19
M  V30 19 1 19 20
M  V30 20 2 20 21
M  V30 21 1 21 22
M  V30 22 1 22 23
M  V30 23 2 23 24
M  V30 24 1 24 25
M  V30 25 1 25 26
M  V30 26 2 25 27
M  V30 27 1 27 28
M  V30 28 1 28 29
M  V30 29 2 28 30
M  V30 30 1 21 3
M  V30 31 1 30 23
M  V30 32 1 20 6
M  V30 33 1 18 13
M  V30 34 1 4 31
M  V30 35 1 7 32
M  V30 36 1 10 33
M  V30 37 1 11 34
M  V30 38 1 11 35
M  V30 39 1 12 36
M  V30 40 1 12 37
M  V30 41 1 14 38
M  V30 42 1 14 39
M  V30 43 1 15 40
M  V30 44 1 15 41
M  V30 45 1 17 42
M  V30 46 1 17 43
M  V30 47 1 18 44
M  V30 48 1 18 45
M  V30 49 1 19 46
M  V30 50 1 22 47
M  V30 51 1 24 48
M  V30 52 1 27 49
M  V30 53 1 30 50
M  V30 END BOND
M  V30 END CTAB
M  END
>  <Dataset>  (761) 
ChEMBL_Kinases

>  <Ligand_Instance>  (761) 
nan

>  <PDB_ID>  (761) 
nan

>  <Standardized_SMILES>  (761) 
N#Cc1cnc2cnc(NCCN3CCOCC3)cc2c1Nc1cc(Cl)cc(Cl)c1

>  <Name>  (761) 
nan

>  <Pocket>  (761) 
nan

>  <ATP_Site>  (761) 
nan

>  <Peripheral>  (761) 
nan

>  <Num_H_Atoms_ProtBoundConf>  (761) 
nan

>  <Num_Resolved_Atoms>  (761) 
nan

>  <Num_Not_Resolved_Atoms>  (761) 
nan

$$$$
CHEMBL198917
     RDKit          3D

  0  0  0  0  0  0  0  0  0  0999 V3000
M  V30 BEGIN CTAB
M  V30 COUNTS 59 62 0 0 0
M  V30 BEGIN ATOM
M  V30 1 O 0.552192 -5.451607 2.853193 0
M  V30 2 S 0.543102 -3.970658 3.154322 0
M  V30 3 O 0.667671 -3.877061 4.660337 0
M  V30 4 N 1.862870 -3.211964 2.385127 0
M  V30 5 C 2.485308 -1.964589 2.318053 0
M  V30 6 C 2.601368 -1.463743 3.621036 0
M  V30 7 C 3.197903 -0.227031 3.900294 0
M  V30 8 C 3.686351 0.513263 2.826678 0
M  V30 9 C 3.561716 0.000364 1.542516 0
M  V30 10 O 4.041289 0.718354 0.476412 0
M  V30 11 C 3.379154 1.640117 -0.293202 0
M  V30 12 C 3.306879 1.318378 -1.641429 0
M  V30 13 C 2.661664 2.177166 -2.517861 0
M  V30 14 C 2.078531 3.357463 -2.102219 0
M  V30 15 F 1.445733 4.213795 -2.943337 0
M  V30 16 C 2.140699 3.698979 -0.744934 0
M  V30 17 C 2.784144 2.825704 0.077927 0
M  V30 18 F 2.854628 3.136481 1.387718 0
M  V30 19 C 2.976201 -1.209925 1.276430 0
M  V30 20 N -0.931850 -3.251718 2.708164 0
M  V30 21 C -1.774172 -4.189219 1.959046 0
M  V30 22 C -3.140573 -3.536225 1.905961 0
M  V30 23 C -3.045506 -2.332581 0.899838 0
M  V30 24 N -2.689980 -2.821158 -0.361175 0
M  V30 25 C -2.916933 -2.102824 -1.554182 0
M  V30 26 C -2.377568 -0.765828 -1.727194 0
M  V30 27 C -1.196436 -0.592416 -2.459467 0
M  V30 28 C -0.561423 0.603110 -2.713924 0
M  V30 29 C -1.156779 1.742746 -2.188814 0
M  V30 30 C -2.330675 1.700713 -1.443858 0
M  V30 31 C -2.851085 0.441530 -1.271314 0
M  V30 32 O -4.038446 0.382895 -0.521340 0
M  V30 33 C -2.020288 -1.444055 1.587735 0
M  V30 34 C -0.689950 -2.160240 1.788275 0
M  V30 35 H 2.476181 -3.771505 1.723188 0
M  V30 36 H 2.271858 -1.920204 4.560700 0
M  V30 37 H 3.313999 0.206571 4.876584 0
M  V30 38 H 4.153468 1.464419 3.020599 0
M  V30 39 H 3.704121 0.434277 -2.168112 0
M  V30 40 H 2.561593 1.995545 -3.591974 0
M  V30 41 H 1.705368 4.607233 -0.349312 0
M  V30 42 H 2.829564 -1.692455 0.333816 0
M  V30 43 H -1.359986 -4.419365 0.960418 0
M  V30 44 H -1.858853 -5.074029 2.623679 0
M  V30 45 H -3.379389 -3.136178 2.909818 0
M  V30 46 H -3.880157 -4.256518 1.544161 0
M  V30 47 H -4.027416 -1.850373 1.012630 0
M  V30 48 H -3.017265 -3.802338 -0.501216 0
M  V30 49 H -2.547127 -2.726177 -2.440596 0
M  V30 50 H -4.035605 -2.131192 -1.738612 0
M  V30 51 H -0.702166 -1.472878 -2.886037 0
M  V30 52 H 0.345377 0.645228 -3.289649 0
M  V30 53 H -0.727540 2.725125 -2.340421 0
M  V30 54 H -2.801307 2.567808 -1.032016 0
M  V30 55 H -4.888570 0.539312 -1.045459 0
M  V30 56 H -1.935775 -0.435250 1.209256 0
M  V30 57 H -2.423812 -1.338695 2.643646 0
M  V30 58 H -0.265190 -2.566884 0.861411 0
M  V30 59 H 0.051761 -1.504624 2.268235 0
M  V30 END ATOM
M  V30 BEGIN BOND
M  V30 1 2 1 2
M  V30 2 2 2 3
M  V30 3 1 2 4
M  V30 4 1 4 5
M  V30 5 2 5 6
M  V30 6 1 6 7
M  V30 7 2 7 8
M  V30 8 1 8 9
M  V30 9 1 9 10
M  V30 10 1 10 11
M  V30 11 2 11 12
M  V30 12 1 12 13
M  V30 13 2 13 14
M  V30 14 1 14 15
M  V30 15 1 14 16
M  V30 16 2 16 17
M  V30 17 1 17 18
M  V30 18 2 9 19
M  V30 19 1 2 20
M  V30 20 1 20 21
M  V30 21 1 21 22
M  V30 22 1 22 23
M  V30 23 1 23 24
M  V30 24 1 24 25
M  V30 25 1 25 26
M  V30 26 2 26 27
M  V30 27 1 27 28
M  V30 28 2 28 29
M  V30 29 1 29 30
M  V30 30 2 30 31
M  V30 31 1 31 32
M  V30 32 1 23 33
M  V30 33 1 33 34
M  V30 34 1 19 5
M  V30 35 1 34 20
M  V30 36 1 17 11
M  V30 37 1 31 26
M  V30 38 1 4 35
M  V30 39 1 6 36
M  V30 40 1 7 37
M  V30 41 1 8 38
M  V30 42 1 12 39
M  V30 43 1 13 40
M  V30 44 1 16 41
M  V30 45 1 19 42
M  V30 46 1 21 43
M  V30 47 1 21 44
M  V30 48 1 22 45
M  V30 49 1 22 46
M  V30 50 1 23 47
M  V30 51 1 24 48
M  V30 52 1 25 49
M  V30 53 1 25 50
M  V30 54 1 27 51
M  V30 55 1 28 52
M  V30 56 1 29 53
M  V30 57 1 30 54
M  V30 58 1 32 55
M  V30 59 1 33 56
M  V30 60 1 33 57
M  V30 61 1 34 58
M  V30 62 1 34 59
M  V30 END BOND
M  V30 END CTAB
M  END
>  <Dataset>  (762) 
ChEMBL_Kinases

>  <Ligand_Instance>  (762) 
nan

>  <PDB_ID>  (762) 
nan

>  <Standardized_SMILES>  (762) 
O=S(=O)(Nc1cccc(Oc2ccc(F)cc2F)c1)N1CCC(NCc2ccccc2O)CC1

>  <Name>  (762) 
nan

>  <Pocket>  (762) 
nan

>  <ATP_Site>  (762) 
nan

>  <Peripheral>  (762) 
nan

>  <Num_H_Atoms_ProtBoundConf>  (762) 
nan

>  <Num_Resolved_Atoms>  (762) 
nan

>  <Num_Not_Resolved_Atoms>  (762) 
nan

$$$$
CHEMBL198922
     RDKit          3D

  0  0  0  0  0  0  0  0  0  0999 V3000
M  V30 BEGIN CTAB
M  V30 COUNTS 36 38 0 0 0
M  V30 BEGIN ATOM
M  V30 1 C -0.698778 -4.136635 3.951294 0
M  V30 2 C -1.747096 -3.477157 3.118659 0
M  V30 3 C -1.079248 -2.292445 2.404653 0
M  V30 4 N -0.527342 -2.077013 1.427403 0
M  V30 5 C -0.025738 -0.925435 1.017764 0
M  V30 6 C 0.661406 -0.843715 -0.290341 0
M  V30 7 C 2.012279 -0.522973 -0.394620 0
M  V30 8 C 2.546846 -0.477587 -1.668166 0
M  V30 9 C 1.834162 -0.727074 -2.824590 0
M  V30 10 C 0.495634 -1.044711 -2.720385 0
M  V30 11 C -0.341750 -1.327771 -3.916531 0
M  V30 12 C -0.082938 -1.100614 -1.447658 0
M  V30 13 C -0.188854 0.152924 1.878144 0
M  V30 14 C 0.270807 1.532338 1.667101 0
M  V30 15 C 1.161537 2.111306 2.552406 0
M  V30 16 C 1.566516 3.409854 2.315328 0
M  V30 17 N 1.129955 4.144968 1.251765 0
M  V30 18 C 0.257219 3.544761 0.404628 0
M  V30 19 F -0.231808 4.195457 -0.679604 0
M  V30 20 C -0.192487 2.251299 0.576328 0
M  V30 21 S -1.108289 -0.639488 3.289268 0
M  V30 22 H -0.870530 -4.032585 5.051585 0
M  V30 23 H -0.749989 -5.241077 3.754640 0
M  V30 24 H 0.351632 -3.870092 3.665628 0
M  V30 25 H -2.514905 -3.083899 3.817960 0
M  V30 26 H -2.176619 -4.146005 2.354129 0
M  V30 27 H 2.584832 -0.325647 0.486829 0
M  V30 28 H 3.601870 -0.231753 -1.818751 0
M  V30 29 H 2.263395 -0.688284 -3.814535 0
M  V30 30 H -0.226489 -0.513025 -4.664276 0
M  V30 31 H -0.141210 -2.341073 -4.325290 0
M  V30 32 H -1.411105 -1.338249 -3.606438 0
M  V30 33 H -1.143085 -1.348515 -1.320691 0
M  V30 34 H 1.548768 1.588227 3.415537 0
M  V30 35 H 2.272979 3.930497 2.979331 0
M  V30 36 H -0.887911 1.764321 -0.093521 0
M  V30 END ATOM
M  V30 BEGIN BOND
M  V30 1 1 1 2
M  V30 2 1 2 3
M  V30 3 2 3 4
M  V30 4 1 4 5
M  V30 5 1 5 6
M  V30 6 2 6 7
M  V30 7 1 7 8
M  V30 8 2 8 9
M  V30 9 1 9 10
M  V30 10 1 10 11
M  V30 11 2 10 12
M  V30 12 2 5 13
M  V30 13 1 13 14
M  V30 14 2 14 15
M  V30 15 1 15 16
M  V30 16 2 16 17
M  V30 17 1 17 18
M  V30 18 1 18 19
M  V30 19 2 18 20
M  V30 20 1 13 21
M  V30 21 1 21 3
M  V30 22 1 12 6
M  V30 23 1 20 14
M  V30 24 1 1 22
M  V30 25 1 1 23
M  V30 26 1 1 24
M  V30 27 1 2 25
M  V30 28 1 2 26
M  V30 29 1 7 27
M  V30 30 1 8 28
M  V30 31 1 9 29
M  V30 32 1 11 30
M  V30 33 1 11 31
M  V30 34 1 11 32
M  V30 35 1 12 33
M  V30 36 1 15 34
M  V30 37 1 16 35
M  V30 38 1 20 36
M  V30 END BOND
M  V30 END CTAB
M  END
>  <Dataset>  (763) 
ChEMBL_Kinases

>  <Ligand_Instance>  (763) 
nan

>  <PDB_ID>  (763) 
nan

>  <Standardized_SMILES>  (763) 
CCc1nc(-c2cccc(C)c2)c(-c2ccnc(F)c2)s1

>  <Name>  (763) 
nan

>  <Pocket>  (763) 
nan

>  <ATP_Site>  (763) 
nan

>  <Peripheral>  (763) 
nan

>  <Num_H_Atoms_ProtBoundConf>  (763) 
nan

>  <Num_Resolved_Atoms>  (763) 
nan

>  <Num_Not_Resolved_Atoms>  (763) 
nan

$$$$
CHEMBL1989592
     RDKit          3D

  0  0  0  0  0  0  0  0  0  0999 V3000
M  V30 BEGIN CTAB
M  V30 COUNTS 40 42 0 0 0
M  V30 BEGIN ATOM
M  V30 1 O -2.282940 -1.532517 1.355604 0
M  V30 2 C -1.650636 -2.473845 1.874486 0
M  V30 3 N -0.302176 -2.673931 1.470155 0
M  V30 4 N 0.053934 -1.699476 0.504612 0
M  V30 5 C 1.215037 -1.660101 -0.058866 0
M  V30 6 C 1.239908 -0.526131 -1.004308 0
M  V30 7 C 0.497395 -0.347082 -2.153241 0
M  V30 8 C 0.923166 0.887894 -2.648970 0
M  V30 9 C 1.893773 1.385552 -1.778645 0
M  V30 10 C 2.600755 2.657306 -1.929506 0
M  V30 11 C 2.360246 3.511282 -2.988705 0
M  V30 12 C 3.080388 4.694208 -3.045277 0
M  V30 13 C 4.015041 5.003240 -2.060277 0
M  V30 14 C 4.246890 4.136936 -1.002034 0
M  V30 15 N 5.208275 4.472708 -0.004304 0 CHG=1 VAL=4
M  V30 16 O 5.387113 3.666270 0.931314 0
M  V30 17 O 5.964882 5.625391 0.014038 0 CHG=-1 VAL=1
M  V30 18 C 3.532300 2.982422 -0.962550 0
M  V30 19 O 2.026738 0.482365 -0.821017 0
M  V30 20 C -2.328741 -3.308666 2.859797 0
M  V30 21 C -3.638839 -2.993288 3.151420 0
M  V30 22 C -4.348399 -3.748923 4.083877 0
M  V30 23 C -3.734854 -4.813311 4.713660 0
M  V30 24 N -4.555377 -5.505381 5.640004 0 CHG=1 VAL=4
M  V30 25 O -4.272745 -6.493171 6.345990 0
M  V30 26 O -5.878657 -5.191308 5.938316 0 CHG=-1 VAL=1
M  V30 27 C -2.419471 -5.125796 4.417379 0
M  V30 28 C -1.726659 -4.370477 3.492284 0
M  V30 29 H 0.247972 -3.454999 1.889889 0
M  V30 30 H 1.936163 -2.422583 0.239402 0
M  V30 31 H -0.243064 -1.046934 -2.540833 0
M  V30 32 H 0.539988 1.341913 -3.553999 0
M  V30 33 H 1.626469 3.249933 -3.745834 0
M  V30 34 H 2.940171 5.398445 -3.840906 0
M  V30 35 H 4.559823 5.920968 -2.122799 0
M  V30 36 H 3.739060 2.328444 -0.121173 0
M  V30 37 H -4.168706 -2.158126 2.677804 0
M  V30 38 H -5.387656 -3.463477 4.285724 0
M  V30 39 H -1.990324 -5.963446 4.935769 0
M  V30 40 H -0.702767 -4.620753 3.267550 0
M  V30 END ATOM
M  V30 BEGIN BOND
M  V30 1 2 1 2
M  V30 2 1 2 3
M  V30 3 1 3 4
M  V30 4 2 4 5
M  V30 5 1 5 6
M  V30 6 2 6 7
M  V30 7 1 7 8
M  V30 8 2 8 9
M  V30 9 1 9 10
M  V30 10 2 10 11
M  V30 11 1 11 12
M  V30 12 2 12 13
M  V30 13 1 13 14
M  V30 14 1 14 15
M  V30 15 2 15 16
M  V30 16 1 15 17
M  V30 17 2 14 18
M  V30 18 1 9 19
M  V30 19 1 2 20
M  V30 20 2 20 21
M  V30 21 1 21 22
M  V30 22 2 22 23
M  V30 23 1 23 24
M  V30 24 2 24 25
M  V30 25 1 24 26
M  V30 26 1 23 27
M  V30 27 2 27 28
M  V30 28 1 19 6
M  V30 29 1 28 20
M  V30 30 1 18 10
M  V30 31 1 3 29
M  V30 32 1 5 30
M  V30 33 1 7 31
M  V30 34 1 8 32
M  V30 35 1 11 33
M  V30 36 1 12 34
M  V30 37 1 13 35
M  V30 38 1 18 36
M  V30 39 1 21 37
M  V30 40 1 22 38
M  V30 41 1 27 39
M  V30 42 1 28 40
M  V30 END BOND
M  V30 END CTAB
M  END
>  <Dataset>  (764) 
ChEMBL_Kinases

>  <Ligand_Instance>  (764) 
nan

>  <PDB_ID>  (764) 
nan

>  <Standardized_SMILES>  (764) 
O=C(N/N=C/c1ccc(-c2cccc([N+](=O)[O-])c2)o1)c1ccc([N+](=O)[O-])cc1

>  <Name>  (764) 
nan

>  <Pocket>  (764) 
nan

>  <ATP_Site>  (764) 
nan

>  <Peripheral>  (764) 
nan

>  <Num_H_Atoms_ProtBoundConf>  (764) 
nan

>  <Num_Resolved_Atoms>  (764) 
nan

>  <Num_Not_Resolved_Atoms>  (764) 
nan

$$$$
CHEMBL199006
     RDKit          3D

  0  0  0  0  0  0  0  0  0  0999 V3000
M  V30 BEGIN CTAB
M  V30 COUNTS 43 46 0 0 0
M  V30 BEGIN ATOM
M  V30 1 C 1.743628 -2.179721 -1.260068 0
M  V30 2 C 0.651012 -1.412999 -0.646302 0
M  V30 3 C -0.291798 -0.873602 -1.477910 0
M  V30 4 C -0.370295 -0.919557 -2.938190 0
M  V30 5 C 0.587084 0.055510 -3.514858 0
M  V30 6 C 0.100407 1.364402 -3.613140 0
M  V30 7 C 0.849855 2.406335 -4.130978 0
M  V30 8 C 2.139429 2.181856 -4.580509 0
M  V30 9 C 2.623162 0.896117 -4.486310 0
M  V30 10 C 1.873417 -0.137480 -3.970373 0
M  V30 11 C -1.294451 -0.178806 -0.786898 0
M  V30 12 O -2.265172 0.396965 -1.361172 0
M  V30 13 O -1.387410 -0.018000 0.520817 0
M  V30 14 C -0.474958 -0.538523 1.334970 0
M  V30 15 C -0.580357 -0.364939 2.699961 0
M  V30 16 C 0.397033 -0.927735 3.498742 0
M  V30 17 O 0.189298 -0.688931 4.872841 0
M  V30 18 C -0.565801 -1.514940 5.652512 0
M  V30 19 O -1.051968 -2.503705 5.013401 0
M  V30 20 C -0.927386 -1.486958 7.083187 0
M  V30 21 C -1.285988 -0.193995 7.743354 0
M  V30 22 C -0.026541 -0.958224 8.128235 0
M  V30 23 C 1.437781 -1.636537 2.937794 0
M  V30 24 C 1.480987 -1.770971 1.566160 0
M  V30 25 C 0.536825 -1.234503 0.708593 0
M  V30 26 H 2.643511 -1.565164 -1.291810 0
M  V30 27 H 1.932816 -3.088170 -0.612115 0
M  V30 28 H 1.447045 -2.628743 -2.235278 0
M  V30 29 H -1.403698 -0.657422 -3.269912 0
M  V30 30 H -0.077602 -1.907729 -3.360801 0
M  V30 31 H -0.878473 1.718731 -3.313178 0
M  V30 32 H 0.522246 3.425958 -4.227549 0
M  V30 33 H 2.758732 2.964895 -4.991383 0
M  V30 34 H 3.629004 0.661072 -4.823947 0
M  V30 35 H 2.236034 -1.134579 -3.898335 0
M  V30 36 H -1.430197 0.208161 3.075469 0
M  V30 37 H -1.589983 -2.347494 7.394139 0
M  V30 38 H -2.129881 -0.161259 8.468662 0
M  V30 39 H -1.165613 0.729971 7.137492 0
M  V30 40 H -0.052265 -1.456520 9.119959 0
M  V30 41 H 0.969461 -0.528044 7.893794 0
M  V30 42 H 2.149838 -2.038138 3.627324 0
M  V30 43 H 2.326196 -2.335969 1.202399 0
M  V30 END ATOM
M  V30 BEGIN BOND
M  V30 1 1 1 2
M  V30 2 2 2 3
M  V30 3 1 3 4
M  V30 4 1 4 5
M  V30 5 2 5 6
M  V30 6 1 6 7
M  V30 7 2 7 8
M  V30 8 1 8 9
M  V30 9 2 9 10
M  V30 10 1 3 11
M  V30 11 2 11 12
M  V30 12 1 11 13
M  V30 13 1 13 14
M  V30 14 2 14 15
M  V30 15 1 15 16
M  V30 16 1 16 17
M  V30 17 1 17 18
M  V30 18 2 18 19
M  V30 19 1 18 20
M  V30 20 1 20 21
M  V30 21 1 21 22
M  V30 22 2 16 23
M  V30 23 1 23 24
M  V30 24 2 24 25
M  V30 25 1 25 2
M  V30 26 1 10 5
M  V30 27 1 25 14
M  V30 28 1 22 20
M  V30 29 1 1 26
M  V30 30 1 1 27
M  V30 31 1 1 28
M  V30 32 1 4 29
M  V30 33 1 4 30
M  V30 34 1 6 31
M  V30 35 1 7 32
M  V30 36 1 8 33
M  V30 37 1 9 34
M  V30 38 1 10 35
M  V30 39 1 15 36
M  V30 40 1 20 37
M  V30 41 1 21 38
M  V30 42 1 21 39
M  V30 43 1 22 40
M  V30 44 1 22 41
M  V30 45 1 23 42
M  V30 46 1 24 43
M  V30 END BOND
M  V30 END CTAB
M  END
>  <Dataset>  (765) 
ChEMBL_Kinases

>  <Ligand_Instance>  (765) 
nan

>  <PDB_ID>  (765) 
nan

>  <Standardized_SMILES>  (765) 
Cc1c(Cc2ccccc2)c(=O)oc2cc(OC(=O)C3CC3)ccc12

>  <Name>  (765) 
nan

>  <Pocket>  (765) 
nan

>  <ATP_Site>  (765) 
nan

>  <Peripheral>  (765) 
nan

>  <Num_H_Atoms_ProtBoundConf>  (765) 
nan

>  <Num_Resolved_Atoms>  (765) 
nan

>  <Num_Not_Resolved_Atoms>  (765) 
nan

$$$$
CHEMBL199074
     RDKit          3D

  0  0  0  0  0  0  0  0  0  0999 V3000
M  V30 BEGIN CTAB
M  V30 COUNTS 43 45 0 0 0
M  V30 BEGIN ATOM
M  V30 1 O 1.029445 1.368738 1.945633 0
M  V30 2 C 1.317982 0.221995 1.517818 0
M  V30 3 N 2.659066 -0.136970 1.279300 0
M  V30 4 C 3.831846 0.695448 1.473106 0
M  V30 5 C 3.893207 1.652207 0.337888 0
M  V30 6 C 4.593827 1.181414 -0.778099 0
M  V30 7 C 4.731711 1.983543 -1.914610 0
M  V30 8 C 4.196409 3.250155 -1.991881 0
M  V30 9 C 4.378652 4.047963 -3.226345 0
M  V30 10 F 3.535206 3.684587 -4.238479 0
M  V30 11 F 5.665123 3.954791 -3.716121 0
M  V30 12 F 4.153084 5.405295 -2.980209 0
M  V30 13 C 3.514319 3.681370 -0.877873 0
M  V30 14 C 3.362202 2.914127 0.256135 0
M  V30 15 C 0.186328 -0.670097 1.298171 0
M  V30 16 C -1.088399 -0.202057 1.540480 0
M  V30 17 C -2.245341 -0.965415 1.366897 0
M  V30 18 C -2.112304 -2.266530 0.926948 0
M  V30 19 O -3.272765 -3.023491 0.755790 0
M  V30 20 C -3.765780 -3.772696 1.824521 0
M  V30 21 C -4.652908 -3.031364 2.592969 0
M  V30 22 C -5.264667 -3.573043 3.704525 0
M  V30 23 C -4.993648 -4.891110 4.072634 0
M  V30 24 C -4.107867 -5.611004 3.294218 0
M  V30 25 C -3.496146 -5.075531 2.186251 0
M  V30 26 C -0.842244 -2.746148 0.681060 0
M  V30 27 C 0.301792 -1.991048 0.852742 0
M  V30 28 H 2.850477 -1.108342 0.922232 0
M  V30 29 H 3.667433 1.286476 2.409231 0
M  V30 30 H 4.754124 0.107415 1.520201 0
M  V30 31 H 5.053670 0.199141 -0.820709 0
M  V30 32 H 5.281793 1.617949 -2.793555 0
M  V30 33 H 3.077466 4.666750 -0.891314 0
M  V30 34 H 2.833936 3.248048 1.126127 0
M  V30 35 H -1.291076 0.807767 1.888156 0
M  V30 36 H -3.233822 -0.566205 1.565518 0
M  V30 37 H -4.960766 -1.994985 2.429497 0
M  V30 38 H -5.972668 -3.030171 4.344517 0
M  V30 39 H -5.469246 -5.331415 4.947493 0
M  V30 40 H -3.862562 -6.646402 3.540635 0
M  V30 41 H -2.801214 -5.556889 1.529637 0
M  V30 42 H -0.752111 -3.784223 0.330835 0
M  V30 43 H 1.291401 -2.379424 0.656819 0
M  V30 END ATOM
M  V30 BEGIN BOND
M  V30 1 2 1 2
M  V30 2 1 2 3
M  V30 3 1 3 4
M  V30 4 1 4 5
M  V30 5 2 5 6
M  V30 6 1 6 7
M  V30 7 2 7 8
M  V30 8 1 8 9
M  V30 9 1 9 10
M  V30 10 1 9 11
M  V30 11 1 9 12
M  V30 12 1 8 13
M  V30 13 2 13 14
M  V30 14 1 2 15
M  V30 15 2 15 16
M  V30 16 1 16 17
M  V30 17 2 17 18
M  V30 18 1 18 19
M  V30 19 1 19 20
M  V30 20 2 20 21
M  V30 21 1 21 22
M  V30 22 2 22 23
M  V30 23 1 23 24
M  V30 24 2 24 25
M  V30 25 1 18 26
M  V30 26 2 26 27
M  V30 27 1 14 5
M  V30 28 1 27 15
M  V30 29 1 25 20
M  V30 30 1 3 28
M  V30 31 1 4 29
M  V30 32 1 4 30
M  V30 33 1 6 31
M  V30 34 1 7 32
M  V30 35 1 13 33
M  V30 36 1 14 34
M  V30 37 1 16 35
M  V30 38 1 17 36
M  V30 39 1 21 37
M  V30 40 1 22 38
M  V30 41 1 23 39
M  V30 42 1 24 40
M  V30 43 1 25 41
M  V30 44 1 26 42
M  V30 45 1 27 43
M  V30 END BOND
M  V30 END CTAB
M  END
>  <Dataset>  (766) 
ChEMBL_Kinases

>  <Ligand_Instance>  (766) 
nan

>  <PDB_ID>  (766) 
nan

>  <Standardized_SMILES>  (766) 
O=C(NCc1ccc(C(F)(F)F)cc1)c1ccc(Oc2ccccc2)cc1

>  <Name>  (766) 
nan

>  <Pocket>  (766) 
nan

>  <ATP_Site>  (766) 
nan

>  <Peripheral>  (766) 
nan

>  <Num_H_Atoms_ProtBoundConf>  (766) 
nan

>  <Num_Resolved_Atoms>  (766) 
nan

>  <Num_Not_Resolved_Atoms>  (766) 
nan

$$$$
CHEMBL198832
     RDKit          3D

  0  0  0  0  0  0  0  0  0  0999 V3000
M  V30 BEGIN CTAB
M  V30 COUNTS 44 46 0 0 0
M  V30 BEGIN ATOM
M  V30 1 O 2.329009 -1.398088 -0.561292 0
M  V30 2 C 1.650464 -0.800725 0.295890 0
M  V30 3 N 2.174682 0.346372 0.915390 0
M  V30 4 C 3.461638 0.978508 0.692417 0
M  V30 5 C 3.346308 1.738323 -0.582967 0
M  V30 6 C 3.637008 1.293791 -1.857181 0
M  V30 7 C 3.475683 2.125544 -2.954192 0
M  V30 8 C 3.022854 3.420612 -2.826148 0
M  V30 9 C 2.709045 3.941197 -1.574346 0
M  V30 10 O 2.245441 5.224040 -1.309680 0
M  V30 11 C 3.233684 6.206036 -1.059015 0
M  V30 12 F 4.067936 6.341348 -2.134625 0
M  V30 13 F 2.604752 7.376133 -0.682526 0
M  V30 14 F 3.997519 5.763856 0.022342 0
M  V30 15 C 2.890623 3.062855 -0.518839 0
M  V30 16 C 0.334155 -1.352389 0.596213 0
M  V30 17 C -0.065796 -2.494462 -0.078933 0
M  V30 18 C -1.305504 -3.098050 0.134760 0
M  V30 19 C -2.182651 -2.554339 1.048017 0
M  V30 20 O -3.434596 -3.091431 1.320485 0
M  V30 21 C -3.479435 -4.033644 2.342457 0
M  V30 22 C -3.717998 -3.406214 3.565756 0
M  V30 23 C -3.804952 -4.158952 4.743890 0
M  V30 24 C -3.650654 -5.530301 4.673249 0
M  V30 25 C -3.415243 -6.133592 3.455987 0
M  V30 26 C -3.327355 -5.403058 2.288772 0
M  V30 27 C -1.803051 -1.412795 1.733961 0
M  V30 28 C -0.565454 -0.841192 1.496458 0
M  V30 29 H 1.551611 0.800486 1.629240 0
M  V30 30 H 3.699036 1.708192 1.473326 0
M  V30 31 H 4.284789 0.235837 0.633177 0
M  V30 32 H 3.989502 0.284593 -1.928675 0
M  V30 33 H 3.713697 1.739633 -3.934611 0
M  V30 34 H 2.888425 4.089264 -3.661996 0
M  V30 35 H 2.648395 3.452361 0.484216 0
M  V30 36 H 0.544230 -3.019094 -0.829479 0
M  V30 37 H -1.624970 -3.993450 -0.390799 0
M  V30 38 H -3.857486 -2.356626 3.772198 0
M  V30 39 H -3.987210 -3.744810 5.721764 0
M  V30 40 H -3.713705 -6.136118 5.570837 0
M  V30 41 H -3.290054 -7.191524 3.358841 0
M  V30 42 H -3.148262 -5.763484 1.288289 0
M  V30 43 H -2.440210 -0.928561 2.467332 0
M  V30 44 H -0.288016 0.043101 2.037627 0
M  V30 END ATOM
M  V30 BEGIN BOND
M  V30 1 2 1 2
M  V30 2 1 2 3
M  V30 3 1 3 4
M  V30 4 1 4 5
M  V30 5 2 5 6
M  V30 6 1 6 7
M  V30 7 2 7 8
M  V30 8 1 8 9
M  V30 9 1 9 10
M  V30 10 1 10 11
M  V30 11 1 11 12
M  V30 12 1 11 13
M  V30 13 1 11 14
M  V30 14 2 9 15
M  V30 15 1 2 16
M  V30 16 2 16 17
M  V30 17 1 17 18
M  V30 18 2 18 19
M  V30 19 1 19 20
M  V30 20 1 20 21
M  V30 21 2 21 22
M  V30 22 1 22 23
M  V30 23 2 23 24
M  V30 24 1 24 25
M  V30 25 2 25 26
M  V30 26 1 19 27
M  V30 27 2 27 28
M  V30 28 1 15 5
M  V30 29 1 28 16
M  V30 30 1 26 21
M  V30 31 1 3 29
M  V30 32 1 4 30
M  V30 33 1 4 31
M  V30 34 1 6 32
M  V30 35 1 7 33
M  V30 36 1 8 34
M  V30 37 1 15 35
M  V30 38 1 17 36
M  V30 39 1 18 37
M  V30 40 1 22 38
M  V30 41 1 23 39
M  V30 42 1 24 40
M  V30 43 1 25 41
M  V30 44 1 26 42
M  V30 45 1 27 43
M  V30 46 1 28 44
M  V30 END BOND
M  V30 END CTAB
M  END
>  <Dataset>  (767) 
ChEMBL_Kinases

>  <Ligand_Instance>  (767) 
nan

>  <PDB_ID>  (767) 
nan

>  <Standardized_SMILES>  (767) 
O=C(NCc1cccc(OC(F)(F)F)c1)c1ccc(Oc2ccccc2)cc1

>  <Name>  (767) 
nan

>  <Pocket>  (767) 
nan

>  <ATP_Site>  (767) 
nan

>  <Peripheral>  (767) 
nan

>  <Num_H_Atoms_ProtBoundConf>  (767) 
nan

>  <Num_Resolved_Atoms>  (767) 
nan

>  <Num_Not_Resolved_Atoms>  (767) 
nan

$$$$
CHEMBL1967037
     RDKit          3D

  0  0  0  0  0  0  0  0  0  0999 V3000
M  V30 BEGIN CTAB
M  V30 COUNTS 47 52 0 0 0
M  V30 BEGIN ATOM
M  V30 1 O 2.137631 -1.037125 -0.974272 0
M  V30 2 C 2.124865 0.155137 -0.513860 0
M  V30 3 C 2.756635 1.342994 -1.088642 0
M  V30 4 C 4.136826 1.210260 -1.594746 0
M  V30 5 C 4.467093 2.579045 -2.160343 0
M  V30 6 C 4.388960 3.518519 -1.190503 0
M  V30 7 C 4.035861 2.991426 0.187686 0
M  V30 8 C 5.158806 2.063179 0.501560 0
M  V30 9 C 5.049841 0.647447 0.811858 0
M  V30 10 C 5.204680 0.955930 -0.604086 0
M  V30 11 C 2.703497 2.364799 0.006154 0
M  V30 12 C 2.099604 1.709637 1.161409 0
M  V30 13 O 2.154208 2.143550 2.362236 0
M  V30 14 N 1.450835 0.517379 0.700621 0
M  V30 15 N 0.384674 -0.118970 1.343020 0
M  V30 16 C -0.558755 0.486583 1.959937 0
M  V30 17 C -1.545046 -0.455370 2.539563 0
M  V30 18 C -1.862929 -0.679834 3.874191 0
M  V30 19 C -2.845244 -1.658052 3.870331 0
M  V30 20 C -3.077661 -1.980603 2.547869 0
M  V30 21 C -4.045768 -2.977192 2.072661 0
M  V30 22 C -4.144315 -3.170787 0.689609 0
M  V30 23 C -5.031551 -4.089571 0.174491 0
M  V30 24 C -5.783977 -4.774451 1.103338 0
M  V30 25 N -6.727598 -5.746453 0.631300 0 CHG=1 VAL=4
M  V30 26 O -6.888623 -5.990169 -0.577136 0
M  V30 27 O -7.499389 -6.452559 1.533452 0 CHG=-1 VAL=1
M  V30 28 C -5.722896 -4.619118 2.472385 0
M  V30 29 C -4.811534 -3.678071 2.962144 0
M  V30 30 O -2.293807 -1.252903 1.783899 0
M  V30 31 H 2.117488 1.643390 -1.965428 0
M  V30 32 H 4.231404 0.498839 -2.419647 0
M  V30 33 H 4.721777 2.748118 -3.183186 0
M  V30 34 H 4.551496 4.566044 -1.318177 0
M  V30 35 H 4.022013 3.802512 0.920943 0
M  V30 36 H 6.121645 2.613000 0.672696 0
M  V30 37 H 5.973762 0.213268 1.290465 0
M  V30 38 H 4.168643 0.159039 1.247577 0
M  V30 39 H 6.218818 0.864776 -1.091892 0
M  V30 40 H 2.012773 3.187738 -0.329837 0
M  V30 41 H -0.530272 1.549605 1.986161 0
M  V30 42 H -1.399343 -0.162413 4.684485 0
M  V30 43 H -3.314618 -2.063688 4.764997 0
M  V30 44 H -3.536548 -2.614642 -0.018119 0
M  V30 45 H -5.125532 -4.256207 -0.883717 0
M  V30 46 H -6.329547 -5.175760 3.156645 0
M  V30 47 H -4.728795 -3.522546 4.021504 0
M  V30 END ATOM
M  V30 BEGIN BOND
M  V30 1 2 1 2
M  V30 2 1 2 3
M  V30 3 1 3 4
M  V30 4 1 4 5
M  V30 5 2 5 6
M  V30 6 1 6 7
M  V30 7 1 7 8
M  V30 8 1 8 9
M  V30 9 1 9 10
M  V30 10 1 7 11
M  V30 11 1 11 12
M  V30 12 2 12 13
M  V30 13 1 12 14
M  V30 14 1 14 15
M  V30 15 2 15 16
M  V30 16 1 16 17
M  V30 17 2 17 18
M  V30 18 1 18 19
M  V30 19 2 19 20
M  V30 20 1 20 21
M  V30 21 2 21 22
M  V30 22 1 22 23
M  V30 23 2 23 24
M  V30 24 1 24 25
M  V30 25 2 25 26
M  V30 26 1 25 27
M  V30 27 1 24 28
M  V30 28 2 28 29
M  V30 29 1 20 30
M  V30 30 1 14 2
M  V30 31 1 30 17
M  V30 32 1 11 3
M  V30 33 1 29 21
M  V30 34 1 10 4
M  V30 35 1 10 8
M  V30 36 1 3 31
M  V30 37 1 4 32
M  V30 38 1 5 33
M  V30 39 1 6 34
M  V30 40 1 7 35
M  V30 41 1 8 36
M  V30 42 1 9 37
M  V30 43 1 9 38
M  V30 44 1 10 39
M  V30 45 1 11 40
M  V30 46 1 16 41
M  V30 47 1 18 42
M  V30 48 1 19 43
M  V30 49 1 22 44
M  V30 50 1 23 45
M  V30 51 1 28 46
M  V30 52 1 29 47
M  V30 END BOND
M  V30 END CTAB
M  END
>  <Dataset>  (768) 
ChEMBL_Kinases

>  <Ligand_Instance>  (768) 
nan

>  <PDB_ID>  (768) 
nan

>  <Standardized_SMILES>  (768) 
O=C1C2C3C=CC(C4CC34)C2C(=O)N1/N=C/c1ccc(-c2ccc([N+](=O)[O-])cc2)o1

>  <Name>  (768) 
nan

>  <Pocket>  (768) 
nan

>  <ATP_Site>  (768) 
nan

>  <Peripheral>  (768) 
nan

>  <Num_H_Atoms_ProtBoundConf>  (768) 
nan

>  <Num_Resolved_Atoms>  (768) 
nan

>  <Num_Not_Resolved_Atoms>  (768) 
nan

$$$$
CHEMBL1967031
     RDKit          3D

  0  0  0  0  0  0  0  0  0  0999 V3000
M  V30 BEGIN CTAB
M  V30 COUNTS 40 41 0 0 0
M  V30 BEGIN ATOM
M  V30 1 C 0.206211 -6.381272 2.286542 0
M  V30 2 C 1.432564 -5.601144 2.739852 0
M  V30 3 C 1.287363 -4.182207 2.231208 0
M  V30 4 O 1.220582 -4.200994 0.822113 0
M  V30 5 C 1.075291 -2.999686 0.146250 0
M  V30 6 C 0.994012 -2.875288 -1.240450 0
M  V30 7 C 0.846159 -1.654330 -1.859695 0
M  V30 8 C 0.769636 -0.482831 -1.127063 0
M  V30 9 C 0.604123 0.784163 -1.850796 0
M  V30 10 N 0.542901 1.769249 -1.069349 0
M  V30 11 N 0.387440 3.111641 -1.363982 0
M  V30 12 C -0.081428 3.516249 -0.079904 0
M  V30 13 C 0.742719 4.284509 0.750301 0
M  V30 14 C 0.290301 4.673718 2.009930 0
M  V30 15 C -0.976489 4.298865 2.440999 0
M  V30 16 C -1.840609 3.544632 1.680180 0
M  V30 17 C -1.320104 3.201766 0.452187 0
M  V30 18 N -2.113381 2.399033 -0.415686 0 CHG=1 VAL=4
M  V30 19 O -2.939541 1.632024 0.101034 0
M  V30 20 O -2.389209 2.069296 -1.720270 0 CHG=-1 VAL=1
M  V30 21 C 0.851034 -0.604777 0.239733 0
M  V30 22 O 0.771763 0.576140 0.975389 0
M  V30 23 C 0.998266 -1.822465 0.846137 0
M  V30 24 H 0.384040 -7.459193 2.465198 0
M  V30 25 H -0.656853 -6.047219 2.900475 0
M  V30 26 H -0.042839 -6.178166 1.227201 0
M  V30 27 H 2.316617 -6.083845 2.278443 0
M  V30 28 H 1.449017 -5.604824 3.851565 0
M  V30 29 H 2.192463 -3.604639 2.561477 0
M  V30 30 H 0.425281 -3.694176 2.702587 0
M  V30 31 H 1.056901 -3.789217 -1.804673 0
M  V30 32 H 0.796518 -1.688420 -2.927638 0
M  V30 33 H 0.531977 0.953501 -2.902773 0
M  V30 34 H 0.448977 3.927201 -2.026797 0
M  V30 35 H 1.729049 4.599452 0.467837 0
M  V30 36 H 0.910550 5.266969 2.667148 0
M  V30 37 H -1.324937 4.606410 3.435829 0
M  V30 38 H -2.831904 3.225843 1.961279 0
M  V30 39 H 0.408971 0.487035 1.914710 0
M  V30 40 H 1.050048 -1.821447 1.939298 0
M  V30 END ATOM
M  V30 BEGIN BOND
M  V30 1 1 1 2
M  V30 2 1 2 3
M  V30 3 1 3 4
M  V30 4 1 4 5
M  V30 5 2 5 6
M  V30 6 1 6 7
M  V30 7 2 7 8
M  V30 8 1 8 9
M  V30 9 2 9 10
M  V30 10 1 10 11
M  V30 11 1 11 12
M  V30 12 2 12 13
M  V30 13 1 13 14
M  V30 14 2 14 15
M  V30 15 1 15 16
M  V30 16 2 16 17
M  V30 17 1 17 18
M  V30 18 2 18 19
M  V30 19 1 18 20
M  V30 20 1 8 21
M  V30 21 1 21 22
M  V30 22 2 21 23
M  V30 23 1 23 5
M  V30 24 1 17 12
M  V30 25 1 1 24
M  V30 26 1 1 25
M  V30 27 1 1 26
M  V30 28 1 2 27
M  V30 29 1 2 28
M  V30 30 1 3 29
M  V30 31 1 3 30
M  V30 32 1 6 31
M  V30 33 1 7 32
M  V30 34 1 9 33
M  V30 35 1 11 34
M  V30 36 1 13 35
M  V30 37 1 14 36
M  V30 38 1 15 37
M  V30 39 1 16 38
M  V30 40 1 22 39
M  V30 41 1 23 40
M  V30 END BOND
M  V30 END CTAB
M  END
>  <Dataset>  (769) 
ChEMBL_Kinases

>  <Ligand_Instance>  (769) 
nan

>  <PDB_ID>  (769) 
nan

>  <Standardized_SMILES>  (769) 
CCCOc1ccc(/C=N/Nc2ccccc2[N+](=O)[O-])c(O)c1

>  <Name>  (769) 
nan

>  <Pocket>  (769) 
nan

>  <ATP_Site>  (769) 
nan

>  <Peripheral>  (769) 
nan

>  <Num_H_Atoms_ProtBoundConf>  (769) 
nan

>  <Num_Resolved_Atoms>  (769) 
nan

>  <Num_Not_Resolved_Atoms>  (769) 
nan

$$$$
CHEMBL1966751
     RDKit          3D

  0  0  0  0  0  0  0  0  0  0999 V3000
M  V30 BEGIN CTAB
M  V30 COUNTS 36 37 0 0 0
M  V30 BEGIN ATOM
M  V30 1 C 2.616871 -6.337302 -0.724963 0
M  V30 2 O 3.643966 -5.396772 -0.498766 0
M  V30 3 C 3.294076 -4.077641 -0.238230 0
M  V30 4 C 1.958541 -3.748914 -0.213109 0
M  V30 5 C 1.633304 -2.446002 0.044860 0
M  V30 6 C 2.506185 -1.410465 0.285954 0
M  V30 7 C 2.183563 -0.023307 0.561387 0
M  V30 8 O 3.170773 0.754489 0.753604 0
M  V30 9 C 0.877534 0.602474 0.648265 0
M  V30 10 C -0.419503 0.044251 0.491353 0
M  V30 11 N -1.469771 -0.429712 0.364879 0
M  V30 12 N 0.866509 1.868640 0.909123 0
M  V30 13 N -0.303515 2.629590 1.028267 0
M  V30 14 C -1.724094 2.621311 0.885617 0
M  V30 15 C -2.222844 2.977679 -0.352398 0
M  V30 16 C -3.599912 2.986432 -0.547663 0
M  V30 17 C -4.370662 2.629565 0.538622 0
M  V30 18 C -3.879957 2.272775 1.776875 0
M  V30 19 C -2.510943 2.266889 1.961634 0
M  V30 20 N -1.928114 1.910869 3.209319 0 CHG=1 VAL=4
M  V30 21 O -0.846236 2.495540 3.475993 0
M  V30 22 O -2.683457 0.968736 3.902907 0 CHG=-1 VAL=1
M  V30 23 C 3.823656 -1.817837 0.244061 0
M  V30 24 C 4.224968 -3.100799 -0.007360 0
M  V30 25 H 3.043185 -7.332796 -0.956021 0
M  V30 26 H 1.954205 -6.022254 -1.568448 0
M  V30 27 H 1.967657 -6.413119 0.167243 0
M  V30 28 H 1.210093 -4.497546 -0.390951 0
M  V30 29 H 0.579321 -2.218985 0.058102 0
M  V30 30 H 0.305341 3.434011 1.336590 0
M  V30 31 H -1.572077 3.250816 -1.177074 0
M  V30 32 H -4.018269 3.260938 -1.505215 0
M  V30 33 H -5.448155 2.648245 0.346371 0
M  V30 34 H -4.554046 1.999441 2.597851 0
M  V30 35 H 4.634745 -1.102179 0.416914 0
M  V30 36 H 5.270726 -3.373932 -0.030606 0
M  V30 END ATOM
M  V30 BEGIN BOND
M  V30 1 1 1 2
M  V30 2 1 2 3
M  V30 3 2 3 4
M  V30 4 1 4 5
M  V30 5 2 5 6
M  V30 6 1 6 7
M  V30 7 2 7 8
M  V30 8 1 7 9
M  V30 9 1 9 10
M  V30 10 3 10 11
M  V30 11 2 9 12
M  V30 12 1 12 13
M  V30 13 1 13 14
M  V30 14 2 14 15
M  V30 15 1 15 16
M  V30 16 2 16 17
M  V30 17 1 17 18
M  V30 18 2 18 19
M  V30 19 1 19 20
M  V30 20 2 20 21
M  V30 21 1 20 22
M  V30 22 1 6 23
M  V30 23 2 23 24
M  V30 24 1 24 3
M  V30 25 1 19 14
M  V30 26 1 1 25
M  V30 27 1 1 26
M  V30 28 1 1 27
M  V30 29 1 4 28
M  V30 30 1 5 29
M  V30 31 1 13 30
M  V30 32 1 15 31
M  V30 33 1 16 32
M  V30 34 1 17 33
M  V30 35 1 18 34
M  V30 36 1 23 35
M  V30 37 1 24 36
M  V30 END BOND
M  V30 END CTAB
M  END
>  <Dataset>  (770) 
ChEMBL_Kinases

>  <Ligand_Instance>  (770) 
nan

>  <PDB_ID>  (770) 
nan

>  <Standardized_SMILES>  (770) 
COc1ccc(C(=O)/C(C#N)=N/Nc2ccccc2[N+](=O)[O-])cc1

>  <Name>  (770) 
nan

>  <Pocket>  (770) 
nan

>  <ATP_Site>  (770) 
nan

>  <Peripheral>  (770) 
nan

>  <Num_H_Atoms_ProtBoundConf>  (770) 
nan

>  <Num_Resolved_Atoms>  (770) 
nan

>  <Num_Not_Resolved_Atoms>  (770) 
nan

$$$$
CHEMBL196659
     RDKit          3D

  0  0  0  0  0  0  0  0  0  0999 V3000
M  V30 BEGIN CTAB
M  V30 COUNTS 49 50 0 0 0
M  V30 BEGIN ATOM
M  V30 1 C 3.288215 -5.641934 4.362390 0
M  V30 2 O 3.602597 -4.315668 3.971048 0
M  V30 3 C 4.364666 -4.074553 2.820950 0
M  V30 4 O 4.709387 -5.106443 2.223513 0
M  V30 5 N 4.678117 -2.735329 2.431796 0
M  V30 6 C 5.462043 -2.653294 1.237470 0
M  V30 7 C 5.752135 -1.205686 0.890956 0
M  V30 8 C 4.490255 -0.454559 0.672984 0
M  V30 9 O 3.433337 -1.115139 0.806254 0
M  V30 10 N 4.436145 0.916550 0.335786 0
M  V30 11 C 3.292720 1.719356 0.108371 0
M  V30 12 C 3.481957 3.044280 -0.211301 0
M  V30 13 C 2.431837 3.901917 -0.449638 0
M  V30 14 C 1.123314 3.481684 -0.381737 0
M  V30 15 C 0.910717 2.168536 -0.065571 0
M  V30 16 C -0.437250 1.686601 0.016597 0
M  V30 17 C -1.561234 1.263506 0.079167 0
M  V30 18 C -2.964358 0.707757 0.163262 0
M  V30 19 C -4.002653 1.156886 -0.514555 0
M  V30 20 C -5.217420 0.572172 -0.352841 0
M  V30 21 C -6.475946 0.923836 -1.008544 0
M  V30 22 N -6.525527 1.994207 -1.943230 0
M  V30 23 O -7.525320 0.285227 -0.753674 0
M  V30 24 C -5.287100 -0.491786 0.542629 0
M  V30 25 N -6.316600 -1.380293 1.017419 0
M  V30 26 C -6.451098 -2.565251 0.236586 0
M  V30 27 N -7.416925 -3.516274 0.589505 0
M  V30 28 O -5.711019 -2.763598 -0.764837 0
M  V30 29 S -3.487651 -0.589314 1.131829 0
M  V30 30 C 1.979855 1.330850 0.168418 0
M  V30 31 H 3.317625 -5.747321 5.461584 0
M  V30 32 H 4.051360 -6.338692 3.923014 0
M  V30 33 H 2.257212 -5.854039 3.998577 0
M  V30 34 H 4.362477 -1.914435 2.970473 0
M  V30 35 H 6.443891 -3.141757 1.332840 0
M  V30 36 H 4.905829 -3.117496 0.417690 0
M  V30 37 H 6.367654 -0.754064 1.710894 0
M  V30 38 H 6.357309 -1.120093 -0.033481 0
M  V30 39 H 5.381158 1.327283 0.260861 0
M  V30 40 H 4.503020 3.430809 -0.278646 0
M  V30 41 H 2.673784 4.922278 -0.693255 0
M  V30 42 H 0.312866 4.151238 -0.567559 0
M  V30 43 H -3.911993 2.003097 -1.216853 0
M  V30 44 H -6.894115 1.794581 -2.916215 0
M  V30 45 H -6.227302 2.953774 -1.740709 0
M  V30 46 H -6.922511 -1.199179 1.852008 0
M  V30 47 H -8.120732 -4.208408 0.878684 0
M  V30 48 H -8.058238 -4.167362 0.117034 0
M  V30 49 H 1.736411 0.328092 0.407656 0
M  V30 END ATOM
M  V30 BEGIN BOND
M  V30 1 1 1 2
M  V30 2 1 2 3
M  V30 3 2 3 4
M  V30 4 1 3 5
M  V30 5 1 5 6
M  V30 6 1 6 7
M  V30 7 1 7 8
M  V30 8 2 8 9
M  V30 9 1 8 10
M  V30 10 1 10 11
M  V30 11 2 11 12
M  V30 12 1 12 13
M  V30 13 2 13 14
M  V30 14 1 14 15
M  V30 15 1 15 16
M  V30 16 3 16 17
M  V30 17 1 17 18
M  V30 18 2 18 19
M  V30 19 1 19 20
M  V30 20 1 20 21
M  V30 21 1 21 22
M  V30 22 2 21 23
M  V30 23 2 20 24
M  V30 24 1 24 25
M  V30 25 1 25 26
M  V30 26 1 26 27
M  V30 27 2 26 28
M  V30 28 1 24 29
M  V30 29 2 15 30
M  V30 30 1 30 11
M  V30 31 1 29 18
M  V30 32 1 1 31
M  V30 33 1 1 32
M  V30 34 1 1 33
M  V30 35 1 5 34
M  V30 36 1 6 35
M  V30 37 1 6 36
M  V30 38 1 7 37
M  V30 39 1 7 38
M  V30 40 1 10 39
M  V30 41 1 12 40
M  V30 42 1 13 41
M  V30 43 1 14 42
M  V30 44 1 19 43
M  V30 45 1 22 44
M  V30 46 1 22 45
M  V30 47 1 25 46
M  V30 48 1 27 47
M  V30 49 1 27 48
M  V30 50 1 30 49
M  V30 END BOND
M  V30 END CTAB
M  END
>  <Dataset>  (771) 
ChEMBL_Kinases

>  <Ligand_Instance>  (771) 
nan

>  <PDB_ID>  (771) 
nan

>  <Standardized_SMILES>  (771) 
COC(=O)NCCC(=O)Nc1cccc(C#Cc2cc(C(N)=O)c(NC(N)=O)s2)c1

>  <Name>  (771) 
nan

>  <Pocket>  (771) 
nan

>  <ATP_Site>  (771) 
nan

>  <Peripheral>  (771) 
nan

>  <Num_H_Atoms_ProtBoundConf>  (771) 
nan

>  <Num_Resolved_Atoms>  (771) 
nan

>  <Num_Not_Resolved_Atoms>  (771) 
nan

$$$$
CHEMBL196653
     RDKit          3D

  0  0  0  0  0  0  0  0  0  0999 V3000
M  V30 BEGIN CTAB
M  V30 COUNTS 45 47 0 0 0
M  V30 BEGIN ATOM
M  V30 1 N -0.477233 -9.104706 1.407207 0
M  V30 2 C -0.509157 -7.775732 0.945008 0
M  V30 3 O -0.939342 -6.930804 1.785548 0
M  V30 4 N -0.100314 -7.374876 -0.352560 0
M  V30 5 C -0.219193 -5.981856 -0.600630 0
M  V30 6 S 1.170796 -4.760068 -0.245760 0
M  V30 7 C 0.292621 -3.356945 -0.786184 0
M  V30 8 C 0.803208 -2.028015 -0.783784 0
M  V30 9 C 1.217010 -0.895798 -0.788888 0
M  V30 10 C 1.716132 0.456578 -0.772291 0
M  V30 11 C 2.159433 1.054865 -1.947538 0
M  V30 12 C 2.639726 2.352548 -1.938830 0
M  V30 13 C 2.692827 3.090164 -0.765060 0
M  V30 14 C 2.251942 2.495803 0.405100 0
M  V30 15 N 2.262144 3.170420 1.682574 0
M  V30 16 C 1.019798 3.843553 1.846898 0
M  V30 17 O 0.211608 3.715542 0.889770 0
M  V30 18 C 0.642781 4.639652 3.009515 0
M  V30 19 C -0.614897 5.206453 2.960316 0
M  V30 20 C -0.991876 5.972714 4.066847 0
M  V30 21 C -0.139426 6.150451 5.156695 0
M  V30 22 C 1.108040 5.559278 5.151020 0
M  V30 23 C 1.486547 4.802790 4.064218 0
M  V30 24 C 1.771718 1.194025 0.387942 0
M  V30 25 C -0.940579 -3.806331 -1.193287 0
M  V30 26 C -1.245342 -5.131636 -1.117358 0
M  V30 27 C -2.495871 -5.760703 -1.504972 0
M  V30 28 N -3.553278 -4.967824 -2.025353 0
M  V30 29 O -2.594799 -7.003571 -1.362156 0
M  V30 30 H -1.190512 -9.490023 2.064229 0
M  V30 31 H -0.238871 -10.102187 1.598921 0
M  V30 32 H 0.248234 -8.087564 -1.021949 0
M  V30 33 H 2.135187 0.505853 -2.902384 0
M  V30 34 H 2.985629 2.811759 -2.870908 0
M  V30 35 H 3.062200 4.106225 -0.722716 0
M  V30 36 H 2.959503 3.253684 2.457325 0
M  V30 37 H -1.306611 5.088513 2.125389 0
M  V30 38 H -1.983660 6.420705 4.029967 0
M  V30 39 H -0.470932 6.754379 5.998321 0
M  V30 40 H 1.770122 5.697949 5.998661 0
M  V30 41 H 2.464227 4.361731 4.101622 0
M  V30 42 H 1.434800 0.746910 1.296133 0
M  V30 43 H -1.656024 -3.092692 -1.571129 0
M  V30 44 H -3.801236 -4.028214 -1.614048 0
M  V30 45 H -4.208247 -5.146001 -2.821299 0
M  V30 END ATOM
M  V30 BEGIN BOND
M  V30 1 1 1 2
M  V30 2 2 2 3
M  V30 3 1 2 4
M  V30 4 1 4 5
M  V30 5 1 5 6
M  V30 6 1 6 7
M  V30 7 1 7 8
M  V30 8 3 8 9
M  V30 9 1 9 10
M  V30 10 2 10 11
M  V30 11 1 11 12
M  V30 12 2 12 13
M  V30 13 1 13 14
M  V30 14 1 14 15
M  V30 15 1 15 16
M  V30 16 2 16 17
M  V30 17 1 16 18
M  V30 18 2 18 19
M  V30 19 1 19 20
M  V30 20 2 20 21
M  V30 21 1 21 22
M  V30 22 2 22 23
M  V30 23 2 14 24
M  V30 24 2 7 25
M  V30 25 1 25 26
M  V30 26 1 26 27
M  V30 27 1 27 28
M  V30 28 2 27 29
M  V30 29 2 26 5
M  V30 30 1 24 10
M  V30 31 1 23 18
M  V30 32 1 1 30
M  V30 33 1 1 31
M  V30 34 1 4 32
M  V30 35 1 11 33
M  V30 36 1 12 34
M  V30 37 1 13 35
M  V30 38 1 15 36
M  V30 39 1 19 37
M  V30 40 1 20 38
M  V30 41 1 21 39
M  V30 42 1 22 40
M  V30 43 1 23 41
M  V30 44 1 24 42
M  V30 45 1 25 43
M  V30 46 1 28 44
M  V30 47 1 28 45
M  V30 END BOND
M  V30 END CTAB
M  END
>  <Dataset>  (772) 
ChEMBL_Kinases

>  <Ligand_Instance>  (772) 
nan

>  <PDB_ID>  (772) 
nan

>  <Standardized_SMILES>  (772) 
NC(=O)Nc1sc(C#Cc2cccc(NC(=O)c3ccccc3)c2)cc1C(N)=O

>  <Name>  (772) 
nan

>  <Pocket>  (772) 
nan

>  <ATP_Site>  (772) 
nan

>  <Peripheral>  (772) 
nan

>  <Num_H_Atoms_ProtBoundConf>  (772) 
nan

>  <Num_Resolved_Atoms>  (772) 
nan

>  <Num_Not_Resolved_Atoms>  (772) 
nan

$$$$
CHEMBL196588
     RDKit          3D

  0  0  0  0  0  0  0  0  0  0999 V3000
M  V30 BEGIN CTAB
M  V30 COUNTS 57 60 0 0 0
M  V30 BEGIN ATOM
M  V30 1 C 1.546653 0.624895 4.045735 0
M  V30 2 C 2.853360 -0.102640 3.835704 0
M  V30 3 O 2.669803 -1.458639 4.075682 0
M  V30 4 C 3.483452 0.183571 2.506175 0 CFG=1
M  V30 5 C 4.928949 -0.227964 2.523078 0
M  V30 6 N 2.755055 -0.275146 1.380428 0
M  V30 7 C 3.482719 0.066702 0.172383 0
M  V30 8 C 2.541243 0.059306 -1.026243 0
M  V30 9 C 1.880510 -1.271529 -1.102263 0
M  V30 10 C 0.379009 -1.161309 -1.038397 0
M  V30 11 C -0.369726 -0.621041 0.008488 0
M  V30 12 C -1.716857 -0.689705 -0.286164 0
M  V30 13 C -2.869209 -0.254635 0.494864 0
M  V30 14 C -3.121398 -0.815387 1.751590 0
M  V30 15 C -4.243738 -0.307247 2.371790 0
M  V30 16 N -5.032097 0.641040 1.828465 0
M  V30 17 C -4.786209 1.177762 0.619694 0
M  V30 18 C -3.675348 0.713477 -0.058005 0
M  V30 19 C -1.773485 -1.281662 -1.531118 0
M  V30 20 C -2.963055 -1.595431 -2.321218 0
M  V30 21 C -3.857372 -2.500461 -1.784727 0
M  V30 22 C -5.001011 -2.843141 -2.475494 0
M  V30 23 C -5.266266 -2.280613 -3.720584 0
M  V30 24 F -6.380916 -2.588124 -4.438007 0
M  V30 25 C -4.369856 -1.361893 -4.278004 0
M  V30 26 C -3.231593 -1.035311 -3.566128 0
M  V30 27 N -0.523206 -1.550000 -1.952811 0
M  V30 28 C 2.340273 -2.220086 -0.046631 0
M  V30 29 C 2.444398 -1.666326 1.332315 0
M  V30 30 H 1.663766 1.584841 4.604562 0
M  V30 31 H 1.095250 0.924431 3.065609 0
M  V30 32 H 0.813308 0.017057 4.635893 0
M  V30 33 H 3.553541 0.265575 4.616644 0
M  V30 34 H 2.997849 -1.776016 4.932659 0
M  V30 35 H 3.492338 1.311605 2.426842 0
M  V30 36 H 5.271398 -0.223677 3.578231 0
M  V30 37 H 5.113784 -1.244811 2.126668 0
M  V30 38 H 5.572716 0.540885 2.017643 0
M  V30 39 H 4.234668 -0.738722 0.013017 0
M  V30 40 H 3.944366 1.067100 0.236544 0
M  V30 41 H 3.194803 0.189004 -1.912117 0
M  V30 42 H 1.855586 0.913749 -0.997954 0
M  V30 43 H 2.109617 -1.761079 -2.084251 0
M  V30 44 H -0.002979 -0.200245 0.930687 0
M  V30 45 H -2.482374 -1.573558 2.174720 0
M  V30 46 H -4.514470 -0.692562 3.362009 0
M  V30 47 H -5.468953 1.931621 0.260008 0
M  V30 48 H -3.466465 1.136800 -1.030954 0
M  V30 49 H -3.733179 -2.984243 -0.829012 0
M  V30 50 H -5.767737 -3.552491 -2.127815 0
M  V30 51 H -4.505315 -0.879039 -5.244415 0
M  V30 52 H -2.451385 -0.332914 -3.886627 0
M  V30 53 H -0.251781 -1.994898 -2.853254 0
M  V30 54 H 3.251892 -2.764062 -0.381463 0
M  V30 55 H 1.552920 -3.030125 -0.004782 0
M  V30 56 H 1.531907 -1.819148 1.943746 0
M  V30 57 H 3.332861 -2.187297 1.797654 0
M  V30 END ATOM
M  V30 BEGIN BOND
M  V30 1 1 1 2
M  V30 2 1 2 3
M  V30 3 1 2 4
M  V30 4 1 4 5
M  V30 5 1 4 6
M  V30 6 1 6 7
M  V30 7 1 7 8
M  V30 8 1 8 9
M  V30 9 1 9 10
M  V30 10 2 10 11
M  V30 11 1 11 12
M  V30 12 1 12 13
M  V30 13 2 13 14
M  V30 14 1 14 15
M  V30 15 2 15 16
M  V30 16 1 16 17
M  V30 17 2 17 18
M  V30 18 2 12 19
M  V30 19 1 19 20
M  V30 20 2 20 21
M  V30 21 1 21 22
M  V30 22 2 22 23
M  V30 23 1 23 24
M  V30 24 1 23 25
M  V30 25 2 25 26
M  V30 26 1 19 27
M  V30 27 1 9 28
M  V30 28 1 28 29
M  V30 29 1 29 6
M  V30 30 1 27 10
M  V30 31 1 18 13
M  V30 32 1 26 20
M  V30 33 1 1 30
M  V30 34 1 1 31
M  V30 35 1 1 32
M  V30 36 1 2 33
M  V30 37 1 3 34
M  V30 38 1 4 35 CFG=3
M  V30 39 1 5 36
M  V30 40 1 5 37
M  V30 41 1 5 38
M  V30 42 1 7 39
M  V30 43 1 7 40
M  V30 44 1 8 41
M  V30 45 1 8 42
M  V30 46 1 9 43
M  V30 47 1 11 44
M  V30 48 1 14 45
M  V30 49 1 15 46
M  V30 50 1 17 47
M  V30 51 1 18 48
M  V30 52 1 21 49
M  V30 53 1 22 50
M  V30 54 1 25 51
M  V30 55 1 26 52
M  V30 56 1 27 53
M  V30 57 1 28 54
M  V30 58 1 28 55
M  V30 59 1 29 56
M  V30 60 1 29 57
M  V30 END BOND
M  V30 END CTAB
M  END
>  <Dataset>  (773) 
ChEMBL_Kinases

>  <Ligand_Instance>  (773) 
nan

>  <PDB_ID>  (773) 
nan

>  <Standardized_SMILES>  (773) 
CC(O)[C@@H](C)N1CCC(c2cc(-c3ccncc3)c(-c3ccc(F)cc3)[nH]2)CC1

>  <Name>  (773) 
nan

>  <Pocket>  (773) 
nan

>  <ATP_Site>  (773) 
nan

>  <Peripheral>  (773) 
nan

>  <Num_H_Atoms_ProtBoundConf>  (773) 
nan

>  <Num_Resolved_Atoms>  (773) 
nan

>  <Num_Not_Resolved_Atoms>  (773) 
nan

$$$$
CHEMBL196576
     RDKit          3D

  0  0  0  0  0  0  0  0  0  0999 V3000
M  V30 BEGIN CTAB
M  V30 COUNTS 51 54 0 0 0
M  V30 BEGIN ATOM
M  V30 1 C 0.965748 -5.786273 -0.215365 0
M  V30 2 C 2.036605 -5.287246 0.723554 0
M  V30 3 C 1.933150 -3.798194 0.936224 0
M  V30 4 N 2.393455 -2.838397 0.399865 0
M  V30 5 C 2.163506 -1.581869 0.751369 0
M  V30 6 C 2.700549 -0.362891 0.136585 0
M  V30 7 C 4.025237 -0.016187 -0.036707 0
M  V30 8 C 4.362891 1.162152 -0.627186 0
M  V30 9 C 3.425655 2.058565 -1.076584 0
M  V30 10 C 2.096110 1.738570 -0.916075 0
M  V30 11 C 1.126440 2.749143 -1.415208 0
M  V30 12 C 1.735013 0.543001 -0.317239 0
M  V30 13 C 1.275338 -1.407691 1.884012 0
M  V30 14 C 0.816686 -0.150243 2.499274 0
M  V30 15 C 1.504405 0.848089 3.134167 0
M  V30 16 C 0.807306 1.928872 3.616700 0
M  V30 17 N -0.534452 2.070383 3.503360 0
M  V30 18 C -1.266494 1.096321 2.875067 0
M  V30 19 N -2.674587 1.173943 2.711220 0
M  V30 20 C -3.620360 1.262266 1.615068 0
M  V30 21 C -3.540172 0.066326 0.714153 0
M  V30 22 C -4.320176 -1.019461 1.071814 0
M  V30 23 C -4.376756 -2.209550 0.356139 0
M  V30 24 C -3.622627 -2.330452 -0.773015 0
M  V30 25 C -2.821814 -1.250109 -1.165507 0
M  V30 26 C -2.791000 -0.086073 -0.429291 0
M  V30 27 C -0.559071 -0.007039 2.381768 0
M  V30 28 S 0.873060 -3.105583 2.313580 0
M  V30 29 H 0.263022 -6.498129 0.286197 0
M  V30 30 H 1.407958 -6.366215 -1.047378 0
M  V30 31 H 0.340844 -4.987797 -0.653964 0
M  V30 32 H 2.995912 -5.424234 0.219027 0
M  V30 33 H 1.953486 -5.763393 1.717835 0
M  V30 34 H 4.741766 -0.764900 0.338592 0
M  V30 35 H 5.422239 1.324151 -0.707568 0
M  V30 36 H 3.804356 2.949055 -1.521908 0
M  V30 37 H 0.140843 2.696700 -0.912766 0
M  V30 38 H 0.996224 2.594499 -2.513844 0
M  V30 39 H 1.550641 3.773656 -1.222271 0
M  V30 40 H 0.673852 0.409911 -0.252704 0
M  V30 41 H 2.561968 0.648383 3.175593 0
M  V30 42 H 1.425406 2.678404 4.106110 0
M  V30 43 H -3.000444 1.159581 3.726846 0
M  V30 44 H -4.608052 1.401185 2.053350 0
M  V30 45 H -3.407574 2.158141 0.969631 0
M  V30 46 H -4.948373 -1.019429 1.949000 0
M  V30 47 H -4.972814 -3.059432 0.620121 0
M  V30 48 H -3.604071 -3.221501 -1.397874 0
M  V30 49 H -2.209902 -1.310175 -2.060844 0
M  V30 50 H -2.189271 0.776409 -0.693533 0
M  V30 51 H -1.203957 -0.741953 1.895271 0
M  V30 END ATOM
M  V30 BEGIN BOND
M  V30 1 1 1 2
M  V30 2 1 2 3
M  V30 3 2 3 4
M  V30 4 1 4 5
M  V30 5 1 5 6
M  V30 6 2 6 7
M  V30 7 1 7 8
M  V30 8 2 8 9
M  V30 9 1 9 10
M  V30 10 1 10 11
M  V30 11 2 10 12
M  V30 12 2 5 13
M  V30 13 1 13 14
M  V30 14 2 14 15
M  V30 15 1 15 16
M  V30 16 2 16 17
M  V30 17 1 17 18
M  V30 18 1 18 19
M  V30 19 1 19 20
M  V30 20 1 20 21
M  V30 21 2 21 22
M  V30 22 1 22 23
M  V30 23 2 23 24
M  V30 24 1 24 25
M  V30 25 2 25 26
M  V30 26 2 18 27
M  V30 27 1 13 28
M  V30 28 1 28 3
M  V30 29 1 12 6
M  V30 30 1 27 14
M  V30 31 1 26 21
M  V30 32 1 1 29
M  V30 33 1 1 30
M  V30 34 1 1 31
M  V30 35 1 2 32
M  V30 36 1 2 33
M  V30 37 1 7 34
M  V30 38 1 8 35
M  V30 39 1 9 36
M  V30 40 1 11 37
M  V30 41 1 11 38
M  V30 42 1 11 39
M  V30 43 1 12 40
M  V30 44 1 15 41
M  V30 45 1 16 42
M  V30 46 1 19 43
M  V30 47 1 20 44
M  V30 48 1 20 45
M  V30 49 1 22 46
M  V30 50 1 23 47
M  V30 51 1 24 48
M  V30 52 1 25 49
M  V30 53 1 26 50
M  V30 54 1 27 51
M  V30 END BOND
M  V30 END CTAB
M  END
>  <Dataset>  (774) 
ChEMBL_Kinases

>  <Ligand_Instance>  (774) 
nan

>  <PDB_ID>  (774) 
nan

>  <Standardized_SMILES>  (774) 
CCc1nc(-c2cccc(C)c2)c(-c2ccnc(NCc3ccccc3)c2)s1

>  <Name>  (774) 
nan

>  <Pocket>  (774) 
nan

>  <ATP_Site>  (774) 
nan

>  <Peripheral>  (774) 
nan

>  <Num_H_Atoms_ProtBoundConf>  (774) 
nan

>  <Num_Resolved_Atoms>  (774) 
nan

>  <Num_Not_Resolved_Atoms>  (774) 
nan

$$$$
CHEMBL196575
     RDKit          3D

  0  0  0  0  0  0  0  0  0  0999 V3000
M  V30 BEGIN CTAB
M  V30 COUNTS 54 57 0 0 0
M  V30 BEGIN ATOM
M  V30 1 C -0.990961 -2.103192 5.930503 0
M  V30 2 C 0.450004 -2.153606 5.519294 0
M  V30 3 C 0.722306 -1.324219 4.313733 0
M  V30 4 N 1.623329 -1.028445 3.618408 0
M  V30 5 C 1.616322 -0.242985 2.561304 0
M  V30 6 C 2.763050 0.097003 1.727810 0
M  V30 7 C 3.239418 -0.987328 0.983519 0
M  V30 8 C 4.319428 -0.874897 0.138321 0
M  V30 9 C 4.985346 0.322403 -0.013459 0
M  V30 10 C 4.503181 1.401455 0.733324 0
M  V30 11 C 5.095989 2.743705 0.687874 0
M  V30 12 C 3.425679 1.296326 1.579196 0
M  V30 13 C 0.398999 0.329891 2.189218 0
M  V30 14 C -0.169116 1.232907 1.154750 0
M  V30 15 C 0.164912 2.541098 1.023554 0
M  V30 16 C -0.440619 3.261825 0.019822 0
M  V30 17 N -1.331767 2.708224 -0.809128 0
M  V30 18 C -1.709906 1.419777 -0.737834 0
M  V30 19 N -2.669407 0.901801 -1.641226 0
M  V30 20 C -3.179135 -0.439840 -1.819527 0
M  V30 21 C -2.176800 -1.427190 -2.327588 0
M  V30 22 C -2.799574 -2.790820 -2.483414 0
M  V30 23 C -2.779047 -3.675557 -1.444023 0
M  V30 24 C -3.325920 -4.947164 -1.496113 0
M  V30 25 C -3.927169 -5.322196 -2.692162 0
M  V30 26 C -3.946726 -4.436401 -3.730000 0
M  V30 27 C -3.403690 -3.171294 -3.681106 0
M  V30 28 C -1.098954 0.706414 0.269622 0
M  V30 29 S -0.737698 -0.369966 3.506706 0
M  V30 30 H -1.270125 -3.071003 6.393871 0
M  V30 31 H -1.685328 -1.955299 5.057243 0
M  V30 32 H -1.199929 -1.312268 6.680563 0
M  V30 33 H 0.708967 -3.225881 5.339531 0
M  V30 34 H 1.080799 -1.763290 6.341645 0
M  V30 35 H 2.822242 -1.990931 0.996855 0
M  V30 36 H 4.700298 -1.715191 -0.446712 0
M  V30 37 H 5.842108 0.521940 -0.648654 0
M  V30 38 H 4.365921 3.445668 0.199906 0
M  V30 39 H 5.284486 3.152308 1.700111 0
M  V30 40 H 6.038881 2.689115 0.099564 0
M  V30 41 H 3.019004 2.082377 2.172830 0
M  V30 42 H 0.874158 2.984128 1.686424 0
M  V30 43 H -0.196822 4.310629 -0.114580 0
M  V30 44 H -3.103450 1.598801 -2.314946 0
M  V30 45 H -4.135691 -0.460261 -2.360563 0
M  V30 46 H -3.452859 -0.811000 -0.781173 0
M  V30 47 H -1.826525 -1.132772 -3.342165 0
M  V30 48 H -1.371641 -1.549624 -1.604532 0
M  V30 49 H -2.327010 -3.449973 -0.483128 0
M  V30 50 H -3.317958 -5.658367 -0.683280 0
M  V30 51 H -4.374769 -6.311242 -2.793809 0
M  V30 52 H -4.419279 -4.741287 -4.654192 0
M  V30 53 H -3.434972 -2.499306 -4.512667 0
M  V30 54 H -1.351021 -0.328454 0.399179 0
M  V30 END ATOM
M  V30 BEGIN BOND
M  V30 1 1 1 2
M  V30 2 1 2 3
M  V30 3 2 3 4
M  V30 4 1 4 5
M  V30 5 1 5 6
M  V30 6 2 6 7
M  V30 7 1 7 8
M  V30 8 2 8 9
M  V30 9 1 9 10
M  V30 10 1 10 11
M  V30 11 2 10 12
M  V30 12 2 5 13
M  V30 13 1 13 14
M  V30 14 2 14 15
M  V30 15 1 15 16
M  V30 16 2 16 17
M  V30 17 1 17 18
M  V30 18 1 18 19
M  V30 19 1 19 20
M  V30 20 1 20 21
M  V30 21 1 21 22
M  V30 22 2 22 23
M  V30 23 1 23 24
M  V30 24 2 24 25
M  V30 25 1 25 26
M  V30 26 2 26 27
M  V30 27 2 18 28
M  V30 28 1 13 29
M  V30 29 1 29 3
M  V30 30 1 12 6
M  V30 31 1 28 14
M  V30 32 1 27 22
M  V30 33 1 1 30
M  V30 34 1 1 31
M  V30 35 1 1 32
M  V30 36 1 2 33
M  V30 37 1 2 34
M  V30 38 1 7 35
M  V30 39 1 8 36
M  V30 40 1 9 37
M  V30 41 1 11 38
M  V30 42 1 11 39
M  V30 43 1 11 40
M  V30 44 1 12 41
M  V30 45 1 15 42
M  V30 46 1 16 43
M  V30 47 1 19 44
M  V30 48 1 20 45
M  V30 49 1 20 46
M  V30 50 1 21 47
M  V30 51 1 21 48
M  V30 52 1 23 49
M  V30 53 1 24 50
M  V30 54 1 25 51
M  V30 55 1 26 52
M  V30 56 1 27 53
M  V30 57 1 28 54
M  V30 END BOND
M  V30 END CTAB
M  END
>  <Dataset>  (775) 
ChEMBL_Kinases

>  <Ligand_Instance>  (775) 
nan

>  <PDB_ID>  (775) 
nan

>  <Standardized_SMILES>  (775) 
CCc1nc(-c2cccc(C)c2)c(-c2ccnc(NCCc3ccccc3)c2)s1

>  <Name>  (775) 
nan

>  <Pocket>  (775) 
nan

>  <ATP_Site>  (775) 
nan

>  <Peripheral>  (775) 
nan

>  <Num_H_Atoms_ProtBoundConf>  (775) 
nan

>  <Num_Resolved_Atoms>  (775) 
nan

>  <Num_Not_Resolved_Atoms>  (775) 
nan

$$$$
CHEMBL1965660
     RDKit          3D

  0  0  0  0  0  0  0  0  0  0999 V3000
M  V30 BEGIN CTAB
M  V30 COUNTS 34 36 0 0 0
M  V30 BEGIN ATOM
M  V30 1 N -0.886540 1.616311 4.394835 0
M  V30 2 C -0.450690 1.041998 3.204642 0
M  V30 3 O 0.482072 1.544418 3.924817 0
M  V30 4 C -0.006561 0.444597 1.968868 0
M  V30 5 C 1.329485 0.409680 1.659392 0
M  V30 6 C 1.379977 -0.294333 0.476004 0
M  V30 7 C 2.607708 -0.594313 -0.253459 0
M  V30 8 C 3.834024 -0.180246 0.214553 0
M  V30 9 C 4.934135 -0.518570 -0.552389 0
M  V30 10 N 4.752877 -1.213140 -1.681053 0
M  V30 11 C 3.560229 -1.622987 -2.147900 0
M  V30 12 N 3.362414 -2.359160 -3.337029 0
M  V30 13 N 2.489807 -1.289981 -1.395061 0
M  V30 14 N 0.130149 -0.604177 0.191602 0
M  V30 15 C -0.788755 -0.189424 1.051967 0
M  V30 16 C -2.178415 -0.505223 0.901895 0
M  V30 17 C -2.493966 -1.644071 0.148509 0
M  V30 18 C -3.758732 -2.082783 -0.140242 0
M  V30 19 C -4.831425 -1.370989 0.331711 0
M  V30 20 Cl -6.431041 -1.940812 -0.038826 0
M  V30 21 C -4.589882 -0.235136 1.080770 0
M  V30 22 C -3.291327 0.128535 1.318775 0
M  V30 23 Cl -3.159055 1.626974 2.177542 0
M  V30 24 H -1.792322 1.305139 4.852078 0
M  V30 25 H -1.818241 1.245272 4.795214 0
M  V30 26 H 2.217775 0.795208 2.133530 0
M  V30 27 H 3.946249 0.379710 1.130644 0
M  V30 28 H 5.906804 -0.195522 -0.190245 0
M  V30 29 H 2.799522 -3.249653 -3.371444 0
M  V30 30 H 3.858300 -1.870102 -4.120768 0
M  V30 31 H -0.049298 -1.158048 -0.700213 0
M  V30 32 H -1.692963 -2.278769 -0.271338 0
M  V30 33 H -3.929283 -2.967096 -0.723086 0
M  V30 34 H -5.444635 0.283206 1.423947 0
M  V30 END ATOM
M  V30 BEGIN BOND
M  V30 1 1 1 2
M  V30 2 2 2 3
M  V30 3 1 2 4
M  V30 4 1 4 5
M  V30 5 2 5 6
M  V30 6 1 6 7
M  V30 7 2 7 8
M  V30 8 1 8 9
M  V30 9 2 9 10
M  V30 10 1 10 11
M  V30 11 1 11 12
M  V30 12 2 11 13
M  V30 13 1 6 14
M  V30 14 1 14 15
M  V30 15 1 15 16
M  V30 16 2 16 17
M  V30 17 1 17 18
M  V30 18 2 18 19
M  V30 19 1 19 20
M  V30 20 1 19 21
M  V30 21 2 21 22
M  V30 22 1 22 23
M  V30 23 2 15 4
M  V30 24 1 22 16
M  V30 25 1 13 7
M  V30 26 1 1 24
M  V30 27 1 1 25
M  V30 28 1 5 26
M  V30 29 1 8 27
M  V30 30 1 9 28
M  V30 31 1 12 29
M  V30 32 1 12 30
M  V30 33 1 14 31
M  V30 34 1 17 32
M  V30 35 1 18 33
M  V30 36 1 21 34
M  V30 END BOND
M  V30 END CTAB
M  END
>  <Dataset>  (776) 
ChEMBL_Kinases

>  <Ligand_Instance>  (776) 
nan

>  <PDB_ID>  (776) 
nan

>  <Standardized_SMILES>  (776) 
NC(=O)c1cc(-c2ccnc(N)n2)[nH]c1-c1ccc(Cl)cc1Cl

>  <Name>  (776) 
nan

>  <Pocket>  (776) 
nan

>  <ATP_Site>  (776) 
nan

>  <Peripheral>  (776) 
nan

>  <Num_H_Atoms_ProtBoundConf>  (776) 
nan

>  <Num_Resolved_Atoms>  (776) 
nan

>  <Num_Not_Resolved_Atoms>  (776) 
nan

$$$$
CHEMBL1964241
     RDKit          3D

  0  0  0  0  0  0  0  0  0  0999 V3000
M  V30 BEGIN CTAB
M  V30 COUNTS 28 30 0 0 0
M  V30 BEGIN ATOM
M  V30 1 N -0.527952 -3.056371 3.922688 0
M  V30 2 C 0.185532 -1.966597 3.359039 0
M  V30 3 O 0.999839 -1.409772 4.138880 0
M  V30 4 C 0.042027 -1.473088 1.995451 0
M  V30 5 C 0.830674 -0.395082 1.649727 0
M  V30 6 C 0.733430 0.112582 0.367727 0
M  V30 7 C 1.513449 1.246725 -0.115162 0
M  V30 8 C 1.133134 2.175041 -1.060167 0
M  V30 9 N 1.995346 3.175058 -1.392333 0
M  V30 10 C 3.205504 3.269139 -0.814687 0
M  V30 11 N 3.588225 2.369648 0.108664 0
M  V30 12 C 2.774624 1.352337 0.480841 0
M  V30 13 C -0.149661 -0.465978 -0.544358 0
M  V30 14 C -0.930521 -1.544826 -0.177906 0
M  V30 15 C -1.878204 -2.323627 -0.830778 0
M  V30 16 C -2.348476 -3.296936 0.057972 0
M  V30 17 N -1.689574 -3.094224 1.212149 0
M  V30 18 C -0.839212 -2.065220 1.115558 0
M  V30 19 H -0.234517 -4.054070 4.048318 0
M  V30 20 H -1.453865 -2.669182 4.208156 0
M  V30 21 H 1.533490 0.084249 2.336614 0
M  V30 22 H 0.144922 2.022557 -1.471655 0
M  V30 23 H 3.796472 4.109776 -1.166130 0
M  V30 24 H 3.231201 0.722731 1.229489 0
M  V30 25 H -0.294804 -0.141731 -1.561826 0
M  V30 26 H -2.204324 -2.204362 -1.854791 0
M  V30 27 H -3.096404 -4.040664 -0.191918 0
M  V30 28 H -1.854751 -3.691101 2.053046 0
M  V30 END ATOM
M  V30 BEGIN BOND
M  V30 1 1 1 2
M  V30 2 2 2 3
M  V30 3 1 2 4
M  V30 4 2 4 5
M  V30 5 1 5 6
M  V30 6 1 6 7
M  V30 7 2 7 8
M  V30 8 1 8 9
M  V30 9 2 9 10
M  V30 10 1 10 11
M  V30 11 2 11 12
M  V30 12 2 6 13
M  V30 13 1 13 14
M  V30 14 1 14 15
M  V30 15 2 15 16
M  V30 16 1 16 17
M  V30 17 1 17 18
M  V30 18 1 18 4
M  V30 19 1 12 7
M  V30 20 2 18 14
M  V30 21 1 1 19
M  V30 22 1 1 20
M  V30 23 1 5 21
M  V30 24 1 8 22
M  V30 25 1 10 23
M  V30 26 1 12 24
M  V30 27 1 13 25
M  V30 28 1 15 26
M  V30 29 1 16 27
M  V30 30 1 17 28
M  V30 END BOND
M  V30 END CTAB
M  END
>  <Dataset>  (777) 
ChEMBL_Kinases

>  <Ligand_Instance>  (777) 
nan

>  <PDB_ID>  (777) 
nan

>  <Standardized_SMILES>  (777) 
NC(=O)c1cc(-c2cncnc2)cc2cc[nH]c12

>  <Name>  (777) 
nan

>  <Pocket>  (777) 
nan

>  <ATP_Site>  (777) 
nan

>  <Peripheral>  (777) 
nan

>  <Num_H_Atoms_ProtBoundConf>  (777) 
nan

>  <Num_Resolved_Atoms>  (777) 
nan

>  <Num_Not_Resolved_Atoms>  (777) 
nan

$$$$
CHEMBL196386
     RDKit          3D

  0  0  0  0  0  0  0  0  0  0999 V3000
M  V30 BEGIN CTAB
M  V30 COUNTS 50 53 0 0 0
M  V30 BEGIN ATOM
M  V30 1 C -0.046612 -3.173428 5.629979 0
M  V30 2 C 1.376104 -3.091836 5.118105 0
M  V30 3 C 1.481109 -2.169972 3.951549 0
M  V30 4 N 2.353700 -1.804733 3.248566 0
M  V30 5 C 2.241972 -0.957863 2.238352 0
M  V30 6 C 3.422471 -0.591767 1.443410 0
M  V30 7 C 3.283365 -0.985913 0.111400 0
M  V30 8 C 4.296458 -0.729176 -0.801125 0
M  V30 9 C 5.427953 -0.081615 -0.355071 0
M  V30 10 C 5.573627 0.314137 0.970699 0
M  V30 11 C 4.561402 0.055229 1.872687 0
M  V30 12 C 4.574125 0.416315 3.313119 0
M  V30 13 C 1.039723 -0.450547 1.963005 0
M  V30 14 C 0.574914 0.474665 0.959428 0
M  V30 15 C 0.924324 1.804786 0.755745 0
M  V30 16 C 0.345905 2.489292 -0.269830 0
M  V30 17 N -0.556472 1.910429 -1.092429 0
M  V30 18 C -0.926351 0.627852 -0.935978 0
M  V30 19 N -1.882667 0.066967 -1.830968 0
M  V30 20 C -3.253263 0.158315 -1.498713 0
M  V30 21 O -3.515196 0.743037 -0.412313 0
M  V30 22 C -4.361085 -0.360019 -2.297975 0
M  V30 23 C -5.628466 -0.164007 -1.789569 0
M  V30 24 C -6.719982 -0.640252 -2.516608 0
M  V30 25 C -6.470708 -1.285569 -3.712371 0
M  V30 26 C -5.214695 -1.487158 -4.229314 0
M  V30 27 C -4.131591 -1.007091 -3.494324 0
M  V30 28 C -0.358885 -0.109760 0.101282 0
M  V30 29 S -0.016138 -1.239268 3.240535 0
M  V30 30 H -0.145947 -2.747359 6.653162 0
M  V30 31 H -0.746478 -2.612925 4.943099 0
M  V30 32 H -0.347710 -4.239413 5.691124 0
M  V30 33 H 1.738360 -4.122302 4.845496 0
M  V30 34 H 1.997049 -2.706699 5.955747 0
M  V30 35 H 2.426286 -1.497106 -0.309628 0
M  V30 36 H 4.225209 -1.018920 -1.839654 0
M  V30 37 H 6.217862 0.121374 -1.055371 0
M  V30 38 H 6.453081 0.826337 1.353842 0
M  V30 39 H 4.544388 -0.515710 3.904420 0
M  V30 40 H 3.728845 1.089675 3.576947 0
M  V30 41 H 5.561809 0.882104 3.534414 0
M  V30 42 H 1.643979 2.136863 1.472512 0
M  V30 43 H 0.661297 3.525129 -0.376069 0
M  V30 44 H -1.636510 -0.411677 -2.724637 0
M  V30 45 H -5.856013 0.334017 -0.861923 0
M  V30 46 H -7.726688 -0.496203 -2.133558 0
M  V30 47 H -7.340375 -1.635187 -4.237941 0
M  V30 48 H -5.044324 -1.997038 -5.170924 0
M  V30 49 H -3.136184 -1.157744 -3.887516 0
M  V30 50 H -0.711458 -1.129706 0.154450 0
M  V30 END ATOM
M  V30 BEGIN BOND
M  V30 1 1 1 2
M  V30 2 1 2 3
M  V30 3 2 3 4
M  V30 4 1 4 5
M  V30 5 1 5 6
M  V30 6 2 6 7
M  V30 7 1 7 8
M  V30 8 2 8 9
M  V30 9 1 9 10
M  V30 10 2 10 11
M  V30 11 1 11 12
M  V30 12 2 5 13
M  V30 13 1 13 14
M  V30 14 2 14 15
M  V30 15 1 15 16
M  V30 16 2 16 17
M  V30 17 1 17 18
M  V30 18 1 18 19
M  V30 19 1 19 20
M  V30 20 2 20 21
M  V30 21 1 20 22
M  V30 22 2 22 23
M  V30 23 1 23 24
M  V30 24 2 24 25
M  V30 25 1 25 26
M  V30 26 2 26 27
M  V30 27 2 18 28
M  V30 28 1 13 29
M  V30 29 1 29 3
M  V30 30 1 11 6
M  V30 31 1 28 14
M  V30 32 1 27 22
M  V30 33 1 1 30
M  V30 34 1 1 31
M  V30 35 1 1 32
M  V30 36 1 2 33
M  V30 37 1 2 34
M  V30 38 1 7 35
M  V30 39 1 8 36
M  V30 40 1 9 37
M  V30 41 1 10 38
M  V30 42 1 12 39
M  V30 43 1 12 40
M  V30 44 1 12 41
M  V30 45 1 15 42
M  V30 46 1 16 43
M  V30 47 1 19 44
M  V30 48 1 23 45
M  V30 49 1 24 46
M  V30 50 1 25 47
M  V30 51 1 26 48
M  V30 52 1 27 49
M  V30 53 1 28 50
M  V30 END BOND
M  V30 END CTAB
M  END
>  <Dataset>  (778) 
ChEMBL_Kinases

>  <Ligand_Instance>  (778) 
nan

>  <PDB_ID>  (778) 
nan

>  <Standardized_SMILES>  (778) 
CCc1nc(-c2ccccc2C)c(-c2ccnc(NC(=O)c3ccccc3)c2)s1

>  <Name>  (778) 
nan

>  <Pocket>  (778) 
nan

>  <ATP_Site>  (778) 
nan

>  <Peripheral>  (778) 
nan

>  <Num_H_Atoms_ProtBoundConf>  (778) 
nan

>  <Num_Resolved_Atoms>  (778) 
nan

>  <Num_Not_Resolved_Atoms>  (778) 
nan

$$$$
CHEMBL196369
     RDKit          3D

  0  0  0  0  0  0  0  0  0  0999 V3000
M  V30 BEGIN CTAB
M  V30 COUNTS 43 46 0 0 0
M  V30 BEGIN ATOM
M  V30 1 O -1.674945 -3.477266 1.399381 0
M  V30 2 C -1.347798 -3.494312 0.204016 0
M  V30 3 C -1.931471 -2.444492 -0.629369 0
M  V30 4 N -1.036386 -1.403703 -1.072726 0
M  V30 5 O -0.420747 -1.345539 -2.227126 0
M  V30 6 C 0.281486 -0.244863 -2.339627 0
M  V30 7 O 0.979226 0.059052 -3.364404 0
M  V30 8 C 0.156792 0.533574 -1.193060 0
M  V30 9 C 0.765917 1.834958 -0.959675 0
M  V30 10 C 0.485074 2.724425 -2.005739 0
M  V30 11 C 0.971190 4.024382 -2.002954 0
M  V30 12 C 1.754867 4.472917 -0.943789 0
M  V30 13 F 2.251799 5.738212 -0.899061 0
M  V30 14 C 2.017913 3.573362 0.081915 0
M  V30 15 C 1.543081 2.283352 0.087818 0
M  V30 16 C -0.687711 -0.270912 -0.442216 0
M  V30 17 C -1.084974 0.118716 0.928041 0
M  V30 18 C -1.925275 1.068480 1.485387 0
M  V30 19 C -1.954927 1.059669 2.852714 0
M  V30 20 N -1.247041 0.222131 3.630030 0
M  V30 21 C -0.434495 -0.696525 3.084578 0
M  V30 22 O 0.282962 -1.550176 3.903528 0
M  V30 23 C 1.149215 -2.515324 3.450061 0
M  V30 24 C 1.589558 -2.899529 2.210664 0
M  V30 25 C 2.475656 -3.913521 1.955531 0
M  V30 26 C 2.972677 -4.614259 3.034492 0
M  V30 27 C 2.580076 -4.291205 4.309086 0
M  V30 28 C 1.683748 -3.257430 4.507557 0
M  V30 29 N -0.410579 -0.682368 1.771654 0
M  V30 30 H -0.675964 -4.305217 0.006662 0
M  V30 31 H -2.854265 -1.988485 -0.163677 0
M  V30 32 H -2.362130 -2.960725 -1.551170 0
M  V30 33 H -0.098929 2.514085 -2.873896 0
M  V30 34 H 0.784203 4.726743 -2.777205 0
M  V30 35 H 2.622573 3.905524 0.918116 0
M  V30 36 H 1.701148 1.545942 0.835307 0
M  V30 37 H -2.383898 1.620448 0.706481 0
M  V30 38 H -2.641955 1.838445 3.218587 0
M  V30 39 H 1.176767 -2.325762 1.403921 0
M  V30 40 H 2.738677 -4.102378 0.914846 0
M  V30 41 H 3.683078 -5.423375 2.805469 0
M  V30 42 H 3.030946 -4.906856 5.059552 0
M  V30 43 H 1.469827 -3.129575 5.569092 0
M  V30 END ATOM
M  V30 BEGIN BOND
M  V30 1 2 1 2
M  V30 2 1 2 3
M  V30 3 1 3 4
M  V30 4 1 4 5
M  V30 5 1 5 6
M  V30 6 2 6 7
M  V30 7 1 6 8
M  V30 8 1 8 9
M  V30 9 2 9 10
M  V30 10 1 10 11
M  V30 11 2 11 12
M  V30 12 1 12 13
M  V30 13 1 12 14
M  V30 14 2 14 15
M  V30 15 2 8 16
M  V30 16 1 16 17
M  V30 17 2 17 18
M  V30 18 1 18 19
M  V30 19 2 19 20
M  V30 20 1 20 21
M  V30 21 1 21 22
M  V30 22 1 22 23
M  V30 23 2 23 24
M  V30 24 1 24 25
M  V30 25 2 25 26
M  V30 26 1 26 27
M  V30 27 2 27 28
M  V30 28 2 21 29
M  V30 29 1 16 4
M  V30 30 1 29 17
M  V30 31 1 15 9
M  V30 32 1 28 23
M  V30 33 1 2 30
M  V30 34 1 3 31
M  V30 35 1 3 32
M  V30 36 1 10 33
M  V30 37 1 11 34
M  V30 38 1 14 35
M  V30 39 1 15 36
M  V30 40 1 18 37
M  V30 41 1 19 38
M  V30 42 1 24 39
M  V30 43 1 25 40
M  V30 44 1 26 41
M  V30 45 1 27 42
M  V30 46 1 28 43
M  V30 END BOND
M  V30 END CTAB
M  END
>  <Dataset>  (779) 
ChEMBL_Kinases

>  <Ligand_Instance>  (779) 
nan

>  <PDB_ID>  (779) 
nan

>  <Standardized_SMILES>  (779) 
O=CCn1oc(=O)c(-c2ccc(F)cc2)c1-c1ccnc(Oc2ccccc2)n1

>  <Name>  (779) 
nan

>  <Pocket>  (779) 
nan

>  <ATP_Site>  (779) 
nan

>  <Peripheral>  (779) 
nan

>  <Num_H_Atoms_ProtBoundConf>  (779) 
nan

>  <Num_Resolved_Atoms>  (779) 
nan

>  <Num_Not_Resolved_Atoms>  (779) 
nan

$$$$
CHEMBL196311
     RDKit          3D

  0  0  0  0  0  0  0  0  0  0999 V3000
M  V30 BEGIN CTAB
M  V30 COUNTS 65 69 0 0 0
M  V30 BEGIN ATOM
M  V30 1 O 2.142508 1.974100 5.862949 0
M  V30 2 C 2.158309 2.027474 4.428266 0
M  V30 3 C 2.500076 3.483368 4.143547 0
M  V30 4 O 2.613379 3.705977 2.793920 0
M  V30 5 C 3.622485 3.028096 2.166180 0
M  V30 6 C 3.641436 3.357276 0.710156 0
M  V30 7 C 2.983757 2.710008 -0.319517 0
M  V30 8 C 3.265368 3.329852 -1.514593 0
M  V30 9 C 4.113539 4.367422 -1.156542 0
M  V30 10 O 4.304159 4.349297 0.123923 0
M  V30 11 C 0.768318 1.684943 4.039269 0
M  V30 12 N 0.398819 1.608470 2.694628 0
M  V30 13 C 0.884529 0.553223 1.888305 0
M  V30 14 C 0.145096 -0.705904 2.291598 0
M  V30 15 C -1.299003 -0.527514 1.871177 0
M  V30 16 C -1.574872 -1.457268 0.744303 0
M  V30 17 C -0.951631 -1.420141 -0.464297 0
M  V30 18 C -1.430674 -2.417013 -1.295324 0
M  V30 19 C -1.055570 -2.752542 -2.674745 0
M  V30 20 C 0.258061 -3.133799 -2.937234 0
M  V30 21 C 0.618871 -3.452968 -4.246432 0
M  V30 22 N -0.295705 -3.391705 -5.241456 0
M  V30 23 C -1.581324 -3.023065 -5.010578 0
M  V30 24 C -1.960179 -2.701445 -3.714232 0
M  V30 25 C -2.388702 -3.083106 -0.544721 0
M  V30 26 C -3.210051 -4.225648 -0.939799 0
M  V30 27 C -2.533428 -5.393382 -1.242311 0
M  V30 28 C -3.179253 -6.537146 -1.625573 0
M  V30 29 C -4.568103 -6.577127 -1.729699 0
M  V30 30 F -5.246699 -7.688650 -2.105956 0
M  V30 31 C -5.241843 -5.406805 -1.426246 0
M  V30 32 C -4.598484 -4.248965 -1.039037 0
M  V30 33 N -2.455948 -2.492339 0.666666 0
M  V30 34 C -1.643695 0.891993 1.518827 0
M  V30 35 C -1.000512 1.817749 2.504002 0
M  V30 36 H 1.567806 1.211685 6.152220 0
M  V30 37 H 2.968286 1.406535 4.109829 0
M  V30 38 H 1.763687 4.170729 4.599884 0
M  V30 39 H 3.501341 3.729873 4.582637 0
M  V30 40 H 4.595924 3.443992 2.553860 0
M  V30 41 H 3.659633 1.951000 2.278658 0
M  V30 42 H 2.344881 1.855361 -0.246827 0
M  V30 43 H 2.892779 3.044501 -2.484741 0
M  V30 44 H 4.527360 5.062263 -1.882403 0
M  V30 45 H 0.101788 2.454023 4.533389 0
M  V30 46 H 0.451160 0.731102 4.558748 0
M  V30 47 H 0.516099 0.768571 0.839851 0
M  V30 48 H 1.952240 0.416046 1.789347 0
M  V30 49 H 0.161903 -0.905343 3.360512 0
M  V30 50 H 0.630709 -1.544791 1.728553 0
M  V30 51 H -1.998102 -0.858175 2.694953 0
M  V30 52 H -0.181992 -0.770863 -0.858326 0
M  V30 53 H 0.989553 -3.179617 -2.120603 0
M  V30 54 H 1.650604 -3.747314 -4.425471 0
M  V30 55 H -2.314363 -2.975817 -5.821135 0
M  V30 56 H -2.981104 -2.400530 -3.484245 0
M  V30 57 H -1.459246 -5.435370 -1.183452 0
M  V30 58 H -2.686831 -7.480138 -1.873474 0
M  V30 59 H -6.333063 -5.382722 -1.491356 0
M  V30 60 H -5.095534 -3.319898 -0.795574 0
M  V30 61 H -3.095896 -2.775128 1.462853 0
M  V30 62 H -2.744207 1.003497 1.650960 0
M  V30 63 H -1.454725 1.141714 0.459767 0
M  V30 64 H -1.270448 2.874377 2.219443 0
M  V30 65 H -1.544342 1.649915 3.477508 0
M  V30 END ATOM
M  V30 BEGIN BOND
M  V30 1 1 1 2
M  V30 2 1 2 3
M  V30 3 1 3 4
M  V30 4 1 4 5
M  V30 5 1 5 6
M  V30 6 2 6 7
M  V30 7 1 7 8
M  V30 8 2 8 9
M  V30 9 1 9 10
M  V30 10 1 2 11
M  V30 11 1 11 12
M  V30 12 1 12 13
M  V30 13 1 13 14
M  V30 14 1 14 15
M  V30 15 1 15 16
M  V30 16 2 16 17
M  V30 17 1 17 18
M  V30 18 1 18 19
M  V30 19 2 19 20
M  V30 20 1 20 21
M  V30 21 2 21 22
M  V30 22 1 22 23
M  V30 23 2 23 24
M  V30 24 2 18 25
M  V30 25 1 25 26
M  V30 26 2 26 27
M  V30 27 1 27 28
M  V30 28 2 28 29
M  V30 29 1 29 30
M  V30 30 1 29 31
M  V30 31 2 31 32
M  V30 32 1 25 33
M  V30 33 1 15 34
M  V30 34 1 34 35
M  V30 35 1 10 6
M  V30 36 1 35 12
M  V30 37 1 33 16
M  V30 38 1 24 19
M  V30 39 1 32 26
M  V30 40 1 1 36
M  V30 41 1 2 37
M  V30 42 1 3 38
M  V30 43 1 3 39
M  V30 44 1 5 40
M  V30 45 1 5 41
M  V30 46 1 7 42
M  V30 47 1 8 43
M  V30 48 1 9 44
M  V30 49 1 11 45
M  V30 50 1 11 46
M  V30 51 1 13 47
M  V30 52 1 13 48
M  V30 53 1 14 49
M  V30 54 1 14 50
M  V30 55 1 15 51
M  V30 56 1 17 52
M  V30 57 1 20 53
M  V30 58 1 21 54
M  V30 59 1 23 55
M  V30 60 1 24 56
M  V30 61 1 27 57
M  V30 62 1 28 58
M  V30 63 1 31 59
M  V30 64 1 32 60
M  V30 65 1 33 61
M  V30 66 1 34 62
M  V30 67 1 34 63
M  V30 68 1 35 64
M  V30 69 1 35 65
M  V30 END BOND
M  V30 END CTAB
M  END
>  <Dataset>  (780) 
ChEMBL_Kinases

>  <Ligand_Instance>  (780) 
nan

>  <PDB_ID>  (780) 
nan

>  <Standardized_SMILES>  (780) 
OC(COCc1ccco1)CN1CCC(c2cc(-c3ccncc3)c(-c3ccc(F)cc3)[nH]2)CC1

>  <Name>  (780) 
nan

>  <Pocket>  (780) 
nan

>  <ATP_Site>  (780) 
nan

>  <Peripheral>  (780) 
nan

>  <Num_H_Atoms_ProtBoundConf>  (780) 
nan

>  <Num_Resolved_Atoms>  (780) 
nan

>  <Num_Not_Resolved_Atoms>  (780) 
nan

$$$$
CHEMBL196278
     RDKit          3D

  0  0  0  0  0  0  0  0  0  0999 V3000
M  V30 BEGIN CTAB
M  V30 COUNTS 55 58 0 0 0
M  V30 BEGIN ATOM
M  V30 1 O -0.028052 0.339857 4.712498 0
M  V30 2 C 0.575492 0.363057 3.460351 0
M  V30 3 C 2.048322 0.097640 3.665048 0
M  V30 4 O 2.282061 -1.133236 4.261677 0
M  V30 5 C 2.899566 0.385008 2.481461 0
M  V30 6 N 2.815502 -0.495047 1.379937 0
M  V30 7 C 3.335716 -1.813276 1.537266 0
M  V30 8 C 2.659608 -2.684345 0.495293 0
M  V30 9 C 2.329785 -1.902926 -0.762396 0
M  V30 10 C 0.901268 -1.441849 -0.731509 0
M  V30 11 C 0.366182 -0.172628 -0.518211 0
M  V30 12 C -1.029105 -0.272270 -0.558407 0
M  V30 13 C -1.773913 0.963074 -0.346428 0
M  V30 14 C -1.906405 1.947298 -1.336407 0
M  V30 15 C -2.613167 3.107864 -1.075305 0
M  V30 16 N -3.199458 3.348143 0.120240 0
M  V30 17 C -3.079723 2.407691 1.081258 0
M  V30 18 C -2.379777 1.222112 0.872093 0
M  V30 19 C -1.282604 -1.583152 -0.792033 0
M  V30 20 C -2.660926 -2.047477 -0.898648 0
M  V30 21 C -3.694555 -2.016761 0.021581 0
M  V30 22 C -4.914202 -2.546018 -0.355258 0
M  V30 23 C -5.144355 -3.099379 -1.597509 0
M  V30 24 F -6.386076 -3.593422 -1.857112 0
M  V30 25 C -4.093942 -3.126828 -2.522883 0
M  V30 26 C -2.853535 -2.592518 -2.150798 0
M  V30 27 N -0.124338 -2.264866 -0.892577 0
M  V30 28 C 3.247543 -0.761156 -1.014255 0
M  V30 29 C 3.492851 0.075163 0.233704 0
M  V30 30 H -0.413464 -0.544775 4.928859 0
M  V30 31 H 0.481425 1.367275 3.024666 0
M  V30 32 H 0.048915 -0.364386 2.843860 0
M  V30 33 H 2.353129 0.848358 4.454241 0
M  V30 34 H 1.922179 -1.183970 5.170615 0
M  V30 35 H 2.625683 1.408108 2.115527 0
M  V30 36 H 3.949834 0.512737 2.873834 0
M  V30 37 H 3.264102 -2.267550 2.520544 0
M  V30 38 H 4.440945 -1.832844 1.287155 0
M  V30 39 H 3.263155 -3.593438 0.270498 0
M  V30 40 H 1.695915 -3.018387 0.927537 0
M  V30 41 H 2.403144 -2.648318 -1.580134 0
M  V30 42 H 1.014475 0.678573 -0.364402 0
M  V30 43 H -1.440674 1.766279 -2.298243 0
M  V30 44 H -2.714519 3.867707 -1.839381 0
M  V30 45 H -3.558879 2.621039 2.034462 0
M  V30 46 H -2.304026 0.481437 1.680428 0
M  V30 47 H -3.405648 -1.570272 0.939746 0
M  V30 48 H -5.685529 -2.491218 0.416282 0
M  V30 49 H -4.346897 -3.573752 -3.474262 0
M  V30 50 H -2.163177 -2.694046 -2.974424 0
M  V30 51 H -0.122828 -3.299143 -1.073069 0
M  V30 52 H 4.183644 -1.143748 -1.467275 0
M  V30 53 H 2.744801 -0.080479 -1.762117 0
M  V30 54 H 4.595049 -0.038356 0.452933 0
M  V30 55 H 3.324565 1.142479 0.086700 0
M  V30 END ATOM
M  V30 BEGIN BOND
M  V30 1 1 1 2
M  V30 2 1 2 3
M  V30 3 1 3 4
M  V30 4 1 3 5
M  V30 5 1 5 6
M  V30 6 1 6 7
M  V30 7 1 7 8
M  V30 8 1 8 9
M  V30 9 1 9 10
M  V30 10 2 10 11
M  V30 11 1 11 12
M  V30 12 1 12 13
M  V30 13 2 13 14
M  V30 14 1 14 15
M  V30 15 2 15 16
M  V30 16 1 16 17
M  V30 17 2 17 18
M  V30 18 2 12 19
M  V30 19 1 19 20
M  V30 20 2 20 21
M  V30 21 1 21 22
M  V30 22 2 22 23
M  V30 23 1 23 24
M  V30 24 1 23 25
M  V30 25 2 25 26
M  V30 26 1 19 27
M  V30 27 1 9 28
M  V30 28 1 28 29
M  V30 29 1 29 6
M  V30 30 1 27 10
M  V30 31 1 18 13
M  V30 32 1 26 20
M  V30 33 1 1 30
M  V30 34 1 2 31
M  V30 35 1 2 32
M  V30 36 1 3 33
M  V30 37 1 4 34
M  V30 38 1 5 35
M  V30 39 1 5 36
M  V30 40 1 7 37
M  V30 41 1 7 38
M  V30 42 1 8 39
M  V30 43 1 8 40
M  V30 44 1 9 41
M  V30 45 1 11 42
M  V30 46 1 14 43
M  V30 47 1 15 44
M  V30 48 1 17 45
M  V30 49 1 18 46
M  V30 50 1 21 47
M  V30 51 1 22 48
M  V30 52 1 25 49
M  V30 53 1 26 50
M  V30 54 1 27 51
M  V30 55 1 28 52
M  V30 56 1 28 53
M  V30 57 1 29 54
M  V30 58 1 29 55
M  V30 END BOND
M  V30 END CTAB
M  END
>  <Dataset>  (781) 
ChEMBL_Kinases

>  <Ligand_Instance>  (781) 
nan

>  <PDB_ID>  (781) 
nan

>  <Standardized_SMILES>  (781) 
OCC(O)CN1CCC(c2cc(-c3ccncc3)c(-c3ccc(F)cc3)[nH]2)CC1

>  <Name>  (781) 
nan

>  <Pocket>  (781) 
nan

>  <ATP_Site>  (781) 
nan

>  <Peripheral>  (781) 
nan

>  <Num_H_Atoms_ProtBoundConf>  (781) 
nan

>  <Num_Resolved_Atoms>  (781) 
nan

>  <Num_Not_Resolved_Atoms>  (781) 
nan

$$$$
CHEMBL196247
     RDKit          3D

  0  0  0  0  0  0  0  0  0  0999 V3000
M  V30 BEGIN CTAB
M  V30 COUNTS 50 53 0 0 0
M  V30 BEGIN ATOM
M  V30 1 C 0.153657 -2.340095 6.575777 0
M  V30 2 C 0.315870 -3.162303 5.300061 0
M  V30 3 C 0.658244 -2.279321 4.164198 0
M  V30 4 N 1.605560 -1.847459 3.644359 0
M  V30 5 C 1.636788 -1.038322 2.591618 0
M  V30 6 C 2.950743 -0.594273 2.073735 0
M  V30 7 C 3.395552 -0.903337 0.802741 0
M  V30 8 C 4.647068 -0.440071 0.407908 0
M  V30 9 C 5.469422 0.316353 1.227355 0
M  V30 10 C 6.801647 0.810306 0.809542 0
M  V30 11 C 5.028527 0.625317 2.493604 0
M  V30 12 C 3.783144 0.166328 2.891215 0
M  V30 13 C 0.476792 -0.649298 2.032511 0
M  V30 14 C 0.142901 0.180527 0.934023 0
M  V30 15 C 0.413336 1.521486 0.753574 0
M  V30 16 C 0.036251 2.243091 -0.366493 0
M  V30 17 N -0.642888 1.589540 -1.349784 0
M  V30 18 C -0.932404 0.275322 -1.220807 0
M  V30 19 N -1.657485 -0.330775 -2.315533 0
M  V30 20 C -3.045977 -0.186933 -2.023443 0
M  V30 21 O -3.271428 0.406991 -0.931306 0
M  V30 22 C -4.165679 -0.645667 -2.840111 0
M  V30 23 C -5.414562 -0.379404 -2.319086 0
M  V30 24 C -6.545066 -0.786380 -3.039181 0
M  V30 25 C -6.360028 -1.437635 -4.241574 0
M  V30 26 C -5.093820 -1.684805 -4.727890 0
M  V30 27 C -3.940808 -1.293235 -4.036714 0
M  V30 28 C -0.554818 -0.458337 -0.093591 0
M  V30 29 S -0.725223 -1.529325 3.124854 0
M  V30 30 H 1.124126 -2.277497 7.114476 0
M  V30 31 H -0.263803 -1.345373 6.311123 0
M  V30 32 H -0.548396 -2.886933 7.252905 0
M  V30 33 H 1.095896 -3.919755 5.360391 0
M  V30 34 H -0.702850 -3.607938 5.115129 0
M  V30 35 H 2.777924 -1.484725 0.155316 0
M  V30 36 H 5.040439 -0.656731 -0.581332 0
M  V30 37 H 6.895598 1.000873 -0.270880 0
M  V30 38 H 7.525807 -0.023797 1.034676 0
M  V30 39 H 7.069795 1.709746 1.401209 0
M  V30 40 H 5.622004 1.207489 3.172073 0
M  V30 41 H 3.468432 0.434872 3.910123 0
M  V30 42 H 0.951331 1.980912 1.563276 0
M  V30 43 H 0.287445 3.296727 -0.432688 0
M  V30 44 H -1.438965 -0.828081 -3.230540 0
M  V30 45 H -5.598824 0.122999 -1.390492 0
M  V30 46 H -7.527254 -0.584150 -2.642292 0
M  V30 47 H -7.260701 -1.733262 -4.762638 0
M  V30 48 H -4.969466 -2.201683 -5.681205 0
M  V30 49 H -2.956465 -1.488823 -4.421234 0
M  V30 50 H -0.855867 -1.504592 -0.129690 0
M  V30 END ATOM
M  V30 BEGIN BOND
M  V30 1 1 1 2
M  V30 2 1 2 3
M  V30 3 2 3 4
M  V30 4 1 4 5
M  V30 5 1 5 6
M  V30 6 2 6 7
M  V30 7 1 7 8
M  V30 8 2 8 9
M  V30 9 1 9 10
M  V30 10 1 9 11
M  V30 11 2 11 12
M  V30 12 2 5 13
M  V30 13 1 13 14
M  V30 14 2 14 15
M  V30 15 1 15 16
M  V30 16 2 16 17
M  V30 17 1 17 18
M  V30 18 1 18 19
M  V30 19 1 19 20
M  V30 20 2 20 21
M  V30 21 1 20 22
M  V30 22 2 22 23
M  V30 23 1 23 24
M  V30 24 2 24 25
M  V30 25 1 25 26
M  V30 26 2 26 27
M  V30 27 2 18 28
M  V30 28 1 13 29
M  V30 29 1 29 3
M  V30 30 1 12 6
M  V30 31 1 28 14
M  V30 32 1 27 22
M  V30 33 1 1 30
M  V30 34 1 1 31
M  V30 35 1 1 32
M  V30 36 1 2 33
M  V30 37 1 2 34
M  V30 38 1 7 35
M  V30 39 1 8 36
M  V30 40 1 10 37
M  V30 41 1 10 38
M  V30 42 1 10 39
M  V30 43 1 11 40
M  V30 44 1 12 41
M  V30 45 1 15 42
M  V30 46 1 16 43
M  V30 47 1 19 44
M  V30 48 1 23 45
M  V30 49 1 24 46
M  V30 50 1 25 47
M  V30 51 1 26 48
M  V30 52 1 27 49
M  V30 53 1 28 50
M  V30 END BOND
M  V30 END CTAB
M  END
>  <Dataset>  (782) 
ChEMBL_Kinases

>  <Ligand_Instance>  (782) 
nan

>  <PDB_ID>  (782) 
nan

>  <Standardized_SMILES>  (782) 
CCc1nc(-c2ccc(C)cc2)c(-c2ccnc(NC(=O)c3ccccc3)c2)s1

>  <Name>  (782) 
nan

>  <Pocket>  (782) 
nan

>  <ATP_Site>  (782) 
nan

>  <Peripheral>  (782) 
nan

>  <Num_H_Atoms_ProtBoundConf>  (782) 
nan

>  <Num_Resolved_Atoms>  (782) 
nan

>  <Num_Not_Resolved_Atoms>  (782) 
nan

$$$$
CHEMBL197538
     RDKit          3D

  0  0  0  0  0  0  0  0  0  0999 V3000
M  V30 BEGIN CTAB
M  V30 COUNTS 50 53 0 0 0
M  V30 BEGIN ATOM
M  V30 1 N -0.872667 -5.810677 3.763147 0
M  V30 2 C -0.293632 -4.911541 3.324240 0
M  V30 3 C 0.422661 -3.806744 2.793217 0
M  V30 4 C 1.674479 -3.543667 3.326791 0
M  V30 5 N 2.386596 -2.499111 2.846398 0
M  V30 6 C 1.927700 -1.702070 1.868119 0
M  V30 7 C 2.633700 -0.639452 1.368873 0
M  V30 8 N 2.145100 0.140678 0.387800 0
M  V30 9 C 0.945090 -0.030310 -0.195121 0
M  V30 10 N 0.457624 0.814219 -1.231031 0
M  V30 11 C 1.251127 1.914986 -1.685974 0
M  V30 12 C 1.566313 2.966002 -0.666996 0
M  V30 13 N 0.493196 3.695781 -0.091160 0
M  V30 14 C 1.063858 4.732544 0.783702 0
M  V30 15 C 1.614977 4.154387 2.042195 0
M  V30 16 O 1.300435 2.834273 2.279605 0
M  V30 17 C -0.008808 2.514639 2.009458 0
M  V30 18 C -0.477156 2.949361 0.632423 0
M  V30 19 C 0.212395 -1.099038 0.293205 0
M  V30 20 C 0.689715 -1.915155 1.299065 0
M  V30 21 C -0.056046 -2.986470 1.782503 0
M  V30 22 N -1.342588 -3.277965 1.254318 0
M  V30 23 C -1.826447 -4.089295 0.189252 0
M  V30 24 C -3.194348 -4.107296 0.004920 0
M  V30 25 C -3.638558 -4.898591 -1.031011 0
M  V30 26 C -2.790915 -5.628949 -1.838162 0
M  V30 27 F -3.377119 -6.359998 -2.815393 0
M  V30 28 C -1.421061 -5.567540 -1.599609 0
M  V30 29 Cl -0.421416 -6.525435 -2.671142 0
M  V30 30 C -0.928721 -4.787498 -0.572036 0
M  V30 31 H 2.164166 -4.098134 4.110993 0
M  V30 32 H 3.616577 -0.424385 1.780860 0
M  V30 33 H -0.480211 0.578229 -1.630078 0
M  V30 34 H 0.838233 2.375244 -2.619612 0
M  V30 35 H 2.250847 1.453219 -1.974832 0
M  V30 36 H 2.170879 2.501671 0.166640 0
M  V30 37 H 2.251613 3.748493 -1.126020 0
M  V30 38 H 0.290035 5.510474 0.959210 0
M  V30 39 H 1.863477 5.237714 0.208751 0
M  V30 40 H 2.727702 4.274584 2.029663 0
M  V30 41 H 1.260355 4.789950 2.904517 0
M  V30 42 H -0.687626 2.919506 2.808076 0
M  V30 43 H -0.113531 1.408917 2.051787 0
M  V30 44 H -0.918722 2.148325 0.048717 0
M  V30 45 H -1.344955 3.663971 0.839946 0
M  V30 46 H -0.764144 -1.303804 -0.123204 0
M  V30 47 H -1.920391 -2.709977 1.879623 0
M  V30 48 H -3.857221 -3.546218 0.623337 0
M  V30 49 H -4.720855 -4.927492 -1.194946 0
M  V30 50 H 0.139810 -4.771794 -0.425760 0
M  V30 END ATOM
M  V30 BEGIN BOND
M  V30 1 3 1 2
M  V30 2 1 2 3
M  V30 3 2 3 4
M  V30 4 1 4 5
M  V30 5 2 5 6
M  V30 6 1 6 7
M  V30 7 2 7 8
M  V30 8 1 8 9
M  V30 9 1 9 10
M  V30 10 1 10 11
M  V30 11 1 11 12
M  V30 12 1 12 13
M  V30 13 1 13 14
M  V30 14 1 14 15
M  V30 15 1 15 16
M  V30 16 1 16 17
M  V30 17 1 17 18
M  V30 18 2 9 19
M  V30 19 1 19 20
M  V30 20 2 20 21
M  V30 21 1 21 22
M  V30 22 1 22 23
M  V30 23 2 23 24
M  V30 24 1 24 25
M  V30 25 2 25 26
M  V30 26 1 26 27
M  V30 27 1 26 28
M  V30 28 1 28 29
M  V30 29 2 28 30
M  V30 30 1 21 3
M  V30 31 1 30 23
M  V30 32 1 20 6
M  V30 33 1 18 13
M  V30 34 1 4 31
M  V30 35 1 7 32
M  V30 36 1 10 33
M  V30 37 1 11 34
M  V30 38 1 11 35
M  V30 39 1 12 36
M  V30 40 1 12 37
M  V30 41 1 14 38
M  V30 42 1 14 39
M  V30 43 1 15 40
M  V30 44 1 15 41
M  V30 45 1 17 42
M  V30 46 1 17 43
M  V30 47 1 18 44
M  V30 48 1 18 45
M  V30 49 1 19 46
M  V30 50 1 22 47
M  V30 51 1 24 48
M  V30 52 1 25 49
M  V30 53 1 30 50
M  V30 END BOND
M  V30 END CTAB
M  END
>  <Dataset>  (783) 
ChEMBL_Kinases

>  <Ligand_Instance>  (783) 
nan

>  <PDB_ID>  (783) 
nan

>  <Standardized_SMILES>  (783) 
N#Cc1cnc2cnc(NCCN3CCOCC3)cc2c1Nc1ccc(F)c(Cl)c1

>  <Name>  (783) 
nan

>  <Pocket>  (783) 
nan

>  <ATP_Site>  (783) 
nan

>  <Peripheral>  (783) 
nan

>  <Num_H_Atoms_ProtBoundConf>  (783) 
nan

>  <Num_Resolved_Atoms>  (783) 
nan

>  <Num_Not_Resolved_Atoms>  (783) 
nan

$$$$
CHEMBL1957947
     RDKit          3D

  0  0  0  0  0  0  0  0  0  0999 V3000
M  V30 BEGIN CTAB
M  V30 COUNTS 54 57 0 0 0
M  V30 BEGIN ATOM
M  V30 1 C 4.365409 -2.646972 3.249167 0
M  V30 2 S 2.915664 -3.326203 2.496456 0
M  V30 3 O 2.257878 -4.361420 3.321210 0
M  V30 4 O 3.284407 -3.893577 1.129822 0
M  V30 5 N 1.832730 -2.020981 2.170952 0
M  V30 6 C 1.934633 -0.870695 1.359517 0
M  V30 7 C 1.480404 0.348793 1.804184 0
M  V30 8 C 1.561119 1.450700 0.981384 0
M  V30 9 C 2.091977 1.397109 -0.313966 0
M  V30 10 C 2.008698 2.720740 -1.036964 0
M  V30 11 C 0.721890 2.546241 -1.890710 0
M  V30 12 N -0.383614 2.228706 -1.041642 0
M  V30 13 C -1.184396 2.670425 0.009669 0
M  V30 14 O -0.802714 3.850530 0.352301 0
M  V30 15 C -2.261496 1.960548 0.643587 0
M  V30 16 C -3.140775 2.660121 1.400616 0
M  V30 17 C -4.127744 1.911022 2.041636 0
M  V30 18 C -4.211846 0.535812 1.917384 0
M  V30 19 O -5.215779 -0.207153 2.576890 0
M  V30 20 C -3.292959 -0.124932 1.132064 0
M  V30 21 N -3.195979 -1.444860 0.884489 0
M  V30 22 C -2.147476 -1.601026 0.079130 0
M  V30 23 C -1.569799 -2.813624 -0.521941 0
M  V30 24 C -0.470742 -2.911811 -1.344865 0
M  V30 25 C -0.056508 -4.128944 -1.819412 0
M  V30 26 C -0.697206 -5.331681 -1.516015 0
M  V30 27 Cl -0.141034 -6.858622 -2.141395 0
M  V30 28 C -1.802819 -5.271677 -0.693569 0
M  V30 29 C -2.200730 -4.024846 -0.226734 0
M  V30 30 N -1.629860 -0.392282 -0.147931 0
M  V30 31 C -2.301475 0.582318 0.482675 0
M  V30 32 C 2.546740 0.174183 -0.749114 0
M  V30 33 C 2.460841 -0.923204 0.084953 0
M  V30 34 H 4.099922 -2.057802 4.148234 0
M  V30 35 H 5.069366 -3.471366 3.463358 0
M  V30 36 H 4.854385 -2.000103 2.473478 0
M  V30 37 H 0.892169 -2.057257 2.674509 0
M  V30 38 H 1.071884 0.367692 2.807637 0
M  V30 39 H 1.185247 2.342493 1.484096 0
M  V30 40 H 2.847445 2.789002 -1.748691 0
M  V30 41 H 1.941852 3.543585 -0.344835 0
M  V30 42 H 0.582523 3.413673 -2.537186 0
M  V30 43 H 0.963767 1.700847 -2.546985 0
M  V30 44 H -0.757579 1.273833 -1.343607 0
M  V30 45 H -3.100331 3.741091 1.514662 0
M  V30 46 H -4.865216 2.398862 2.660726 0
M  V30 47 H -4.966333 -1.134022 2.961096 0
M  V30 48 H -3.774364 -2.248669 1.209084 0
M  V30 49 H 0.005855 -1.964960 -1.563920 0
M  V30 50 H 0.814352 -4.177437 -2.468035 0
M  V30 51 H -2.290973 -6.193970 -0.462029 0
M  V30 52 H -3.088715 -4.037582 0.424010 0
M  V30 53 H 2.942823 0.216009 -1.750862 0
M  V30 54 H 2.835441 -1.850105 -0.319867 0
M  V30 END ATOM
M  V30 BEGIN BOND
M  V30 1 1 1 2
M  V30 2 2 2 3
M  V30 3 2 2 4
M  V30 4 1 2 5
M  V30 5 1 5 6
M  V30 6 2 6 7
M  V30 7 1 7 8
M  V30 8 2 8 9
M  V30 9 1 9 10
M  V30 10 1 10 11
M  V30 11 1 11 12
M  V30 12 1 12 13
M  V30 13 2 13 14
M  V30 14 1 13 15
M  V30 15 2 15 16
M  V30 16 1 16 17
M  V30 17 2 17 18
M  V30 18 1 18 19
M  V30 19 1 18 20
M  V30 20 1 20 21
M  V30 21 1 21 22
M  V30 22 1 22 23
M  V30 23 2 23 24
M  V30 24 1 24 25
M  V30 25 2 25 26
M  V30 26 1 26 27
M  V30 27 1 26 28
M  V30 28 2 28 29
M  V30 29 2 22 30
M  V30 30 1 30 31
M  V30 31 1 9 32
M  V30 32 2 32 33
M  V30 33 1 33 6
M  V30 34 1 31 15
M  V30 35 2 31 20
M  V30 36 1 29 23
M  V30 37 1 1 34
M  V30 38 1 1 35
M  V30 39 1 1 36
M  V30 40 1 5 37
M  V30 41 1 7 38
M  V30 42 1 8 39
M  V30 43 1 10 40
M  V30 44 1 10 41
M  V30 45 1 11 42
M  V30 46 1 11 43
M  V30 47 1 12 44
M  V30 48 1 16 45
M  V30 49 1 17 46
M  V30 50 1 19 47
M  V30 51 1 21 48
M  V30 52 1 24 49
M  V30 53 1 25 50
M  V30 54 1 28 51
M  V30 55 1 29 52
M  V30 56 1 32 53
M  V30 57 1 33 54
M  V30 END BOND
M  V30 END CTAB
M  END
>  <Dataset>  (784) 
ChEMBL_Kinases

>  <Ligand_Instance>  (784) 
nan

>  <PDB_ID>  (784) 
nan

>  <Standardized_SMILES>  (784) 
CS(=O)(=O)Nc1ccc(CCNC(=O)c2ccc(O)c3[nH]c(-c4ccc(Cl)cc4)nc23)cc1

>  <Name>  (784) 
nan

>  <Pocket>  (784) 
nan

>  <ATP_Site>  (784) 
nan

>  <Peripheral>  (784) 
nan

>  <Num_H_Atoms_ProtBoundConf>  (784) 
nan

>  <Num_Resolved_Atoms>  (784) 
nan

>  <Num_Not_Resolved_Atoms>  (784) 
nan

$$$$
CHEMBL1957948
     RDKit          3D

  0  0  0  0  0  0  0  0  0  0999 V3000
M  V30 BEGIN CTAB
M  V30 COUNTS 54 57 0 0 0
M  V30 BEGIN ATOM
M  V30 1 C 5.636330 -2.528656 2.172344 0
M  V30 2 S 5.056714 -1.420014 3.423403 0
M  V30 3 O 5.944412 -0.208530 3.465701 0
M  V30 4 O 5.189559 -2.114429 4.739463 0
M  V30 5 N 3.429978 -0.917033 3.165280 0
M  V30 6 C 3.043891 -0.198755 2.014284 0
M  V30 7 C 3.733653 0.864498 1.487131 0
M  V30 8 C 3.238015 1.471433 0.357392 0
M  V30 9 C 2.069767 1.095944 -0.318165 0
M  V30 10 C 1.724617 1.890831 -1.523377 0
M  V30 11 C 0.887234 3.065255 -1.094777 0
M  V30 12 N -0.324245 2.603037 -0.465871 0
M  V30 13 C -1.282979 1.803319 -1.134250 0
M  V30 14 O -1.144707 1.439063 -2.329804 0
M  V30 15 C -2.472118 1.405620 -0.362766 0
M  V30 16 C -3.290638 2.394586 0.150662 0
M  V30 17 C -4.417856 2.077963 0.881597 0
M  V30 18 C -4.741341 0.740659 1.109126 0
M  V30 19 O -5.844748 0.306211 1.826452 0
M  V30 20 C -3.927922 -0.276702 0.599371 0
M  V30 21 N -3.960888 -1.628746 0.639878 0
M  V30 22 C -2.902794 -2.119933 -0.035039 0
M  V30 23 C -2.574565 -3.532160 -0.226446 0
M  V30 24 C -3.414451 -4.477283 0.328786 0
M  V30 25 C -3.131852 -5.809662 0.165461 0
M  V30 26 C -2.009003 -6.177221 -0.553617 0
M  V30 27 F -1.665407 -7.485040 -0.756873 0
M  V30 28 C -1.140935 -5.241589 -1.126885 0
M  V30 29 C -1.469904 -3.901270 -0.933770 0
M  V30 30 F -0.624290 -2.982163 -1.492288 0
M  V30 31 N -2.202888 -1.057946 -0.501232 0
M  V30 32 C -2.812741 0.089637 -0.124542 0
M  V30 33 C 1.406846 0.027187 0.239721 0
M  V30 34 C 1.889336 -0.590847 1.369594 0
M  V30 35 H 5.766789 -3.566340 2.532583 0
M  V30 36 H 4.978184 -2.534859 1.278992 0
M  V30 37 H 6.638478 -2.196919 1.799749 0
M  V30 38 H 2.689580 -1.138091 3.866714 0
M  V30 39 H 4.631773 1.192095 1.963683 0
M  V30 40 H 3.837266 2.312993 -0.010015 0
M  V30 41 H 1.166207 1.231035 -2.226475 0
M  V30 42 H 2.677524 2.250368 -1.993557 0
M  V30 43 H 0.612006 3.680802 -2.000602 0
M  V30 44 H 1.501584 3.690103 -0.425257 0
M  V30 45 H -0.481480 2.883393 0.530338 0
M  V30 46 H -3.069061 3.446153 -0.007210 0
M  V30 47 H -5.100535 2.803956 1.311342 0
M  V30 48 H -6.615166 -0.047012 1.274160 0
M  V30 49 H -4.705922 -2.156174 1.127378 0
M  V30 50 H -4.297676 -4.164888 0.894037 0
M  V30 51 H -3.748670 -6.597906 0.574653 0
M  V30 52 H -0.272418 -5.522482 -1.683172 0
M  V30 53 H 0.514906 -0.266694 -0.273978 0
M  V30 54 H 1.273510 -1.430251 1.719391 0
M  V30 END ATOM
M  V30 BEGIN BOND
M  V30 1 1 1 2
M  V30 2 2 2 3
M  V30 3 2 2 4
M  V30 4 1 2 5
M  V30 5 1 5 6
M  V30 6 2 6 7
M  V30 7 1 7 8
M  V30 8 2 8 9
M  V30 9 1 9 10
M  V30 10 1 10 11
M  V30 11 1 11 12
M  V30 12 1 12 13
M  V30 13 2 13 14
M  V30 14 1 13 15
M  V30 15 2 15 16
M  V30 16 1 16 17
M  V30 17 2 17 18
M  V30 18 1 18 19
M  V30 19 1 18 20
M  V30 20 1 20 21
M  V30 21 1 21 22
M  V30 22 1 22 23
M  V30 23 2 23 24
M  V30 24 1 24 25
M  V30 25 2 25 26
M  V30 26 1 26 27
M  V30 27 1 26 28
M  V30 28 2 28 29
M  V30 29 1 29 30
M  V30 30 2 22 31
M  V30 31 1 31 32
M  V30 32 1 9 33
M  V30 33 2 33 34
M  V30 34 1 34 6
M  V30 35 1 32 15
M  V30 36 2 32 20
M  V30 37 1 29 23
M  V30 38 1 1 35
M  V30 39 1 1 36
M  V30 40 1 1 37
M  V30 41 1 5 38
M  V30 42 1 7 39
M  V30 43 1 8 40
M  V30 44 1 10 41
M  V30 45 1 10 42
M  V30 46 1 11 43
M  V30 47 1 11 44
M  V30 48 1 12 45
M  V30 49 1 16 46
M  V30 50 1 17 47
M  V30 51 1 19 48
M  V30 52 1 21 49
M  V30 53 1 24 50
M  V30 54 1 25 51
M  V30 55 1 28 52
M  V30 56 1 33 53
M  V30 57 1 34 54
M  V30 END BOND
M  V30 END CTAB
M  END
>  <Dataset>  (785) 
ChEMBL_Kinases

>  <Ligand_Instance>  (785) 
nan

>  <PDB_ID>  (785) 
nan

>  <Standardized_SMILES>  (785) 
CS(=O)(=O)Nc1ccc(CCNC(=O)c2ccc(O)c3[nH]c(-c4ccc(F)cc4F)nc23)cc1

>  <Name>  (785) 
nan

>  <Pocket>  (785) 
nan

>  <ATP_Site>  (785) 
nan

>  <Peripheral>  (785) 
nan

>  <Num_H_Atoms_ProtBoundConf>  (785) 
nan

>  <Num_Resolved_Atoms>  (785) 
nan

>  <Num_Not_Resolved_Atoms>  (785) 
nan

$$$$
CHEMBL1957949
     RDKit          3D

  0  0  0  0  0  0  0  0  0  0999 V3000
M  V30 BEGIN CTAB
M  V30 COUNTS 54 57 0 0 0
M  V30 BEGIN ATOM
M  V30 1 C 5.089347 -2.545753 2.765749 0
M  V30 2 S 4.220905 -3.573760 1.598144 0
M  V30 3 O 4.072032 -4.975236 2.116239 0
M  V30 4 O 4.930377 -3.538742 0.279886 0
M  V30 5 N 2.657046 -2.850207 1.355982 0
M  V30 6 C 2.561644 -1.543165 0.821204 0
M  V30 7 C 1.641246 -0.744727 1.506920 0
M  V30 8 C 1.421953 0.558385 1.116363 0
M  V30 9 C 2.083613 1.131705 0.052675 0
M  V30 10 C 1.911839 2.522843 -0.442037 0
M  V30 11 C 0.823157 2.521515 -1.495915 0
M  V30 12 N -0.450642 2.061192 -1.004248 0
M  V30 13 C -1.211235 2.623541 0.030793 0
M  V30 14 O -0.763031 3.658206 0.630818 0
M  V30 15 C -2.494173 2.127755 0.498007 0
M  V30 16 C -3.519897 2.950107 0.956729 0
M  V30 17 C -4.732890 2.413526 1.394271 0
M  V30 18 C -4.942403 1.055216 1.381869 0
M  V30 19 O -6.148405 0.488366 1.814452 0
M  V30 20 C -3.944663 0.185347 0.930819 0
M  V30 21 N -3.864674 -1.151932 0.806403 0
M  V30 22 C -2.644935 -1.409386 0.311110 0
M  V30 23 C -2.042881 -2.700972 -0.015519 0
M  V30 24 C -0.757726 -2.823839 -0.524611 0
M  V30 25 C -0.182415 -4.044585 -0.835746 0
M  V30 26 C -0.918532 -5.213312 -0.632544 0
M  V30 27 F -0.308989 -6.368960 -0.952452 0
M  V30 28 C -2.212335 -5.101316 -0.120864 0
M  V30 29 C -2.766755 -3.865588 0.183275 0
M  V30 30 N -1.996758 -0.243058 0.138542 0
M  V30 31 C -2.777990 0.795046 0.516536 0
M  V30 32 C 3.003077 0.324715 -0.627816 0
M  V30 33 C 3.229842 -0.980240 -0.245224 0
M  V30 34 H 4.384250 -2.093572 3.483542 0
M  V30 35 H 5.918282 -3.099143 3.248330 0
M  V30 36 H 5.580524 -1.725306 2.173975 0
M  V30 37 H 1.817999 -3.397651 1.611683 0
M  V30 38 H 1.059992 -1.078491 2.356173 0
M  V30 39 H 0.713724 1.184761 1.640493 0
M  V30 40 H 2.852232 2.848949 -0.912498 0
M  V30 41 H 1.643309 3.215546 0.378843 0
M  V30 42 H 0.752859 3.503259 -2.007335 0
M  V30 43 H 1.166247 1.806366 -2.272025 0
M  V30 44 H -0.934162 1.209694 -1.416889 0
M  V30 45 H -3.344345 4.024902 0.962541 0
M  V30 46 H -5.517246 3.070701 1.747279 0
M  V30 47 H -6.171400 -0.182715 2.563377 0
M  V30 48 H -4.593637 -1.850884 1.042939 0
M  V30 49 H -0.238563 -1.884921 -0.658638 0
M  V30 50 H 0.823656 -3.976700 -1.222471 0
M  V30 51 H -2.735508 -6.038439 0.015967 0
M  V30 52 H -3.763369 -3.813114 0.575287 0
M  V30 53 H 3.588442 0.670022 -1.489697 0
M  V30 54 H 3.922928 -1.659403 -0.721984 0
M  V30 END ATOM
M  V30 BEGIN BOND
M  V30 1 1 1 2
M  V30 2 2 2 3
M  V30 3 2 2 4
M  V30 4 1 2 5
M  V30 5 1 5 6
M  V30 6 2 6 7
M  V30 7 1 7 8
M  V30 8 2 8 9
M  V30 9 1 9 10
M  V30 10 1 10 11
M  V30 11 1 11 12
M  V30 12 1 12 13
M  V30 13 2 13 14
M  V30 14 1 13 15
M  V30 15 2 15 16
M  V30 16 1 16 17
M  V30 17 2 17 18
M  V30 18 1 18 19
M  V30 19 1 18 20
M  V30 20 1 20 21
M  V30 21 1 21 22
M  V30 22 1 22 23
M  V30 23 2 23 24
M  V30 24 1 24 25
M  V30 25 2 25 26
M  V30 26 1 26 27
M  V30 27 1 26 28
M  V30 28 2 28 29
M  V30 29 2 22 30
M  V30 30 1 30 31
M  V30 31 1 9 32
M  V30 32 2 32 33
M  V30 33 1 33 6
M  V30 34 1 31 15
M  V30 35 2 31 20
M  V30 36 1 29 23
M  V30 37 1 1 34
M  V30 38 1 1 35
M  V30 39 1 1 36
M  V30 40 1 5 37
M  V30 41 1 7 38
M  V30 42 1 8 39
M  V30 43 1 10 40
M  V30 44 1 10 41
M  V30 45 1 11 42
M  V30 46 1 11 43
M  V30 47 1 12 44
M  V30 48 1 16 45
M  V30 49 1 17 46
M  V30 50 1 19 47
M  V30 51 1 21 48
M  V30 52 1 24 49
M  V30 53 1 25 50
M  V30 54 1 28 51
M  V30 55 1 29 52
M  V30 56 1 32 53
M  V30 57 1 33 54
M  V30 END BOND
M  V30 END CTAB
M  END
>  <Dataset>  (786) 
ChEMBL_Kinases

>  <Ligand_Instance>  (786) 
nan

>  <PDB_ID>  (786) 
nan

>  <Standardized_SMILES>  (786) 
CS(=O)(=O)Nc1ccc(CCNC(=O)c2ccc(O)c3[nH]c(-c4ccc(F)cc4)nc23)cc1

>  <Name>  (786) 
nan

>  <Pocket>  (786) 
nan

>  <ATP_Site>  (786) 
nan

>  <Peripheral>  (786) 
nan

>  <Num_H_Atoms_ProtBoundConf>  (786) 
nan

>  <Num_Resolved_Atoms>  (786) 
nan

>  <Num_Not_Resolved_Atoms>  (786) 
nan

$$$$
CHEMBL1957950
     RDKit          3D

  0  0  0  0  0  0  0  0  0  0999 V3000
M  V30 BEGIN CTAB
M  V30 COUNTS 54 57 0 0 0
M  V30 BEGIN ATOM
M  V30 1 C 4.784635 -2.979835 3.163065 0
M  V30 2 S 4.260524 -1.734165 4.326533 0
M  V30 3 O 5.284419 -0.647338 4.450943 0
M  V30 4 O 3.962807 -2.399829 5.638714 0
M  V30 5 N 2.769608 -1.062729 3.730162 0
M  V30 6 C 2.618133 -0.381198 2.494645 0
M  V30 7 C 3.511976 0.598818 2.051963 0
M  V30 8 C 3.320748 1.239086 0.842559 0
M  V30 9 C 2.233569 0.937695 0.014857 0
M  V30 10 C 2.107287 1.674998 -1.266750 0
M  V30 11 C 1.307515 2.941683 -1.011368 0
M  V30 12 N -0.012888 2.642038 -0.512102 0
M  V30 13 C -1.006661 1.884250 -1.188198 0
M  V30 14 O -0.713181 1.425236 -2.341531 0
M  V30 15 C -2.323970 1.633102 -0.590328 0
M  V30 16 C -3.200512 2.580737 -0.156393 0
M  V30 17 C -4.425604 2.261382 0.400665 0
M  V30 18 C -4.812186 0.925423 0.539113 0
M  V30 19 O -6.020398 0.546170 1.086629 0
M  V30 20 C -3.956144 -0.067273 0.112903 0
M  V30 21 N -3.968742 -1.405329 0.078521 0
M  V30 22 C -2.853877 -1.916289 -0.452372 0
M  V30 23 C -2.365900 -3.256490 -0.717772 0
M  V30 24 C -1.131942 -3.463108 -1.306328 0
M  V30 25 C -0.609596 -4.699730 -1.585787 0
M  V30 26 C -1.315854 -5.830412 -1.281651 0
M  V30 27 F -0.762466 -7.024843 -1.575501 0
M  V30 28 C -2.550169 -5.671820 -0.694006 0
M  V30 29 C -3.032246 -4.407589 -0.433024 0
M  V30 30 Cl -4.594191 -4.383632 0.307378 0
M  V30 31 N -2.123743 -0.829435 -0.757304 0
M  V30 32 C -2.750484 0.309342 -0.433285 0
M  V30 33 C 1.386559 -0.031668 0.495418 0
M  V30 34 C 1.540709 -0.691314 1.690711 0
M  V30 35 H 4.911849 -3.964492 3.673494 0
M  V30 36 H 4.059368 -3.097751 2.334992 0
M  V30 37 H 5.762544 -2.683195 2.713642 0
M  V30 38 H 1.872878 -1.133387 4.281021 0
M  V30 39 H 4.320617 0.782839 2.730899 0
M  V30 40 H 4.057521 1.994924 0.556738 0
M  V30 41 H 3.119691 1.960633 -1.593472 0
M  V30 42 H 1.584238 1.026499 -2.007913 0
M  V30 43 H 1.259179 3.582043 -1.915558 0
M  V30 44 H 1.855244 3.502162 -0.240262 0
M  V30 45 H -0.320202 2.989355 0.429536 0
M  V30 46 H -2.892429 3.625774 -0.266953 0
M  V30 47 H -5.097240 3.046162 0.733762 0
M  V30 48 H -6.523226 -0.222840 0.671007 0
M  V30 49 H -4.751696 -1.955503 0.423200 0
M  V30 50 H -0.509990 -2.598783 -1.576632 0
M  V30 51 H 0.352664 -4.786122 -2.043830 0
M  V30 52 H -3.079647 -6.577020 -0.467461 0
M  V30 53 H 0.544346 -0.289155 -0.118591 0
M  V30 54 H 0.807517 -1.441530 1.970001 0
M  V30 END ATOM
M  V30 BEGIN BOND
M  V30 1 1 1 2
M  V30 2 2 2 3
M  V30 3 2 2 4
M  V30 4 1 2 5
M  V30 5 1 5 6
M  V30 6 2 6 7
M  V30 7 1 7 8
M  V30 8 2 8 9
M  V30 9 1 9 10
M  V30 10 1 10 11
M  V30 11 1 11 12
M  V30 12 1 12 13
M  V30 13 2 13 14
M  V30 14 1 13 15
M  V30 15 2 15 16
M  V30 16 1 16 17
M  V30 17 2 17 18
M  V30 18 1 18 19
M  V30 19 1 18 20
M  V30 20 1 20 21
M  V30 21 1 21 22
M  V30 22 1 22 23
M  V30 23 2 23 24
M  V30 24 1 24 25
M  V30 25 2 25 26
M  V30 26 1 26 27
M  V30 27 1 26 28
M  V30 28 2 28 29
M  V30 29 1 29 30
M  V30 30 2 22 31
M  V30 31 1 31 32
M  V30 32 1 9 33
M  V30 33 2 33 34
M  V30 34 1 34 6
M  V30 35 1 32 15
M  V30 36 2 32 20
M  V30 37 1 29 23
M  V30 38 1 1 35
M  V30 39 1 1 36
M  V30 40 1 1 37
M  V30 41 1 5 38
M  V30 42 1 7 39
M  V30 43 1 8 40
M  V30 44 1 10 41
M  V30 45 1 10 42
M  V30 46 1 11 43
M  V30 47 1 11 44
M  V30 48 1 12 45
M  V30 49 1 16 46
M  V30 50 1 17 47
M  V30 51 1 19 48
M  V30 52 1 21 49
M  V30 53 1 24 50
M  V30 54 1 25 51
M  V30 55 1 28 52
M  V30 56 1 33 53
M  V30 57 1 34 54
M  V30 END BOND
M  V30 END CTAB
M  END
>  <Dataset>  (787) 
ChEMBL_Kinases

>  <Ligand_Instance>  (787) 
nan

>  <PDB_ID>  (787) 
nan

>  <Standardized_SMILES>  (787) 
CS(=O)(=O)Nc1ccc(CCNC(=O)c2ccc(O)c3[nH]c(-c4ccc(F)cc4Cl)nc23)cc1

>  <Name>  (787) 
nan

>  <Pocket>  (787) 
nan

>  <ATP_Site>  (787) 
nan

>  <Peripheral>  (787) 
nan

>  <Num_H_Atoms_ProtBoundConf>  (787) 
nan

>  <Num_Resolved_Atoms>  (787) 
nan

>  <Num_Not_Resolved_Atoms>  (787) 
nan

$$$$
CHEMBL1957952
     RDKit          3D

  0  0  0  0  0  0  0  0  0  0999 V3000
M  V30 BEGIN CTAB
M  V30 COUNTS 64 68 0 0 0
M  V30 BEGIN ATOM
M  V30 1 C 2.899319 -2.799171 2.775022 0
M  V30 2 C 3.355821 -1.716124 1.843636 0
M  V30 3 C 3.089236 -0.393932 2.202050 0
M  V30 4 C 3.527372 0.582207 1.313807 0
M  V30 5 C 4.187916 0.298475 0.141509 0
M  V30 6 S 4.607964 1.718018 -0.754495 0
M  V30 7 O 4.967343 2.876390 0.156585 0
M  V30 8 O 5.856271 1.413649 -1.541553 0
M  V30 9 N 3.390590 2.202152 -1.849179 0
M  V30 10 C 2.124266 2.557438 -1.332268 0
M  V30 11 C 0.996580 2.086329 -1.971557 0
M  V30 12 C -0.279344 2.382745 -1.541298 0
M  V30 13 C -0.503727 3.173641 -0.437833 0
M  V30 14 C -1.799553 3.579532 0.147063 0
M  V30 15 C -2.231885 2.579237 1.184369 0
M  V30 16 N -2.398391 1.279548 0.588770 0
M  V30 17 C -3.319661 0.973477 -0.449526 0
M  V30 18 O -4.044489 1.922486 -0.877111 0
M  V30 19 C -3.509414 -0.331066 -1.069160 0
M  V30 20 C -4.071471 -0.430186 -2.322220 0
M  V30 21 C -4.286278 -1.623606 -2.972173 0
M  V30 22 C -3.938515 -2.802495 -2.380416 0
M  V30 23 O -4.141491 -4.024489 -3.007997 0
M  V30 24 C -3.373511 -2.722235 -1.124186 0
M  V30 25 N -2.933500 -3.690645 -0.300253 0
M  V30 26 C -2.447745 -3.138953 0.850214 0
M  V30 27 C -1.878114 -3.835816 1.999506 0
M  V30 28 C -1.406615 -3.175464 3.113720 0
M  V30 29 C -0.873955 -3.877525 4.184473 0
M  V30 30 C -0.834454 -5.261090 4.090670 0
M  V30 31 F -0.326760 -6.040466 5.094161 0
M  V30 32 C -1.296043 -5.958387 2.993279 0
M  V30 33 C -1.817983 -5.212036 1.951826 0
M  V30 34 N -2.599540 -1.792339 0.716845 0
M  V30 35 C -3.159569 -1.523137 -0.475401 0
M  V30 36 C 0.657848 3.630624 0.181282 0
M  V30 37 C 1.944520 3.354034 -0.221875 0
M  V30 38 C 4.439158 -1.010032 -0.190331 0
M  V30 39 C 4.024321 -2.026330 0.659576 0
M  V30 40 H 3.657863 -2.973976 3.586870 0
M  V30 41 H 1.983061 -2.495968 3.305910 0
M  V30 42 H 2.742058 -3.766186 2.256071 0
M  V30 43 H 2.569952 -0.200166 3.125572 0
M  V30 44 H 3.268800 1.585869 1.687643 0
M  V30 45 H 3.477394 2.269013 -2.901499 0
M  V30 46 H 1.074418 1.446681 -2.863305 0
M  V30 47 H -1.159024 2.017160 -2.042506 0
M  V30 48 H -1.641384 4.554626 0.691645 0
M  V30 49 H -2.556355 3.685071 -0.645353 0
M  V30 50 H -3.248698 2.849642 1.598579 0
M  V30 51 H -1.492876 2.481090 2.003117 0
M  V30 52 H -1.832925 0.447760 0.890842 0
M  V30 53 H -4.357527 0.508929 -2.815663 0
M  V30 54 H -4.736938 -1.583773 -3.957777 0
M  V30 55 H -3.360959 -4.476443 -3.504347 0
M  V30 56 H -2.965294 -4.709123 -0.520925 0
M  V30 57 H -1.457063 -2.090320 3.142847 0
M  V30 58 H -0.501352 -3.390824 5.060362 0
M  V30 59 H -1.251169 -7.053396 2.949452 0
M  V30 60 H -2.187986 -5.725652 1.079107 0
M  V30 61 H 0.597176 4.266645 1.067213 0
M  V30 62 H 2.806630 3.739439 0.301785 0
M  V30 63 H 4.957656 -1.154728 -1.117158 0
M  V30 64 H 4.228489 -3.041209 0.385702 0
M  V30 END ATOM
M  V30 BEGIN BOND
M  V30 1 1 1 2
M  V30 2 2 2 3
M  V30 3 1 3 4
M  V30 4 2 4 5
M  V30 5 1 5 6
M  V30 6 2 6 7
M  V30 7 2 6 8
M  V30 8 1 6 9
M  V30 9 1 9 10
M  V30 10 2 10 11
M  V30 11 1 11 12
M  V30 12 2 12 13
M  V30 13 1 13 14
M  V30 14 1 14 15
M  V30 15 1 15 16
M  V30 16 1 16 17
M  V30 17 2 17 18
M  V30 18 1 17 19
M  V30 19 2 19 20
M  V30 20 1 20 21
M  V30 21 2 21 22
M  V30 22 1 22 23
M  V30 23 1 22 24
M  V30 24 1 24 25
M  V30 25 1 25 26
M  V30 26 1 26 27
M  V30 27 2 27 28
M  V30 28 1 28 29
M  V30 29 2 29 30
M  V30 30 1 30 31
M  V30 31 1 30 32
M  V30 32 2 32 33
M  V30 33 2 26 34
M  V30 34 1 34 35
M  V30 35 1 13 36
M  V30 36 2 36 37
M  V30 37 1 5 38
M  V30 38 2 38 39
M  V30 39 1 39 2
M  V30 40 1 37 10
M  V30 41 1 35 19
M  V30 42 2 35 24
M  V30 43 1 33 27
M  V30 44 1 1 40
M  V30 45 1 1 41
M  V30 46 1 1 42
M  V30 47 1 3 43
M  V30 48 1 4 44
M  V30 49 1 9 45
M  V30 50 1 11 46
M  V30 51 1 12 47
M  V30 52 1 14 48
M  V30 53 1 14 49
M  V30 54 1 15 50
M  V30 55 1 15 51
M  V30 56 1 16 52
M  V30 57 1 20 53
M  V30 58 1 21 54
M  V30 59 1 23 55
M  V30 60 1 25 56
M  V30 61 1 28 57
M  V30 62 1 29 58
M  V30 63 1 32 59
M  V30 64 1 33 60
M  V30 65 1 36 61
M  V30 66 1 37 62
M  V30 67 1 38 63
M  V30 68 1 39 64
M  V30 END BOND
M  V30 END CTAB
M  END
>  <Dataset>  (788) 
ChEMBL_Kinases

>  <Ligand_Instance>  (788) 
nan

>  <PDB_ID>  (788) 
nan

>  <Standardized_SMILES>  (788) 
Cc1ccc(S(=O)(=O)Nc2ccc(CCNC(=O)c3ccc(O)c4[nH]c(-c5ccc(F)cc5)nc34)cc2)cc1

>  <Name>  (788) 
nan

>  <Pocket>  (788) 
nan

>  <ATP_Site>  (788) 
nan

>  <Peripheral>  (788) 
nan

>  <Num_H_Atoms_ProtBoundConf>  (788) 
nan

>  <Num_Resolved_Atoms>  (788) 
nan

>  <Num_Not_Resolved_Atoms>  (788) 
nan

$$$$
CHEMBL1957953
     RDKit          3D

  0  0  0  0  0  0  0  0  0  0999 V3000
M  V30 BEGIN CTAB
M  V30 COUNTS 56 59 0 0 0
M  V30 BEGIN ATOM
M  V30 1 O 3.205220 -3.852548 5.027084 0
M  V30 2 C 2.916846 -2.956461 4.199313 0
M  V30 3 O 2.261028 -1.847448 4.760943 0
M  V30 4 C 3.202480 -2.973607 2.728667 0
M  V30 5 O 2.784216 -1.831669 2.064099 0
M  V30 6 C 3.166982 -0.537032 2.238315 0
M  V30 7 C 4.097674 -0.071468 3.146093 0
M  V30 8 C 4.389727 1.270800 3.214473 0
M  V30 9 C 3.732693 2.118321 2.361040 0
M  V30 10 C 2.774972 1.731563 1.410877 0
M  V30 11 C 2.164449 2.795210 0.555018 0
M  V30 12 C 0.988092 3.441703 1.201395 0
M  V30 13 C -0.164325 2.555664 1.523914 0
M  V30 14 N -0.793766 1.998248 0.377140 0
M  V30 15 C -0.947587 1.260420 -0.805521 0
M  V30 16 O 0.089516 0.677768 -1.175687 0
M  V30 17 C -2.049532 1.009094 -1.712376 0
M  V30 18 C -2.757942 1.887329 -2.496233 0
M  V30 19 C -3.789913 1.466899 -3.306711 0
M  V30 20 C -4.126831 0.123338 -3.337579 0
M  V30 21 O -5.158039 -0.388250 -4.133918 0
M  V30 22 C -3.451612 -0.839537 -2.566829 0
M  V30 23 N -3.554872 -2.157585 -2.384011 0
M  V30 24 C -2.626312 -2.543000 -1.492999 0
M  V30 25 C -2.278861 -3.825265 -0.891200 0
M  V30 26 C -1.229686 -3.991365 -0.011799 0
M  V30 27 C -0.983902 -5.228500 0.526280 0
M  V30 28 C -1.752637 -6.326276 0.220441 0
M  V30 29 Cl -1.447640 -7.902256 0.908484 0
M  V30 30 C -2.820814 -6.180909 -0.667898 0
M  V30 31 C -3.066162 -4.927712 -1.211090 0
M  V30 32 N -1.968671 -1.426153 -1.150742 0
M  V30 33 C -2.435396 -0.339078 -1.784059 0
M  V30 34 C 2.556943 0.378075 1.422836 0
M  V30 35 H 1.516103 -1.988845 5.434657 0
M  V30 36 H 2.710906 -3.878048 2.279470 0
M  V30 37 H 4.291230 -3.118440 2.632539 0
M  V30 38 H 4.581514 -0.785154 3.787669 0
M  V30 39 H 5.121290 1.673228 3.922290 0
M  V30 40 H 3.989939 3.181115 2.442927 0
M  V30 41 H 1.961978 2.412911 -0.458175 0
M  V30 42 H 2.981372 3.579906 0.459240 0
M  V30 43 H 1.310073 4.045304 2.109047 0
M  V30 44 H 0.664534 4.266999 0.490460 0
M  V30 45 H 0.188425 1.694185 2.206759 0
M  V30 46 H -0.897143 3.079664 2.190121 0
M  V30 47 H -1.805899 2.368857 0.411311 0
M  V30 48 H -2.432542 2.911994 -2.410950 0
M  V30 49 H -4.333380 2.169582 -3.912792 0
M  V30 50 H -5.668212 0.205783 -4.779368 0
M  V30 51 H -4.213699 -2.800746 -2.826553 0
M  V30 52 H -0.617872 -3.133660 0.235987 0
M  V30 53 H -0.175712 -5.396504 1.217382 0
M  V30 54 H -3.408770 -7.057867 -0.887719 0
M  V30 55 H -3.902269 -4.856322 -1.892015 0
M  V30 56 H 1.835299 0.051880 0.712802 0
M  V30 END ATOM
M  V30 BEGIN BOND
M  V30 1 2 1 2
M  V30 2 1 2 3
M  V30 3 1 2 4
M  V30 4 1 4 5
M  V30 5 1 5 6
M  V30 6 2 6 7
M  V30 7 1 7 8
M  V30 8 2 8 9
M  V30 9 1 9 10
M  V30 10 1 10 11
M  V30 11 1 11 12
M  V30 12 1 12 13
M  V30 13 1 13 14
M  V30 14 1 14 15
M  V30 15 2 15 16
M  V30 16 1 15 17
M  V30 17 2 17 18
M  V30 18 1 18 19
M  V30 19 2 19 20
M  V30 20 1 20 21
M  V30 21 1 20 22
M  V30 22 1 22 23
M  V30 23 1 23 24
M  V30 24 1 24 25
M  V30 25 2 25 26
M  V30 26 1 26 27
M  V30 27 2 27 28
M  V30 28 1 28 29
M  V30 29 1 28 30
M  V30 30 2 30 31
M  V30 31 2 24 32
M  V30 32 1 32 33
M  V30 33 2 10 34
M  V30 34 1 34 6
M  V30 35 1 33 17
M  V30 36 2 33 22
M  V30 37 1 31 25
M  V30 38 1 3 35
M  V30 39 1 4 36
M  V30 40 1 4 37
M  V30 41 1 7 38
M  V30 42 1 8 39
M  V30 43 1 9 40
M  V30 44 1 11 41
M  V30 45 1 11 42
M  V30 46 1 12 43
M  V30 47 1 12 44
M  V30 48 1 13 45
M  V30 49 1 13 46
M  V30 50 1 14 47
M  V30 51 1 18 48
M  V30 52 1 19 49
M  V30 53 1 21 50
M  V30 54 1 23 51
M  V30 55 1 26 52
M  V30 56 1 27 53
M  V30 57 1 30 54
M  V30 58 1 31 55
M  V30 59 1 34 56
M  V30 END BOND
M  V30 END CTAB
M  END
>  <Dataset>  (789) 
ChEMBL_Kinases

>  <Ligand_Instance>  (789) 
nan

>  <PDB_ID>  (789) 
nan

>  <Standardized_SMILES>  (789) 
O=C(O)COc1cccc(CCCNC(=O)c2ccc(O)c3[nH]c(-c4ccc(Cl)cc4)nc23)c1

>  <Name>  (789) 
nan

>  <Pocket>  (789) 
nan

>  <ATP_Site>  (789) 
nan

>  <Peripheral>  (789) 
nan

>  <Num_H_Atoms_ProtBoundConf>  (789) 
nan

>  <Num_Resolved_Atoms>  (789) 
nan

>  <Num_Not_Resolved_Atoms>  (789) 
nan

$$$$
CHEMBL1957954
     RDKit          3D

  0  0  0  0  0  0  0  0  0  0999 V3000
M  V30 BEGIN CTAB
M  V30 COUNTS 46 49 0 0 0
M  V30 BEGIN ATOM
M  V30 1 O 3.060311 -0.274942 2.381654 0
M  V30 2 C 1.902522 -0.753020 2.412642 0
M  V30 3 N 1.678931 -1.899046 1.634652 0
M  V30 4 C 2.243923 -2.836180 0.730613 0
M  V30 5 C 2.647089 -2.274897 -0.590975 0
M  V30 6 C 3.667461 -1.184572 -0.619463 0
M  V30 7 N 3.972536 -0.826696 -2.038361 0
M  V30 8 C 3.349320 0.114476 -2.806356 0
M  V30 9 C 4.001352 0.040472 -4.003986 0
M  V30 10 N 4.965613 -0.883395 -3.986041 0
M  V30 11 C 4.964903 -1.448322 -2.742711 0
M  V30 12 C 0.970738 -0.029520 3.262488 0
M  V30 13 C 1.415393 0.509982 4.451270 0
M  V30 14 C 0.488185 1.186939 5.218355 0
M  V30 15 C -0.826439 1.308486 4.795922 0
M  V30 16 O -1.758836 1.998465 5.583276 0
M  V30 17 C -1.241909 0.757435 3.600886 0
M  V30 18 N -2.429753 0.714988 2.946943 0
M  V30 19 C -2.299098 0.042621 1.799846 0
M  V30 20 C -3.335239 -0.227096 0.810142 0
M  V30 21 C -4.621270 0.237900 0.997788 0
M  V30 22 C -5.536566 -0.065589 0.009287 0
M  V30 23 C -5.254065 -0.789750 -1.131773 0
M  V30 24 Cl -6.498023 -1.123228 -2.336944 0
M  V30 25 C -3.943584 -1.252084 -1.302396 0
M  V30 26 C -3.005217 -0.963542 -0.329205 0
M  V30 27 Cl -1.360458 -1.530925 -0.523395 0
M  V30 28 N -1.011420 -0.338304 1.740614 0
M  V30 29 C -0.327782 0.064223 2.797645 0
M  V30 30 H 0.642399 -2.119653 1.838343 0
M  V30 31 H 1.508956 -3.646781 0.518694 0
M  V30 32 H 3.150363 -3.299984 1.247411 0
M  V30 33 H 1.737348 -1.817322 -1.119520 0
M  V30 34 H 2.916425 -3.097349 -1.320394 0
M  V30 35 H 3.293550 -0.252696 -0.139351 0
M  V30 36 H 4.592861 -1.509699 -0.161812 0
M  V30 37 H 2.529846 0.732223 -2.454342 0
M  V30 38 H 3.750596 0.670094 -4.862182 0
M  V30 39 H 5.622355 -2.222663 -2.410511 0
M  V30 40 H 2.466184 0.368110 4.709743 0
M  V30 41 H 0.815501 1.615695 6.148944 0
M  V30 42 H -1.543685 2.855085 6.058020 0
M  V30 43 H -3.344874 1.145038 3.275153 0
M  V30 44 H -4.895384 0.806841 1.868466 0
M  V30 45 H -6.552921 0.279968 0.118224 0
M  V30 46 H -3.679840 -1.828253 -2.189404 0
M  V30 END ATOM
M  V30 BEGIN BOND
M  V30 1 2 1 2
M  V30 2 1 2 3
M  V30 3 1 3 4
M  V30 4 1 4 5
M  V30 5 1 5 6
M  V30 6 1 6 7
M  V30 7 1 7 8
M  V30 8 2 8 9
M  V30 9 1 9 10
M  V30 10 2 10 11
M  V30 11 1 2 12
M  V30 12 2 12 13
M  V30 13 1 13 14
M  V30 14 2 14 15
M  V30 15 1 15 16
M  V30 16 1 15 17
M  V30 17 1 17 18
M  V30 18 1 18 19
M  V30 19 1 19 20
M  V30 20 2 20 21
M  V30 21 1 21 22
M  V30 22 2 22 23
M  V30 23 1 23 24
M  V30 24 1 23 25
M  V30 25 2 25 26
M  V30 26 1 26 27
M  V30 27 2 19 28
M  V30 28 1 28 29
M  V30 29 1 11 7
M  V30 30 1 29 12
M  V30 31 2 29 17
M  V30 32 1 26 20
M  V30 33 1 3 30
M  V30 34 1 4 31
M  V30 35 1 4 32
M  V30 36 1 5 33
M  V30 37 1 5 34
M  V30 38 1 6 35
M  V30 39 1 6 36
M  V30 40 1 8 37
M  V30 41 1 9 38
M  V30 42 1 11 39
M  V30 43 1 13 40
M  V30 44 1 14 41
M  V30 45 1 16 42
M  V30 46 1 18 43
M  V30 47 1 21 44
M  V30 48 1 22 45
M  V30 49 1 25 46
M  V30 END BOND
M  V30 END CTAB
M  END
>  <Dataset>  (790) 
ChEMBL_Kinases

>  <Ligand_Instance>  (790) 
nan

>  <PDB_ID>  (790) 
nan

>  <Standardized_SMILES>  (790) 
O=C(NCCCn1ccnc1)c1ccc(O)c2[nH]c(-c3ccc(Cl)cc3Cl)nc12

>  <Name>  (790) 
nan

>  <Pocket>  (790) 
nan

>  <ATP_Site>  (790) 
nan

>  <Peripheral>  (790) 
nan

>  <Num_H_Atoms_ProtBoundConf>  (790) 
nan

>  <Num_Resolved_Atoms>  (790) 
nan

>  <Num_Not_Resolved_Atoms>  (790) 
nan

$$$$
CHEMBL195942
     RDKit          3D

  0  0  0  0  0  0  0  0  0  0999 V3000
M  V30 BEGIN CTAB
M  V30 COUNTS 46 49 0 0 0
M  V30 BEGIN ATOM
M  V30 1 C -0.919452 -5.165829 3.224441 0
M  V30 2 C -0.375054 -4.676577 1.941365 0
M  V30 3 C 0.244955 -5.515218 1.044861 0
M  V30 4 C 0.766360 -5.102123 -0.159893 0
M  V30 5 C 0.670667 -3.770236 -0.506340 0
M  V30 6 C 0.049975 -2.867996 0.365616 0
M  V30 7 C -0.044093 -1.453695 -0.018669 0
M  V30 8 N 0.550356 -0.511966 0.711464 0
M  V30 9 C 0.507200 0.637062 0.450176 0
M  V30 10 C 1.066027 1.895145 1.074470 0
M  V30 11 C 0.835286 3.127744 0.527327 0
M  V30 12 C 1.376123 4.246072 1.146961 0
M  V30 13 C 2.125844 4.050140 2.294645 0
M  V30 14 S 2.862630 5.381926 3.172688 0
M  V30 15 C 1.786911 6.007194 4.431696 0
M  V30 16 O 3.162459 6.510605 2.223778 0
M  V30 17 O 4.132560 4.926037 3.799301 0
M  V30 18 C 2.344976 2.792512 2.828588 0
M  V30 19 C 1.798623 1.688264 2.198496 0
M  V30 20 S -0.483901 0.790734 -1.061504 0
M  V30 21 C -0.752801 -1.044216 -1.150811 0
M  V30 22 C -1.460345 -1.893145 -2.067248 0
M  V30 23 C -2.520006 -2.631364 -1.530763 0
M  V30 24 C -3.208106 -3.450924 -2.405364 0
M  V30 25 N -2.945346 -3.599898 -3.732346 0
M  V30 26 C -1.907568 -2.872395 -4.241403 0
M  V30 27 C -1.196301 -2.043233 -3.401817 0
M  V30 28 C -0.449283 -3.354337 1.555921 0
M  V30 29 H -0.356609 -4.714692 4.084928 0
M  V30 30 H -0.756702 -6.249860 3.292872 0
M  V30 31 H -1.962593 -4.856209 3.376413 0
M  V30 32 H 0.356433 -6.561755 1.244950 0
M  V30 33 H 1.251633 -5.770380 -0.857363 0
M  V30 34 H 1.069697 -3.401479 -1.449496 0
M  V30 35 H 0.242430 3.226345 -0.371612 0
M  V30 36 H 1.232058 5.240125 0.768079 0
M  V30 37 H 1.010638 5.229337 4.693076 0
M  V30 38 H 1.303768 6.920080 4.089182 0
M  V30 39 H 2.357196 6.128462 5.396447 0
M  V30 40 H 2.936836 2.646155 3.733374 0
M  V30 41 H 1.977144 0.721235 2.624165 0
M  V30 42 H -2.863416 -2.632781 -0.500141 0
M  V30 43 H -4.046515 -4.067519 -2.097258 0
M  V30 44 H -1.585959 -2.895363 -5.292611 0
M  V30 45 H -0.371365 -1.457875 -3.782733 0
M  V30 46 H -0.925075 -2.650578 2.219992 0
M  V30 END ATOM
M  V30 BEGIN BOND
M  V30 1 1 1 2
M  V30 2 2 2 3
M  V30 3 1 3 4
M  V30 4 2 4 5
M  V30 5 1 5 6
M  V30 6 1 6 7
M  V30 7 1 7 8
M  V30 8 2 8 9
M  V30 9 1 9 10
M  V30 10 2 10 11
M  V30 11 1 11 12
M  V30 12 2 12 13
M  V30 13 1 13 14
M  V30 14 1 14 15
M  V30 15 2 14 16
M  V30 16 2 14 17
M  V30 17 1 13 18
M  V30 18 2 18 19
M  V30 19 1 9 20
M  V30 20 1 20 21
M  V30 21 1 21 22
M  V30 22 2 22 23
M  V30 23 1 23 24
M  V30 24 2 24 25
M  V30 25 1 25 26
M  V30 26 2 26 27
M  V30 27 2 6 28
M  V30 28 1 28 2
M  V30 29 2 21 7
M  V30 30 1 27 22
M  V30 31 1 19 10
M  V30 32 1 1 29
M  V30 33 1 1 30
M  V30 34 1 1 31
M  V30 35 1 3 32
M  V30 36 1 4 33
M  V30 37 1 5 34
M  V30 38 1 11 35
M  V30 39 1 12 36
M  V30 40 1 15 37
M  V30 41 1 15 38
M  V30 42 1 15 39
M  V30 43 1 18 40
M  V30 44 1 19 41
M  V30 45 1 23 42
M  V30 46 1 24 43
M  V30 47 1 26 44
M  V30 48 1 27 45
M  V30 49 1 28 46
M  V30 END BOND
M  V30 END CTAB
M  END
>  <Dataset>  (791) 
ChEMBL_Kinases

>  <Ligand_Instance>  (791) 
nan

>  <PDB_ID>  (791) 
nan

>  <Standardized_SMILES>  (791) 
Cc1cccc(-c2nc(-c3ccc(S(C)(=O)=O)cc3)sc2-c2ccncc2)c1

>  <Name>  (791) 
nan

>  <Pocket>  (791) 
nan

>  <ATP_Site>  (791) 
nan

>  <Peripheral>  (791) 
nan

>  <Num_H_Atoms_ProtBoundConf>  (791) 
nan

>  <Num_Resolved_Atoms>  (791) 
nan

>  <Num_Not_Resolved_Atoms>  (791) 
nan

$$$$
CHEMBL1957956
     RDKit          3D

  0  0  0  0  0  0  0  0  0  0999 V3000
M  V30 BEGIN CTAB
M  V30 COUNTS 46 49 0 0 0
M  V30 BEGIN ATOM
M  V30 1 O 2.013102 -2.901274 3.371420 0
M  V30 2 C 1.632897 -1.802626 2.892072 0
M  V30 3 N 1.882058 -1.641024 1.493798 0
M  V30 4 C 2.523024 -2.698319 0.735628 0
M  V30 5 C 2.638356 -2.209458 -0.709339 0
M  V30 6 C 3.467106 -0.959552 -0.812483 0
M  V30 7 N 3.543930 -0.529167 -2.208508 0
M  V30 8 C 2.700728 0.301843 -2.843220 0
M  V30 9 C 3.086506 0.480079 -4.147537 0
M  V30 10 N 4.209196 -0.274184 -4.308592 0
M  V30 11 C 4.460141 -0.865610 -3.136978 0
M  V30 12 C 0.971022 -0.704161 3.636387 0
M  V30 13 C 1.536561 -0.114294 4.744793 0
M  V30 14 C 0.764765 0.905448 5.310921 0
M  V30 15 C -0.461286 1.257132 4.765380 0
M  V30 16 O -1.205866 2.277002 5.353264 0
M  V30 17 C -0.978116 0.618953 3.639157 0
M  V30 18 N -2.130332 0.813457 2.971284 0
M  V30 19 C -2.126872 -0.073666 1.962746 0
M  V30 20 C -3.154073 -0.270345 0.941546 0
M  V30 21 C -4.311081 0.479069 0.903852 0
M  V30 22 C -5.249318 0.245632 -0.095968 0
M  V30 23 C -5.106915 -0.699123 -1.073630 0
M  V30 24 F -6.054136 -0.867898 -2.006668 0
M  V30 25 C -3.945476 -1.439093 -1.021449 0
M  V30 26 Cl -3.689356 -2.668878 -2.241363 0
M  V30 27 C -2.995856 -1.230994 -0.041930 0
M  V30 28 N -0.988190 -0.785427 2.030862 0
M  V30 29 C -0.232862 -0.408348 3.043885 0
M  V30 30 H 1.565805 -0.720862 1.085760 0
M  V30 31 H 1.858588 -3.593701 0.711914 0
M  V30 32 H 3.492336 -2.997710 1.132231 0
M  V30 33 H 1.620372 -1.953070 -1.109501 0
M  V30 34 H 3.067988 -2.984790 -1.374935 0
M  V30 35 H 2.997890 -0.161799 -0.219911 0
M  V30 36 H 4.520592 -1.137029 -0.452853 0
M  V30 37 H 1.818430 0.797631 -2.440957 0
M  V30 38 H 2.702770 1.051364 -4.988082 0
M  V30 39 H 5.287197 -1.537150 -2.923883 0
M  V30 40 H 2.493018 -0.451639 5.098076 0
M  V30 41 H 1.178780 1.399169 6.192875 0
M  V30 42 H -1.002024 3.247777 5.263031 0
M  V30 43 H -2.886632 1.507776 3.177906 0
M  V30 44 H -4.395447 1.213758 1.685360 0
M  V30 45 H -6.115080 0.899699 -0.016772 0
M  V30 46 H -2.115943 -1.861067 -0.081689 0
M  V30 END ATOM
M  V30 BEGIN BOND
M  V30 1 2 1 2
M  V30 2 1 2 3
M  V30 3 1 3 4
M  V30 4 1 4 5
M  V30 5 1 5 6
M  V30 6 1 6 7
M  V30 7 1 7 8
M  V30 8 2 8 9
M  V30 9 1 9 10
M  V30 10 2 10 11
M  V30 11 1 2 12
M  V30 12 2 12 13
M  V30 13 1 13 14
M  V30 14 2 14 15
M  V30 15 1 15 16
M  V30 16 1 15 17
M  V30 17 1 17 18
M  V30 18 1 18 19
M  V30 19 1 19 20
M  V30 20 2 20 21
M  V30 21 1 21 22
M  V30 22 2 22 23
M  V30 23 1 23 24
M  V30 24 1 23 25
M  V30 25 1 25 26
M  V30 26 2 25 27
M  V30 27 2 19 28
M  V30 28 1 28 29
M  V30 29 1 11 7
M  V30 30 1 29 12
M  V30 31 2 29 17
M  V30 32 1 27 20
M  V30 33 1 3 30
M  V30 34 1 4 31
M  V30 35 1 4 32
M  V30 36 1 5 33
M  V30 37 1 5 34
M  V30 38 1 6 35
M  V30 39 1 6 36
M  V30 40 1 8 37
M  V30 41 1 9 38
M  V30 42 1 11 39
M  V30 43 1 13 40
M  V30 44 1 14 41
M  V30 45 1 16 42
M  V30 46 1 18 43
M  V30 47 1 21 44
M  V30 48 1 22 45
M  V30 49 1 27 46
M  V30 END BOND
M  V30 END CTAB
M  END
>  <Dataset>  (792) 
ChEMBL_Kinases

>  <Ligand_Instance>  (792) 
nan

>  <PDB_ID>  (792) 
nan

>  <Standardized_SMILES>  (792) 
O=C(NCCCn1ccnc1)c1ccc(O)c2[nH]c(-c3ccc(F)c(Cl)c3)nc12

>  <Name>  (792) 
nan

>  <Pocket>  (792) 
nan

>  <ATP_Site>  (792) 
nan

>  <Peripheral>  (792) 
nan

>  <Num_H_Atoms_ProtBoundConf>  (792) 
nan

>  <Num_Resolved_Atoms>  (792) 
nan

>  <Num_Not_Resolved_Atoms>  (792) 
nan

$$$$
CHEMBL1957957
     RDKit          3D

  0  0  0  0  0  0  0  0  0  0999 V3000
M  V30 BEGIN CTAB
M  V30 COUNTS 46 49 0 0 0
M  V30 BEGIN ATOM
M  V30 1 C -0.707667 -4.612861 4.705216 0
M  V30 2 C -0.279035 -4.494704 3.280795 0
M  V30 3 C 0.183617 -3.390371 2.575809 0
M  V30 4 N 0.444346 -3.782820 1.298046 0
M  V30 5 C 0.945910 -2.802580 0.348590 0
M  V30 6 C 2.460499 -2.789353 0.365365 0
M  V30 7 C 2.999654 -1.749365 -0.622346 0
M  V30 8 N 2.492392 -0.463389 -0.166654 0
M  V30 9 C 2.861542 0.689195 -0.956224 0
M  V30 10 O 3.573342 0.313240 -1.914915 0
M  V30 11 C 2.302712 1.949247 -0.412530 0
M  V30 12 C 3.073426 3.046546 -0.093453 0
M  V30 13 C 2.427258 4.151887 0.413381 0
M  V30 14 C 1.056545 4.133234 0.584163 0
M  V30 15 O 0.460060 5.283482 1.101045 0
M  V30 16 C 0.269007 3.022015 0.261854 0
M  V30 17 N -1.056619 2.766590 0.336920 0
M  V30 18 C -1.243718 1.514824 -0.116578 0
M  V30 19 C -2.527627 0.877829 -0.189641 0
M  V30 20 C -3.782759 1.289579 0.138799 0
M  V30 21 C -4.800215 0.415079 -0.060551 0
M  V30 22 C -4.536662 -0.835523 -0.579076 0
M  V30 23 S -2.715694 -0.799382 -0.811288 0
M  V30 24 N -0.050129 1.010226 -0.464721 0
M  V30 25 C 0.922231 1.917753 -0.244740 0
M  V30 26 C 0.158697 -5.083223 1.197490 0
M  V30 27 N -0.276783 -5.508679 2.393908 0
M  V30 28 H -0.584502 -5.671056 5.011170 0
M  V30 29 H -1.765461 -4.307476 4.841336 0
M  V30 30 H -0.091641 -3.996248 5.392705 0
M  V30 31 H 0.283505 -2.409678 3.065909 0
M  V30 32 H 0.608439 -3.114380 -0.674649 0
M  V30 33 H 0.508389 -1.808279 0.546816 0
M  V30 34 H 2.894045 -3.765110 0.122741 0
M  V30 35 H 2.802599 -2.470476 1.382329 0
M  V30 36 H 2.630095 -2.028845 -1.626863 0
M  V30 37 H 4.106464 -1.801339 -0.643434 0
M  V30 38 H 1.888875 -0.361916 0.696506 0
M  V30 39 H 4.148559 2.980672 -0.258576 0
M  V30 40 H 3.020507 5.034371 0.673913 0
M  V30 41 H 0.236245 5.358585 2.104884 0
M  V30 42 H -1.767107 3.453778 0.691978 0
M  V30 43 H -3.875199 2.288932 0.537594 0
M  V30 44 H -5.843826 0.682065 0.184184 0
M  V30 45 H -5.274610 -1.624506 -0.784039 0
M  V30 46 H 0.308591 -5.554037 0.254736 0
M  V30 END ATOM
M  V30 BEGIN BOND
M  V30 1 1 1 2
M  V30 2 2 2 3
M  V30 3 1 3 4
M  V30 4 1 4 5
M  V30 5 1 5 6
M  V30 6 1 6 7
M  V30 7 1 7 8
M  V30 8 1 8 9
M  V30 9 2 9 10
M  V30 10 1 9 11
M  V30 11 2 11 12
M  V30 12 1 12 13
M  V30 13 2 13 14
M  V30 14 1 14 15
M  V30 15 1 14 16
M  V30 16 1 16 17
M  V30 17 1 17 18
M  V30 18 1 18 19
M  V30 19 2 19 20
M  V30 20 1 20 21
M  V30 21 2 21 22
M  V30 22 1 22 23
M  V30 23 2 18 24
M  V30 24 1 24 25
M  V30 25 1 4 26
M  V30 26 2 26 27
M  V30 27 1 27 2
M  V30 28 1 25 11
M  V30 29 2 25 16
M  V30 30 1 23 19
M  V30 31 1 1 28
M  V30 32 1 1 29
M  V30 33 1 1 30
M  V30 34 1 3 31
M  V30 35 1 5 32
M  V30 36 1 5 33
M  V30 37 1 6 34
M  V30 38 1 6 35
M  V30 39 1 7 36
M  V30 40 1 7 37
M  V30 41 1 8 38
M  V30 42 1 12 39
M  V30 43 1 13 40
M  V30 44 1 15 41
M  V30 45 1 17 42
M  V30 46 1 20 43
M  V30 47 1 21 44
M  V30 48 1 22 45
M  V30 49 1 26 46
M  V30 END BOND
M  V30 END CTAB
M  END
>  <Dataset>  (793) 
ChEMBL_Kinases

>  <Ligand_Instance>  (793) 
nan

>  <PDB_ID>  (793) 
nan

>  <Standardized_SMILES>  (793) 
Cc1cn(CCCNC(=O)c2ccc(O)c3[nH]c(-c4cccs4)nc23)cn1

>  <Name>  (793) 
nan

>  <Pocket>  (793) 
nan

>  <ATP_Site>  (793) 
nan

>  <Peripheral>  (793) 
nan

>  <Num_H_Atoms_ProtBoundConf>  (793) 
nan

>  <Num_Resolved_Atoms>  (793) 
nan

>  <Num_Not_Resolved_Atoms>  (793) 
nan

$$$$
CHEMBL1957958
     RDKit          3D

  0  0  0  0  0  0  0  0  0  0999 V3000
M  V30 BEGIN CTAB
M  V30 COUNTS 65 69 0 0 0
M  V30 BEGIN ATOM
M  V30 1 C 1.110974 -0.016299 4.875385 0
M  V30 2 C 2.465243 -0.105347 4.257352 0
M  V30 3 N 2.675244 0.683719 3.088307 0
M  V30 4 C 1.979367 0.320245 1.919761 0
M  V30 5 C 0.848736 1.176835 1.479389 0
M  V30 6 N 1.280691 2.578648 1.584917 0
M  V30 7 C 1.181395 3.539695 0.507206 0
M  V30 8 O 1.578747 4.732462 0.683824 0
M  V30 9 C 0.601056 2.955591 -0.703264 0
M  V30 10 C 1.559102 2.450427 -1.589522 0
M  V30 11 C 1.062159 1.871245 -2.749529 0
M  V30 12 C -0.288015 1.751804 -3.101904 0
M  V30 13 C -0.682285 1.161314 -4.381943 0
M  V30 14 C -0.733499 -0.303775 -4.497416 0
M  V30 15 N -1.615085 -0.957224 -3.584783 0
M  V30 16 C -1.745040 -1.172203 -2.220186 0
M  V30 17 O -0.867234 -0.700958 -1.454240 0
M  V30 18 C -2.762928 -1.878338 -1.462761 0
M  V30 19 C -4.114059 -1.668040 -1.632922 0
M  V30 20 C -5.086141 -2.336512 -0.910207 0
M  V30 21 C -4.645999 -3.266955 0.034612 0
M  V30 22 O -5.631348 -3.936260 0.759632 0
M  V30 23 C -3.301919 -3.509968 0.239167 0
M  V30 24 N -2.688927 -4.362996 1.099624 0
M  V30 25 C -1.375167 -4.210452 0.900505 0
M  V30 26 C -0.280375 -4.925094 1.611903 0
M  V30 27 C 1.042302 -4.839946 1.478779 0
M  V30 28 C 1.836229 -5.613226 2.264958 0
M  V30 29 C 1.223616 -6.454514 3.170821 0
M  V30 30 S -0.591931 -6.096115 2.853191 0
M  V30 31 N -1.156414 -3.283619 -0.063969 0
M  V30 32 C -2.349874 -2.817430 -0.507865 0
M  V30 33 C -1.153200 2.290979 -2.143200 0
M  V30 34 C -0.734760 2.877502 -0.975646 0
M  V30 35 C 1.832807 2.980861 2.870411 0
M  V30 36 C 2.953456 2.068910 3.301176 0
M  V30 37 H 0.818361 -1.048966 5.213031 0
M  V30 38 H 0.314236 0.322627 4.203826 0
M  V30 39 H 1.143987 0.593151 5.822866 0
M  V30 40 H 2.685601 -1.180676 3.980595 0
M  V30 41 H 3.220277 0.169869 5.035772 0
M  V30 42 H 2.723731 0.299331 1.072974 0
M  V30 43 H 1.578864 -0.722043 2.076436 0
M  V30 44 H 0.666543 0.929333 0.393819 0
M  V30 45 H -0.113262 1.012838 1.967676 0
M  V30 46 H 2.621242 2.476373 -1.438044 0
M  V30 47 H 1.769077 1.464026 -3.465267 0
M  V30 48 H -1.627838 1.651868 -4.751775 0
M  V30 49 H 0.083703 1.515416 -5.150517 0
M  V30 50 H 0.326132 -0.696603 -4.265764 0
M  V30 51 H -0.868788 -0.663856 -5.542285 0
M  V30 52 H -2.439768 -1.438192 -4.048280 0
M  V30 53 H -4.433588 -0.948531 -2.362400 0
M  V30 54 H -6.138981 -2.128596 -1.089847 0
M  V30 55 H -6.103365 -3.425428 1.490947 0
M  V30 56 H -3.165819 -5.015117 1.789566 0
M  V30 57 H 1.429491 -4.145706 0.734270 0
M  V30 58 H 2.938329 -5.594432 2.210567 0
M  V30 59 H 1.803289 -7.158524 3.892041 0
M  V30 60 H -2.216517 2.221116 -2.381428 0
M  V30 61 H -1.411789 3.283943 -0.261599 0
M  V30 62 H 1.022014 3.062946 3.625566 0
M  V30 63 H 2.255888 3.998276 2.749075 0
M  V30 64 H 3.143946 2.255066 4.372367 0
M  V30 65 H 3.867013 2.317719 2.729035 0
M  V30 END ATOM
M  V30 BEGIN BOND
M  V30 1 1 1 2
M  V30 2 1 2 3
M  V30 3 1 3 4
M  V30 4 1 4 5
M  V30 5 1 5 6
M  V30 6 1 6 7
M  V30 7 2 7 8
M  V30 8 1 7 9
M  V30 9 2 9 10
M  V30 10 1 10 11
M  V30 11 2 11 12
M  V30 12 1 12 13
M  V30 13 1 13 14
M  V30 14 1 14 15
M  V30 15 1 15 16
M  V30 16 2 16 17
M  V30 17 1 16 18
M  V30 18 2 18 19
M  V30 19 1 19 20
M  V30 20 2 20 21
M  V30 21 1 21 22
M  V30 22 1 21 23
M  V30 23 1 23 24
M  V30 24 1 24 25
M  V30 25 1 25 26
M  V30 26 2 26 27
M  V30 27 1 27 28
M  V30 28 2 28 29
M  V30 29 1 29 30
M  V30 30 2 25 31
M  V30 31 1 31 32
M  V30 32 1 12 33
M  V30 33 2 33 34
M  V30 34 1 6 35
M  V30 35 1 35 36
M  V30 36 1 36 3
M  V30 37 1 34 9
M  V30 38 1 32 18
M  V30 39 2 32 23
M  V30 40 1 30 26
M  V30 41 1 1 37
M  V30 42 1 1 38
M  V30 43 1 1 39
M  V30 44 1 2 40
M  V30 45 1 2 41
M  V30 46 1 4 42
M  V30 47 1 4 43
M  V30 48 1 5 44
M  V30 49 1 5 45
M  V30 50 1 10 46
M  V30 51 1 11 47
M  V30 52 1 13 48
M  V30 53 1 13 49
M  V30 54 1 14 50
M  V30 55 1 14 51
M  V30 56 1 15 52
M  V30 57 1 19 53
M  V30 58 1 20 54
M  V30 59 1 22 55
M  V30 60 1 24 56
M  V30 61 1 27 57
M  V30 62 1 28 58
M  V30 63 1 29 59
M  V30 64 1 33 60
M  V30 65 1 34 61
M  V30 66 1 35 62
M  V30 67 1 35 63
M  V30 68 1 36 64
M  V30 69 1 36 65
M  V30 END BOND
M  V30 END CTAB
M  END
>  <Dataset>  (794) 
ChEMBL_Kinases

>  <Ligand_Instance>  (794) 
nan

>  <PDB_ID>  (794) 
nan

>  <Standardized_SMILES>  (794) 
CCN1CCN(C(=O)c2ccc(CCNC(=O)c3ccc(O)c4[nH]c(-c5cccs5)nc34)cc2)CC1

>  <Name>  (794) 
nan

>  <Pocket>  (794) 
nan

>  <ATP_Site>  (794) 
nan

>  <Peripheral>  (794) 
nan

>  <Num_H_Atoms_ProtBoundConf>  (794) 
nan

>  <Num_Resolved_Atoms>  (794) 
nan

>  <Num_Not_Resolved_Atoms>  (794) 
nan

$$$$
CHEMBL1957959
     RDKit          3D

  0  0  0  0  0  0  0  0  0  0999 V3000
M  V30 BEGIN CTAB
M  V30 COUNTS 43 46 0 0 0
M  V30 BEGIN ATOM
M  V30 1 O 2.091056 -0.797485 2.340921 0
M  V30 2 C 1.183412 0.072368 2.186682 0
M  V30 3 N 1.393004 1.116827 1.231476 0
M  V30 4 C 2.597298 1.223822 0.432708 0
M  V30 5 C 2.465114 2.441350 -0.457438 0
M  V30 6 C 3.667807 2.649234 -1.335396 0
M  V30 7 N 3.839519 1.498245 -2.177189 0
M  V30 8 C 4.511570 0.346029 -2.050307 0
M  V30 9 N 4.359658 -0.431910 -3.139186 0
M  V30 10 C 3.562728 0.237458 -4.001330 0
M  V30 11 Cl 3.055496 -0.351850 -5.587078 0
M  V30 12 C 3.246048 1.432346 -3.395432 0
M  V30 13 Cl 2.223818 2.621381 -4.164250 0
M  V30 14 C -0.076085 0.037267 2.960915 0
M  V30 15 C -0.306345 1.083495 3.813095 0
M  V30 16 C -1.498825 1.048755 4.545009 0
M  V30 17 C -2.358592 -0.017780 4.369613 0
M  V30 18 O -3.562917 -0.093868 5.081187 0
M  V30 19 C -2.074036 -1.047580 3.494135 0
M  V30 20 N -2.734101 -2.170175 3.154503 0
M  V30 21 C -2.022506 -2.848866 2.245545 0
M  V30 22 C -2.388900 -4.087268 1.641580 0
M  V30 23 C -1.724983 -4.806275 0.735616 0
M  V30 24 C -2.196370 -5.989337 0.235416 0
M  V30 25 C -3.501564 -6.371031 0.804408 0
M  V30 26 S -3.860678 -4.970113 1.977757 0
M  V30 27 N -0.905069 -2.150812 2.008868 0
M  V30 28 C -0.904213 -1.045729 2.754340 0
M  V30 29 H 0.602169 1.820060 1.140472 0
M  V30 30 H 3.495478 1.364904 1.054734 0
M  V30 31 H 2.759334 0.353211 -0.229359 0
M  V30 32 H 1.578752 2.349093 -1.139005 0
M  V30 33 H 2.270343 3.358603 0.166404 0
M  V30 34 H 3.521545 3.568225 -1.908863 0
M  V30 35 H 4.551785 2.749168 -0.656434 0
M  V30 36 H 5.080802 0.139320 -1.157430 0
M  V30 37 H 0.360303 1.908095 3.947586 0
M  V30 38 H -1.764479 1.820253 5.234238 0
M  V30 39 H -4.373093 0.488568 4.853228 0
M  V30 40 H -3.674120 -2.466284 3.550272 0
M  V30 41 H -0.751031 -4.465271 0.348920 0
M  V30 42 H -1.750746 -6.648065 -0.491432 0
M  V30 43 H -4.013420 -7.347760 0.469294 0
M  V30 END ATOM
M  V30 BEGIN BOND
M  V30 1 2 1 2
M  V30 2 1 2 3
M  V30 3 1 3 4
M  V30 4 1 4 5
M  V30 5 1 5 6
M  V30 6 1 6 7
M  V30 7 1 7 8
M  V30 8 2 8 9
M  V30 9 1 9 10
M  V30 10 1 10 11
M  V30 11 2 10 12
M  V30 12 1 12 13
M  V30 13 1 2 14
M  V30 14 2 14 15
M  V30 15 1 15 16
M  V30 16 2 16 17
M  V30 17 1 17 18
M  V30 18 1 17 19
M  V30 19 1 19 20
M  V30 20 1 20 21
M  V30 21 1 21 22
M  V30 22 2 22 23
M  V30 23 1 23 24
M  V30 24 2 24 25
M  V30 25 1 25 26
M  V30 26 2 21 27
M  V30 27 1 27 28
M  V30 28 1 12 7
M  V30 29 1 28 14
M  V30 30 2 28 19
M  V30 31 1 26 22
M  V30 32 1 3 29
M  V30 33 1 4 30
M  V30 34 1 4 31
M  V30 35 1 5 32
M  V30 36 1 5 33
M  V30 37 1 6 34
M  V30 38 1 6 35
M  V30 39 1 8 36
M  V30 40 1 15 37
M  V30 41 1 16 38
M  V30 42 1 18 39
M  V30 43 1 20 40
M  V30 44 1 23 41
M  V30 45 1 24 42
M  V30 46 1 25 43
M  V30 END BOND
M  V30 END CTAB
M  END
>  <Dataset>  (795) 
ChEMBL_Kinases

>  <Ligand_Instance>  (795) 
nan

>  <PDB_ID>  (795) 
nan

>  <Standardized_SMILES>  (795) 
O=C(NCCCn1cnc(Cl)c1Cl)c1ccc(O)c2[nH]c(-c3cccs3)nc12

>  <Name>  (795) 
nan

>  <Pocket>  (795) 
nan

>  <ATP_Site>  (795) 
nan

>  <Peripheral>  (795) 
nan

>  <Num_H_Atoms_ProtBoundConf>  (795) 
nan

>  <Num_Resolved_Atoms>  (795) 
nan

>  <Num_Not_Resolved_Atoms>  (795) 
nan

$$$$
CHEMBL1957960
     RDKit          3D

  0  0  0  0  0  0  0  0  0  0999 V3000
M  V30 BEGIN CTAB
M  V30 COUNTS 43 46 0 0 0
M  V30 BEGIN ATOM
M  V30 1 O 2.053154 -0.823363 2.282221 0
M  V30 2 C 1.115059 0.038728 2.202096 0
M  V30 3 N 1.383432 1.095051 1.258288 0
M  V30 4 C 2.603529 1.162008 0.480756 0
M  V30 5 C 2.486895 2.417205 -0.380346 0
M  V30 6 C 3.712014 2.607881 -1.252610 0
M  V30 7 N 3.883741 1.488939 -2.127294 0
M  V30 8 C 4.547055 0.340011 -1.993638 0
M  V30 9 N 4.420622 -0.428242 -3.113175 0
M  V30 10 C 3.649216 0.288769 -3.954724 0
M  V30 11 Cl 3.150357 -0.213696 -5.569674 0
M  V30 12 C 3.309543 1.480372 -3.354695 0
M  V30 13 Cl 2.305717 2.718026 -4.112363 0
M  V30 14 C -0.145450 0.013057 2.972907 0
M  V30 15 C -0.392300 1.042831 3.841393 0
M  V30 16 C -1.598627 0.973576 4.548689 0
M  V30 17 C -2.456510 -0.093505 4.345965 0
M  V30 18 O -3.663879 -0.176520 5.044288 0
M  V30 19 C -2.143183 -1.101498 3.450819 0
M  V30 20 N -2.766807 -2.231195 3.057648 0
M  V30 21 C -2.025611 -2.880006 2.143513 0
M  V30 22 C -2.329757 -4.145056 1.456569 0
M  V30 23 C -1.588112 -4.821822 0.523516 0
M  V30 24 C -2.296809 -5.968296 0.171671 0
M  V30 25 C -3.464384 -5.920548 0.934903 0
M  V30 26 O -3.441550 -4.832023 1.675397 0
M  V30 27 N -0.910190 -2.156078 1.947247 0
M  V30 28 C -0.950165 -1.078227 2.719962 0
M  V30 29 H 0.600080 1.810876 1.194558 0
M  V30 30 H 3.519928 1.215721 1.093632 0
M  V30 31 H 2.723502 0.317835 -0.224347 0
M  V30 32 H 1.630899 2.352305 -1.068296 0
M  V30 33 H 2.400176 3.335230 0.257516 0
M  V30 34 H 3.574303 3.558089 -1.795678 0
M  V30 35 H 4.603063 2.716810 -0.589208 0
M  V30 36 H 5.110760 0.062949 -1.104863 0
M  V30 37 H 0.291858 1.859892 3.979489 0
M  V30 38 H -1.857417 1.754800 5.252216 0
M  V30 39 H -4.503307 0.314515 4.787377 0
M  V30 40 H -3.706671 -2.556462 3.421015 0
M  V30 41 H -0.627865 -4.512657 0.137401 0
M  V30 42 H -1.988364 -6.736925 -0.554452 0
M  V30 43 H -4.242978 -6.668739 0.903102 0
M  V30 END ATOM
M  V30 BEGIN BOND
M  V30 1 2 1 2
M  V30 2 1 2 3
M  V30 3 1 3 4
M  V30 4 1 4 5
M  V30 5 1 5 6
M  V30 6 1 6 7
M  V30 7 1 7 8
M  V30 8 2 8 9
M  V30 9 1 9 10
M  V30 10 1 10 11
M  V30 11 2 10 12
M  V30 12 1 12 13
M  V30 13 1 2 14
M  V30 14 2 14 15
M  V30 15 1 15 16
M  V30 16 2 16 17
M  V30 17 1 17 18
M  V30 18 1 17 19
M  V30 19 1 19 20
M  V30 20 1 20 21
M  V30 21 1 21 22
M  V30 22 2 22 23
M  V30 23 1 23 24
M  V30 24 2 24 25
M  V30 25 1 25 26
M  V30 26 2 21 27
M  V30 27 1 27 28
M  V30 28 1 12 7
M  V30 29 1 28 14
M  V30 30 2 28 19
M  V30 31 1 26 22
M  V30 32 1 3 29
M  V30 33 1 4 30
M  V30 34 1 4 31
M  V30 35 1 5 32
M  V30 36 1 5 33
M  V30 37 1 6 34
M  V30 38 1 6 35
M  V30 39 1 8 36
M  V30 40 1 15 37
M  V30 41 1 16 38
M  V30 42 1 18 39
M  V30 43 1 20 40
M  V30 44 1 23 41
M  V30 45 1 24 42
M  V30 46 1 25 43
M  V30 END BOND
M  V30 END CTAB
M  END
>  <Dataset>  (796) 
ChEMBL_Kinases

>  <Ligand_Instance>  (796) 
nan

>  <PDB_ID>  (796) 
nan

>  <Standardized_SMILES>  (796) 
O=C(NCCCn1cnc(Cl)c1Cl)c1ccc(O)c2[nH]c(-c3ccco3)nc12

>  <Name>  (796) 
nan

>  <Pocket>  (796) 
nan

>  <ATP_Site>  (796) 
nan

>  <Peripheral>  (796) 
nan

>  <Num_H_Atoms_ProtBoundConf>  (796) 
nan

>  <Num_Resolved_Atoms>  (796) 
nan

>  <Num_Not_Resolved_Atoms>  (796) 
nan

$$$$
CHEMBL195831
     RDKit          3D

  0  0  0  0  0  0  0  0  0  0999 V3000
M  V30 BEGIN CTAB
M  V30 COUNTS 47 51 0 0 0
M  V30 BEGIN ATOM
M  V30 1 Br -1.054616 -5.114541 4.680197 0
M  V30 2 C 0.272798 -4.116371 3.747887 0
M  V30 3 C 1.619640 -4.382732 3.724304 0
M  V30 4 N 2.447513 -3.602906 3.029500 0
M  V30 5 C 2.055099 -2.533289 2.321232 0
M  V30 6 N 3.011780 -1.762956 1.613881 0
M  V30 7 C 2.801943 -0.619077 0.805801 0
M  V30 8 C 3.860446 0.021524 0.200667 0
M  V30 9 C 3.714966 1.132331 -0.595401 0
M  V30 10 C 2.464729 1.663903 -0.825074 0
M  V30 11 O 2.253602 2.790278 -1.623728 0
M  V30 12 C 2.254721 4.062603 -1.069596 0
M  V30 13 C 2.455760 4.255520 0.286320 0
M  V30 14 C 2.445502 5.548767 0.777562 0
M  V30 15 C 2.235354 6.591836 -0.104377 0
M  V30 16 N 2.042846 6.366665 -1.419831 0
M  V30 17 C 2.045340 5.131803 -1.935021 0
M  V30 18 C 1.351311 1.069430 -0.246533 0
M  V30 19 C 1.585210 -0.038883 0.536141 0
M  V30 20 N 0.742220 -2.305284 2.367002 0
M  V30 21 C -0.166649 -3.026584 3.032652 0
M  V30 22 N -1.504632 -2.560117 2.908869 0
M  V30 23 C -2.589031 -2.766746 2.009934 0
M  V30 24 C -3.758979 -2.084771 2.306991 0
M  V30 25 C -4.778151 -2.323759 1.391632 0
M  V30 26 C -4.685007 -3.137242 0.297932 0
M  V30 27 N -5.539312 -3.488087 -0.682759 0
M  V30 28 C -4.886499 -4.332947 -1.503100 0
M  V30 29 N -3.620752 -4.503616 -1.024173 0
M  V30 30 C -3.472693 -3.769902 0.094675 0
M  V30 31 C -2.404348 -3.598003 0.943423 0
M  V30 32 H 1.946294 -5.241097 4.291104 0
M  V30 33 H 4.019195 -2.080056 1.695966 0
M  V30 34 H 4.880967 -0.336853 0.331525 0
M  V30 35 H 4.579433 1.598360 -1.048369 0
M  V30 36 H 2.614671 3.378293 0.916816 0
M  V30 37 H 2.599519 5.730508 1.826435 0
M  V30 38 H 2.224460 7.616595 0.265017 0
M  V30 39 H 1.893153 4.947581 -2.979617 0
M  V30 40 H 0.362941 1.470544 -0.413795 0
M  V30 41 H 0.689615 -0.462631 0.961671 0
M  V30 42 H -1.530407 -1.939012 3.742357 0
M  V30 43 H -3.861829 -1.440915 3.156486 0
M  V30 44 H -5.727736 -1.802603 1.586855 0
M  V30 45 H -6.518380 -3.103813 -0.698283 0
M  V30 46 H -5.344100 -4.762552 -2.368934 0
M  V30 47 H -1.437822 -4.083466 0.809351 0
M  V30 END ATOM
M  V30 BEGIN BOND
M  V30 1 1 1 2
M  V30 2 2 2 3
M  V30 3 1 3 4
M  V30 4 2 4 5
M  V30 5 1 5 6
M  V30 6 1 6 7
M  V30 7 2 7 8
M  V30 8 1 8 9
M  V30 9 2 9 10
M  V30 10 1 10 11
M  V30 11 1 11 12
M  V30 12 2 12 13
M  V30 13 1 13 14
M  V30 14 2 14 15
M  V30 15 1 15 16
M  V30 16 2 16 17
M  V30 17 1 10 18
M  V30 18 2 18 19
M  V30 19 1 5 20
M  V30 20 2 20 21
M  V30 21 1 21 22
M  V30 22 1 22 23
M  V30 23 2 23 24
M  V30 24 1 24 25
M  V30 25 2 25 26
M  V30 26 1 26 27
M  V30 27 1 27 28
M  V30 28 2 28 29
M  V30 29 1 29 30
M  V30 30 2 30 31
M  V30 31 1 21 2
M  V30 32 1 31 23
M  V30 33 1 19 7
M  V30 34 1 30 26
M  V30 35 1 17 12
M  V30 36 1 3 32
M  V30 37 1 6 33
M  V30 38 1 8 34
M  V30 39 1 9 35
M  V30 40 1 13 36
M  V30 41 1 14 37
M  V30 42 1 15 38
M  V30 43 1 17 39
M  V30 44 1 18 40
M  V30 45 1 19 41
M  V30 46 1 22 42
M  V30 47 1 24 43
M  V30 48 1 25 44
M  V30 49 1 27 45
M  V30 50 1 28 46
M  V30 51 1 31 47
M  V30 END BOND
M  V30 END CTAB
M  END
>  <Dataset>  (797) 
ChEMBL_Kinases

>  <Ligand_Instance>  (797) 
nan

>  <PDB_ID>  (797) 
nan

>  <Standardized_SMILES>  (797) 
Brc1cnc(Nc2ccc(Oc3cccnc3)cc2)nc1Nc1ccc2[nH]cnc2c1

>  <Name>  (797) 
nan

>  <Pocket>  (797) 
nan

>  <ATP_Site>  (797) 
nan

>  <Peripheral>  (797) 
nan

>  <Num_H_Atoms_ProtBoundConf>  (797) 
nan

>  <Num_Resolved_Atoms>  (797) 
nan

>  <Num_Not_Resolved_Atoms>  (797) 
nan

$$$$
CHEMBL1958408
     RDKit          3D

  0  0  0  0  0  0  0  0  0  0999 V3000
M  V30 BEGIN CTAB
M  V30 COUNTS 43 46 0 0 0
M  V30 BEGIN ATOM
M  V30 1 O 3.541454 -2.138850 4.584436 0
M  V30 2 C 2.747475 -1.856719 3.659147 0
M  V30 3 C 2.958620 -2.456505 2.435432 0
M  V30 4 C 2.078084 -2.139657 1.420983 0
M  V30 5 C 2.256234 -2.743188 0.115502 0
M  V30 6 C 2.522265 -4.093863 -0.031196 0
M  V30 7 N 2.630502 -4.328509 -1.354042 0
M  V30 8 C 2.447888 -3.202356 -2.051597 0
M  V30 9 N 2.445705 -2.863226 -3.366355 0
M  V30 10 C 2.220908 -1.594007 -3.755439 0
M  V30 11 C 1.980852 -0.561962 -2.873919 0
M  V30 12 C 1.979338 -0.886188 -1.541630 0
M  V30 13 C 2.210050 -2.187410 -1.147896 0
M  V30 14 C 1.059275 -1.253547 1.702151 0
M  V30 15 C 0.856901 -0.659417 2.927790 0
M  V30 16 N -0.178564 0.258363 3.227690 0
M  V30 17 C -1.183005 0.769764 2.332315 0
M  V30 18 C -0.672249 1.647909 1.237937 0
M  V30 19 C -1.684371 1.581378 0.091236 0
M  V30 20 C -3.091244 1.460091 0.647427 0
M  V30 21 C -3.224110 2.077280 2.020645 0
M  V30 22 C -2.285243 1.497041 3.042251 0
M  V30 23 N 1.744998 -1.006355 3.874924 0
M  V30 24 H 3.774795 -3.148192 2.261115 0
M  V30 25 H 2.628303 -4.845110 0.764336 0
M  V30 26 H 2.830191 -5.265161 -1.773752 0
M  V30 27 H 2.247667 -1.469058 -4.816395 0
M  V30 28 H 1.807509 0.432539 -3.237355 0
M  V30 29 H 1.797039 -0.114330 -0.824632 0
M  V30 30 H 0.403270 -1.047037 0.892213 0
M  V30 31 H -0.244442 0.622682 4.202736 0
M  V30 32 H -1.699142 -0.097098 1.807621 0
M  V30 33 H 0.302658 1.301409 0.876576 0
M  V30 34 H -0.602211 2.719240 1.540696 0
M  V30 35 H -1.496189 0.659953 -0.505876 0
M  V30 36 H -1.537761 2.470553 -0.548819 0
M  V30 37 H -3.461408 0.412793 0.603478 0
M  V30 38 H -3.762863 2.044583 -0.014293 0
M  V30 39 H -4.256753 1.827032 2.360593 0
M  V30 40 H -3.179256 3.172708 1.924337 0
M  V30 41 H -2.764967 0.837823 3.783769 0
M  V30 42 H -1.827996 2.382168 3.567982 0
M  V30 43 H 1.654758 -0.596946 4.826670 0
M  V30 END ATOM
M  V30 BEGIN BOND
M  V30 1 2 1 2
M  V30 2 1 2 3
M  V30 3 2 3 4
M  V30 4 1 4 5
M  V30 5 2 5 6
M  V30 6 1 6 7
M  V30 7 1 7 8
M  V30 8 2 8 9
M  V30 9 1 9 10
M  V30 10 2 10 11
M  V30 11 1 11 12
M  V30 12 2 12 13
M  V30 13 1 4 14
M  V30 14 2 14 15
M  V30 15 1 15 16
M  V30 16 1 16 17
M  V30 17 1 17 18
M  V30 18 1 18 19
M  V30 19 1 19 20
M  V30 20 1 20 21
M  V30 21 1 21 22
M  V30 22 1 15 23
M  V30 23 1 23 2
M  V30 24 1 13 5
M  V30 25 1 22 17
M  V30 26 1 13 8
M  V30 27 1 3 24
M  V30 28 1 6 25
M  V30 29 1 7 26
M  V30 30 1 10 27
M  V30 31 1 11 28
M  V30 32 1 12 29
M  V30 33 1 14 30
M  V30 34 1 16 31
M  V30 35 1 17 32
M  V30 36 1 18 33
M  V30 37 1 18 34
M  V30 38 1 19 35
M  V30 39 1 19 36
M  V30 40 1 20 37
M  V30 41 1 20 38
M  V30 42 1 21 39
M  V30 43 1 21 40
M  V30 44 1 22 41
M  V30 45 1 22 42
M  V30 46 1 23 43
M  V30 END BOND
M  V30 END CTAB
M  END
>  <Dataset>  (798) 
ChEMBL_Kinases

>  <Ligand_Instance>  (798) 
nan

>  <PDB_ID>  (798) 
nan

>  <Standardized_SMILES>  (798) 
O=c1cc(-c2c[nH]c3ncccc23)cc(NC2CCCCC2)[nH]1

>  <Name>  (798) 
nan

>  <Pocket>  (798) 
nan

>  <ATP_Site>  (798) 
nan

>  <Peripheral>  (798) 
nan

>  <Num_H_Atoms_ProtBoundConf>  (798) 
nan

>  <Num_Resolved_Atoms>  (798) 
nan

>  <Num_Not_Resolved_Atoms>  (798) 
nan

$$$$
CHEMBL195846
     RDKit          3D

  0  0  0  0  0  0  0  0  0  0999 V3000
M  V30 BEGIN CTAB
M  V30 COUNTS 44 47 0 0 0
M  V30 BEGIN ATOM
M  V30 1 N -4.766629 -4.394055 -2.885047 0
M  V30 2 C -3.661422 -4.346117 -3.776581 0
M  V30 3 O -3.591685 -5.008693 -4.845635 0
M  V30 4 C -2.527961 -3.493661 -3.468617 0
M  V30 5 C -1.435157 -3.417693 -4.306728 0
M  V30 6 C -0.372865 -2.596734 -3.984584 0
M  V30 7 C -0.334870 -1.815531 -2.828954 0
M  V30 8 N 0.542717 -0.953746 -2.283060 0
M  V30 9 C 0.019842 -0.495872 -1.129736 0
M  V30 10 C 0.638892 0.460739 -0.213348 0
M  V30 11 C 1.883191 0.978161 -0.509347 0
M  V30 12 C 2.487470 1.892426 0.355717 0
M  V30 13 C 1.810820 2.258708 1.502200 0
M  V30 14 S 2.370251 3.382708 2.727320 0
M  V30 15 O 1.254885 4.164586 3.317179 0
M  V30 16 O 3.404569 4.279682 2.065293 0
M  V30 17 N 3.255270 2.485490 3.938502 0
M  V30 18 C 2.687169 1.456163 4.739425 0
M  V30 19 C 1.439227 1.578033 5.359647 0
M  V30 20 C 0.966704 0.513182 6.125260 0
M  V30 21 C 1.674652 -0.653851 6.297933 0
M  V30 22 Cl 1.105111 -2.000456 7.250694 0
M  V30 23 C 2.924362 -0.812092 5.694113 0
M  V30 24 C 3.356954 0.267382 4.943218 0
M  V30 25 C 0.548743 1.734587 1.803562 0
M  V30 26 C -0.037275 0.827894 0.934104 0
M  V30 27 N -1.180074 -1.086295 -0.981287 0
M  V30 28 C -1.438558 -1.915236 -2.017478 0
M  V30 29 C -2.511870 -2.729328 -2.319599 0
M  V30 30 H -5.060573 -5.407754 -2.764272 0
M  V30 31 H -5.063558 -3.435735 -2.532709 0
M  V30 32 H -1.436617 -4.011984 -5.209891 0
M  V30 33 H 0.465973 -2.563224 -4.665874 0
M  V30 34 H 1.464102 -0.709810 -2.715901 0
M  V30 35 H 2.447026 0.715301 -1.400266 0
M  V30 36 H 3.444339 2.352532 0.222457 0
M  V30 37 H 4.278535 2.631491 4.175328 0
M  V30 38 H 0.890339 2.491344 5.221668 0
M  V30 39 H -0.010467 0.610053 6.610083 0
M  V30 40 H 3.543731 -1.691123 5.777332 0
M  V30 41 H 4.322900 0.165339 4.466754 0
M  V30 42 H -0.038856 1.971151 2.675194 0
M  V30 43 H -1.025961 0.381474 1.115622 0
M  V30 44 H -3.335491 -2.730256 -1.602104 0
M  V30 END ATOM
M  V30 BEGIN BOND
M  V30 1 1 1 2
M  V30 2 2 2 3
M  V30 3 1 2 4
M  V30 4 2 4 5
M  V30 5 1 5 6
M  V30 6 2 6 7
M  V30 7 1 7 8
M  V30 8 1 8 9
M  V30 9 1 9 10
M  V30 10 2 10 11
M  V30 11 1 11 12
M  V30 12 2 12 13
M  V30 13 1 13 14
M  V30 14 2 14 15
M  V30 15 2 14 16
M  V30 16 1 14 17
M  V30 17 1 17 18
M  V30 18 2 18 19
M  V30 19 1 19 20
M  V30 20 2 20 21
M  V30 21 1 21 22
M  V30 22 1 21 23
M  V30 23 2 23 24
M  V30 24 1 13 25
M  V30 25 2 25 26
M  V30 26 2 9 27
M  V30 27 1 27 28
M  V30 28 2 28 29
M  V30 29 1 29 4
M  V30 30 1 28 7
M  V30 31 1 26 10
M  V30 32 1 24 18
M  V30 33 1 1 30
M  V30 34 1 1 31
M  V30 35 1 5 32
M  V30 36 1 6 33
M  V30 37 1 8 34
M  V30 38 1 11 35
M  V30 39 1 12 36
M  V30 40 1 17 37
M  V30 41 1 19 38
M  V30 42 1 20 39
M  V30 43 1 23 40
M  V30 44 1 24 41
M  V30 45 1 25 42
M  V30 46 1 26 43
M  V30 47 1 29 44
M  V30 END BOND
M  V30 END CTAB
M  END
>  <Dataset>  (799) 
ChEMBL_Kinases

>  <Ligand_Instance>  (799) 
nan

>  <PDB_ID>  (799) 
nan

>  <Standardized_SMILES>  (799) 
NC(=O)c1ccc2[nH]c(-c3ccc(S(=O)(=O)Nc4ccc(Cl)cc4)cc3)nc2c1

>  <Name>  (799) 
nan

>  <Pocket>  (799) 
nan

>  <ATP_Site>  (799) 
nan

>  <Peripheral>  (799) 
nan

>  <Num_H_Atoms_ProtBoundConf>  (799) 
nan

>  <Num_Resolved_Atoms>  (799) 
nan

>  <Num_Not_Resolved_Atoms>  (799) 
nan

$$$$
CHEMBL1957955
     RDKit          3D

  0  0  0  0  0  0  0  0  0  0999 V3000
M  V30 BEGIN CTAB
M  V30 COUNTS 46 49 0 0 0
M  V30 BEGIN ATOM
M  V30 1 O 2.122487 -0.470419 3.545168 0
M  V30 2 C 1.302086 -0.130398 2.647943 0
M  V30 3 N 1.627047 -0.517551 1.312051 0
M  V30 4 C 2.774437 -1.245399 0.891533 0
M  V30 5 C 4.097228 -0.630933 1.176525 0
M  V30 6 C 4.344430 0.705373 0.560226 0
M  V30 7 N 4.276727 0.702991 -0.884079 0
M  V30 8 C 3.088690 0.947041 -1.500465 0
M  V30 9 N 3.198886 0.909009 -2.845054 0
M  V30 10 C 4.486921 0.633517 -3.112686 0
M  V30 11 Cl 5.310924 0.444066 -4.654981 0
M  V30 12 C 5.130109 0.511119 -1.900017 0
M  V30 13 Cl 6.820227 0.157255 -1.542408 0
M  V30 14 C 0.072947 0.625511 2.960312 0
M  V30 15 C -0.058866 1.760851 3.718072 0
M  V30 16 C -1.317003 2.308181 3.881083 0
M  V30 17 C -2.431494 1.743507 3.303956 0
M  V30 18 O -3.680557 2.350410 3.507948 0
M  V30 19 C -2.337308 0.602576 2.536672 0
M  V30 20 N -3.234039 -0.150376 1.867776 0
M  V30 21 C -2.569383 -1.161124 1.285459 0
M  V30 22 C -3.078164 -2.243007 0.452762 0
M  V30 23 C -4.410057 -2.364380 0.135373 0
M  V30 24 C -4.933487 -3.376287 -0.651194 0
M  V30 25 C -4.080097 -4.338789 -1.163057 0
M  V30 26 Cl -4.709776 -5.630433 -2.161011 0
M  V30 27 C -2.745692 -4.214446 -0.843226 0
M  V30 28 C -2.215686 -3.204929 -0.056976 0
M  V30 29 Cl -0.500683 -3.099076 0.317714 0
M  V30 30 N -1.275948 -1.013877 1.605635 0
M  V30 31 C -1.064336 0.056502 2.377393 0
M  V30 32 H 0.890156 -0.194664 0.613324 0
M  V30 33 H 2.805131 -2.290892 1.261662 0
M  V30 34 H 2.714811 -1.361013 -0.231414 0
M  V30 35 H 4.866611 -1.326161 0.724977 0
M  V30 36 H 4.370893 -0.585278 2.242810 0
M  V30 37 H 5.379667 1.015125 0.880898 0
M  V30 38 H 3.677347 1.485050 0.980189 0
M  V30 39 H 2.102645 1.158763 -1.065238 0
M  V30 40 H 0.878393 2.110807 4.117152 0
M  V30 41 H -1.352710 3.206626 4.493075 0
M  V30 42 H -4.085615 2.981020 2.805777 0
M  V30 43 H -4.282536 0.016329 1.807012 0
M  V30 44 H -5.036795 -1.586691 0.557887 0
M  V30 45 H -5.987633 -3.369456 -0.830318 0
M  V30 46 H -2.062638 -4.972518 -1.238337 0
M  V30 END ATOM
M  V30 BEGIN BOND
M  V30 1 2 1 2
M  V30 2 1 2 3
M  V30 3 1 3 4
M  V30 4 1 4 5
M  V30 5 1 5 6
M  V30 6 1 6 7
M  V30 7 1 7 8
M  V30 8 2 8 9
M  V30 9 1 9 10
M  V30 10 1 10 11
M  V30 11 2 10 12
M  V30 12 1 12 13
M  V30 13 1 2 14
M  V30 14 2 14 15
M  V30 15 1 15 16
M  V30 16 2 16 17
M  V30 17 1 17 18
M  V30 18 1 17 19
M  V30 19 1 19 20
M  V30 20 1 20 21
M  V30 21 1 21 22
M  V30 22 2 22 23
M  V30 23 1 23 24
M  V30 24 2 24 25
M  V30 25 1 25 26
M  V30 26 1 25 27
M  V30 27 2 27 28
M  V30 28 1 28 29
M  V30 29 2 21 30
M  V30 30 1 30 31
M  V30 31 1 12 7
M  V30 32 1 31 14
M  V30 33 2 31 19
M  V30 34 1 28 22
M  V30 35 1 3 32
M  V30 36 1 4 33
M  V30 37 1 4 34
M  V30 38 1 5 35
M  V30 39 1 5 36
M  V30 40 1 6 37
M  V30 41 1 6 38
M  V30 42 1 8 39
M  V30 43 1 15 40
M  V30 44 1 16 41
M  V30 45 1 18 42
M  V30 46 1 20 43
M  V30 47 1 23 44
M  V30 48 1 24 45
M  V30 49 1 27 46
M  V30 END BOND
M  V30 END CTAB
M  END
>  <Dataset>  (800) 
ChEMBL_Kinases

>  <Ligand_Instance>  (800) 
nan

>  <PDB_ID>  (800) 
nan

>  <Standardized_SMILES>  (800) 
O=C(NCCCn1cnc(Cl)c1Cl)c1ccc(O)c2[nH]c(-c3ccc(Cl)cc3Cl)nc12

>  <Name>  (800) 
nan

>  <Pocket>  (800) 
nan

>  <ATP_Site>  (800) 
nan

>  <Peripheral>  (800) 
nan

>  <Num_H_Atoms_ProtBoundConf>  (800) 
nan

>  <Num_Resolved_Atoms>  (800) 
nan

>  <Num_Not_Resolved_Atoms>  (800) 
nan

$$$$
CHEMBL1975289
     RDKit          3D

  0  0  0  0  0  0  0  0  0  0999 V3000
M  V30 BEGIN CTAB
M  V30 COUNTS 26 28 0 0 0
M  V30 BEGIN ATOM
M  V30 1 C -1.870199 -3.061832 4.507434 0
M  V30 2 O -1.097427 -2.357511 3.554074 0
M  V30 3 C 0.257442 -2.199552 3.646203 0
M  V30 4 O 0.101102 -2.855878 4.681235 0
M  V30 5 C 1.519703 -1.707483 3.166785 0
M  V30 6 C 1.578615 -1.020081 2.055573 0
M  V30 7 S 3.095240 -0.424996 1.473224 0
M  V30 8 C 2.364810 0.389802 -0.051241 0
M  V30 9 N 2.569561 1.133227 -1.216492 0
M  V30 10 C 1.356502 1.280258 -1.771655 0
M  V30 11 C 1.116462 1.953404 -2.936949 0
M  V30 12 C -0.201566 1.993017 -3.343264 0
M  V30 13 C -1.209176 1.392731 -2.620541 0
M  V30 14 C -0.838454 0.746493 -1.465497 0
M  V30 15 C 0.443951 0.644117 -0.965558 0
M  V30 16 N 1.035434 0.084320 0.105019 0
M  V30 17 C 0.626786 -0.618216 1.150456 0
M  V30 18 O -0.548169 -0.969316 1.421469 0
M  V30 19 H -1.596313 -4.154760 4.558694 0
M  V30 20 H -2.911841 -3.052477 4.114276 0
M  V30 21 H -1.864351 -2.622001 5.504735 0
M  V30 22 H 2.370899 -1.937862 3.764804 0
M  V30 23 H 1.887226 2.432157 -3.521857 0
M  V30 24 H -0.497006 2.499894 -4.250439 0
M  V30 25 H -2.253178 1.420192 -2.935972 0
M  V30 26 H -1.660094 0.275426 -0.906371 0
M  V30 END ATOM
M  V30 BEGIN BOND
M  V30 1 1 1 2
M  V30 2 1 2 3
M  V30 3 2 3 4
M  V30 4 1 3 5
M  V30 5 2 5 6
M  V30 6 1 6 7
M  V30 7 1 7 8
M  V30 8 2 8 9
M  V30 9 1 9 10
M  V30 10 2 10 11
M  V30 11 1 11 12
M  V30 12 2 12 13
M  V30 13 1 13 14
M  V30 14 2 14 15
M  V30 15 1 15 16
M  V30 16 1 16 17
M  V30 17 2 17 18
M  V30 18 1 17 6
M  V30 19 1 16 8
M  V30 20 1 15 10
M  V30 21 1 1 19
M  V30 22 1 1 20
M  V30 23 1 1 21
M  V30 24 1 5 22
M  V30 25 1 11 23
M  V30 26 1 12 24
M  V30 27 1 13 25
M  V30 28 1 14 26
M  V30 END BOND
M  V30 END CTAB
M  END
>  <Dataset>  (801) 
ChEMBL_Kinases

>  <Ligand_Instance>  (801) 
nan

>  <PDB_ID>  (801) 
nan

>  <Standardized_SMILES>  (801) 
COC(=O)/C=c1/sc2nc3ccccc3n2c1=O

>  <Name>  (801) 
nan

>  <Pocket>  (801) 
nan

>  <ATP_Site>  (801) 
nan

>  <Peripheral>  (801) 
nan

>  <Num_H_Atoms_ProtBoundConf>  (801) 
nan

>  <Num_Resolved_Atoms>  (801) 
nan

>  <Num_Not_Resolved_Atoms>  (801) 
nan

$$$$
CHEMBL197517
     RDKit          3D

  0  0  0  0  0  0  0  0  0  0999 V3000
M  V30 BEGIN CTAB
M  V30 COUNTS 50 53 0 0 0
M  V30 BEGIN ATOM
M  V30 1 C 3.128566 -2.894521 4.900142 0
M  V30 2 C 3.934972 -2.860595 3.634016 0
M  V30 3 C 3.380157 -1.990694 2.583125 0
M  V30 4 N 3.468473 -0.863149 2.239980 0
M  V30 5 C 2.858150 -0.279568 1.235427 0
M  V30 6 C 3.031082 1.125227 0.886975 0
M  V30 7 C 3.603722 1.677254 -0.239003 0
M  V30 8 C 3.675812 3.044361 -0.400029 0
M  V30 9 C 3.186160 3.929778 0.543115 0
M  V30 10 C 2.613732 3.382054 1.669173 0
M  V30 11 C 2.084894 4.315818 2.691061 0
M  V30 12 F 1.228121 3.665248 3.556175 0
M  V30 13 F 1.358565 5.308480 2.047257 0
M  V30 14 F 3.135178 4.916538 3.343818 0
M  V30 15 C 2.539112 2.015543 1.834882 0
M  V30 16 C 1.988202 -1.077862 0.460787 0
M  V30 17 C 1.123780 -0.844893 -0.725643 0
M  V30 18 C 1.457381 -0.549678 -2.011742 0
M  V30 19 C 0.429340 -0.380117 -2.917948 0
M  V30 20 N -0.860039 -0.501687 -2.547216 0
M  V30 21 C -1.216095 -0.793986 -1.277022 0
M  V30 22 N -2.607853 -0.902210 -0.980571 0
M  V30 23 C -3.103196 -2.214741 -1.147573 0
M  V30 24 O -2.213069 -3.030599 -1.526461 0
M  V30 25 C -4.506030 -2.522924 -0.891973 0
M  V30 26 C -5.432567 -1.606199 -0.486959 0
M  V30 27 C -6.731907 -2.016856 -0.276798 0
M  V30 28 C -7.027117 -3.348188 -0.490093 0
M  V30 29 C -6.122936 -4.302361 -0.897853 0
M  V30 30 C -4.830094 -3.863902 -1.100673 0
M  V30 31 C -0.195023 -0.970535 -0.339904 0
M  V30 32 S 2.166761 -2.743234 1.356963 0
M  V30 33 H 2.215881 -2.275719 4.744959 0
M  V30 34 H 2.754397 -3.901687 5.177808 0
M  V30 35 H 3.709056 -2.478291 5.764061 0
M  V30 36 H 3.993328 -3.930999 3.278806 0
M  V30 37 H 4.990411 -2.560855 3.782595 0
M  V30 38 H 3.973109 0.950912 -0.942830 0
M  V30 39 H 4.141381 3.416209 -1.315428 0
M  V30 40 H 3.253461 5.000718 0.396319 0
M  V30 41 H 2.069874 1.690306 2.757365 0
M  V30 42 H 2.521445 -0.486329 -2.164196 0
M  V30 43 H 0.755567 -0.144836 -3.933871 0
M  V30 44 H -3.200441 -0.099516 -0.673137 0
M  V30 45 H -5.147327 -0.591494 -0.338179 0
M  V30 46 H -7.454865 -1.286714 0.042100 0
M  V30 47 H -8.073671 -3.593217 -0.302844 0
M  V30 48 H -6.416792 -5.338656 -1.048945 0
M  V30 49 H -4.120419 -4.631929 -1.424636 0
M  V30 50 H -0.609107 -1.201147 0.643885 0
M  V30 END ATOM
M  V30 BEGIN BOND
M  V30 1 1 1 2
M  V30 2 1 2 3
M  V30 3 2 3 4
M  V30 4 1 4 5
M  V30 5 1 5 6
M  V30 6 2 6 7
M  V30 7 1 7 8
M  V30 8 2 8 9
M  V30 9 1 9 10
M  V30 10 1 10 11
M  V30 11 1 11 12
M  V30 12 1 11 13
M  V30 13 1 11 14
M  V30 14 2 10 15
M  V30 15 2 5 16
M  V30 16 1 16 17
M  V30 17 2 17 18
M  V30 18 1 18 19
M  V30 19 2 19 20
M  V30 20 1 20 21
M  V30 21 1 21 22
M  V30 22 1 22 23
M  V30 23 2 23 24
M  V30 24 1 23 25
M  V30 25 2 25 26
M  V30 26 1 26 27
M  V30 27 2 27 28
M  V30 28 1 28 29
M  V30 29 2 29 30
M  V30 30 2 21 31
M  V30 31 1 16 32
M  V30 32 1 32 3
M  V30 33 1 15 6
M  V30 34 1 31 17
M  V30 35 1 30 25
M  V30 36 1 1 33
M  V30 37 1 1 34
M  V30 38 1 1 35
M  V30 39 1 2 36
M  V30 40 1 2 37
M  V30 41 1 7 38
M  V30 42 1 8 39
M  V30 43 1 9 40
M  V30 44 1 15 41
M  V30 45 1 18 42
M  V30 46 1 19 43
M  V30 47 1 22 44
M  V30 48 1 26 45
M  V30 49 1 27 46
M  V30 50 1 28 47
M  V30 51 1 29 48
M  V30 52 1 30 49
M  V30 53 1 31 50
M  V30 END BOND
M  V30 END CTAB
M  END
>  <Dataset>  (802) 
ChEMBL_Kinases

>  <Ligand_Instance>  (802) 
nan

>  <PDB_ID>  (802) 
nan

>  <Standardized_SMILES>  (802) 
CCc1nc(-c2cccc(C(F)(F)F)c2)c(-c2ccnc(NC(=O)c3ccccc3)c2)s1

>  <Name>  (802) 
nan

>  <Pocket>  (802) 
nan

>  <ATP_Site>  (802) 
nan

>  <Peripheral>  (802) 
nan

>  <Num_H_Atoms_ProtBoundConf>  (802) 
nan

>  <Num_Resolved_Atoms>  (802) 
nan

>  <Num_Not_Resolved_Atoms>  (802) 
nan

$$$$
CHEMBL1974613
     RDKit          3D

  0  0  0  0  0  0  0  0  0  0999 V3000
M  V30 BEGIN CTAB
M  V30 COUNTS 40 43 0 0 0
M  V30 BEGIN ATOM
M  V30 1 O -0.697492 -2.025465 -1.129084 0
M  V30 2 C -0.012555 -2.104317 -0.068777 0
M  V30 3 N 0.054122 -3.291537 0.713617 0
M  V30 4 N -0.718306 -4.364718 0.186995 0
M  V30 5 C -1.972549 -4.080262 -0.059550 0
M  V30 6 C -2.951981 -5.035230 -0.605464 0
M  V30 7 C -4.284184 -4.687045 -0.853517 0
M  V30 8 C -5.119364 -5.646364 -1.362534 0
M  V30 9 C -4.719621 -6.942481 -1.645828 0
M  V30 10 C -3.392990 -7.236464 -1.382982 0
M  V30 11 C -2.483607 -6.308603 -0.863769 0
M  V30 12 O -1.185057 -6.725986 -0.645398 0
M  V30 13 C 0.722301 -0.906906 0.330639 0
M  V30 14 C 0.712028 0.283792 -0.370083 0
M  V30 15 C 1.516547 1.174189 0.309267 0
M  V30 16 C 1.792874 2.554429 -0.075990 0
M  V30 17 C 2.623650 3.328687 0.708963 0
M  V30 18 C 2.876288 4.634376 0.331519 0
M  V30 19 C 2.328843 5.211360 -0.811636 0
M  V30 20 C 1.498992 4.378407 -1.561424 0
M  V30 21 C 1.221861 3.072168 -1.219944 0
M  V30 22 O 1.068049 5.158128 -2.648709 0
M  V30 23 C 1.349322 6.531474 -2.340170 0
M  V30 24 O 2.413317 6.468447 -1.410218 0
M  V30 25 N 1.999459 0.537847 1.391098 0
M  V30 26 N 1.518430 -0.716110 1.400327 0
M  V30 27 H 0.634719 -3.319957 1.590286 0
M  V30 28 H -2.359531 -3.073322 0.140343 0
M  V30 29 H -4.601295 -3.678797 -0.634772 0
M  V30 30 H -6.150618 -5.405173 -1.563043 0
M  V30 31 H -5.412021 -7.649229 -2.041237 0
M  V30 32 H -3.064877 -8.250347 -1.600515 0
M  V30 33 H -0.684405 -7.309733 -1.316190 0
M  V30 34 H 0.184387 0.542382 -1.300713 0
M  V30 35 H 3.090063 2.957504 1.613598 0
M  V30 36 H 3.531093 5.271788 0.934587 0
M  V30 37 H 0.558934 2.498909 -1.871949 0
M  V30 38 H 1.620052 7.101344 -3.249705 0
M  V30 39 H 0.420840 6.963746 -1.889797 0
M  V30 40 H 2.642217 0.908966 2.129745 0
M  V30 END ATOM
M  V30 BEGIN BOND
M  V30 1 2 1 2
M  V30 2 1 2 3
M  V30 3 1 3 4
M  V30 4 2 4 5
M  V30 5 1 5 6
M  V30 6 2 6 7
M  V30 7 1 7 8
M  V30 8 2 8 9
M  V30 9 1 9 10
M  V30 10 2 10 11
M  V30 11 1 11 12
M  V30 12 1 2 13
M  V30 13 1 13 14
M  V30 14 2 14 15
M  V30 15 1 15 16
M  V30 16 2 16 17
M  V30 17 1 17 18
M  V30 18 2 18 19
M  V30 19 1 19 20
M  V30 20 2 20 21
M  V30 21 1 20 22
M  V30 22 1 22 23
M  V30 23 1 23 24
M  V30 24 1 15 25
M  V30 25 1 25 26
M  V30 26 1 11 6
M  V30 27 2 26 13
M  V30 28 1 21 16
M  V30 29 1 24 19
M  V30 30 1 3 27
M  V30 31 1 5 28
M  V30 32 1 7 29
M  V30 33 1 8 30
M  V30 34 1 9 31
M  V30 35 1 10 32
M  V30 36 1 12 33
M  V30 37 1 14 34
M  V30 38 1 17 35
M  V30 39 1 18 36
M  V30 40 1 21 37
M  V30 41 1 23 38
M  V30 42 1 23 39
M  V30 43 1 25 40
M  V30 END BOND
M  V30 END CTAB
M  END
>  <Dataset>  (803) 
ChEMBL_Kinases

>  <Ligand_Instance>  (803) 
nan

>  <PDB_ID>  (803) 
nan

>  <Standardized_SMILES>  (803) 
O=C(N/N=C/c1ccccc1O)c1cc(-c2ccc3c(c2)OCO3)[nH]n1

>  <Name>  (803) 
nan

>  <Pocket>  (803) 
nan

>  <ATP_Site>  (803) 
nan

>  <Peripheral>  (803) 
nan

>  <Num_H_Atoms_ProtBoundConf>  (803) 
nan

>  <Num_Resolved_Atoms>  (803) 
nan

>  <Num_Not_Resolved_Atoms>  (803) 
nan

$$$$
CHEMBL197414
     RDKit          3D

  0  0  0  0  0  0  0  0  0  0999 V3000
M  V30 BEGIN CTAB
M  V30 COUNTS 29 30 0 0 0
M  V30 BEGIN ATOM
M  V30 1 N 3.764078 -6.965085 5.401937 0
M  V30 2 C 2.886870 -6.441640 4.902221 0
M  V30 3 C 1.822422 -5.800831 4.272526 0
M  V30 4 C 1.725883 -4.627457 3.579957 0
M  V30 5 C 0.526978 -4.225025 3.052521 0
M  V30 6 C 0.303089 -3.019038 2.309470 0
M  V30 7 C 0.134412 -2.013774 1.678814 0
M  V30 8 C -0.066187 -0.767953 0.926641 0
M  V30 9 C -0.024129 -0.572730 -0.478939 0
M  V30 10 C -0.253879 0.712085 -0.850827 0
M  V30 11 C -0.238589 1.048261 -2.270558 0
M  V30 12 N -0.003393 0.162003 -3.352228 0
M  V30 13 O -0.446003 2.221503 -2.658689 0
M  V30 14 C -0.500319 1.722004 0.010400 0
M  V30 15 N -0.757105 3.068485 -0.097767 0
M  V30 16 C 0.157837 4.158778 -0.106034 0
M  V30 17 N -0.372316 5.466088 -0.230920 0
M  V30 18 O 1.427991 4.089442 -0.011673 0
M  V30 19 S -0.426971 0.873422 1.630458 0
M  V30 20 C -0.600734 -5.091340 3.265720 0
M  V30 21 S 0.100998 -6.523110 4.256011 0
M  V30 22 H 2.628293 -4.048686 3.474591 0
M  V30 23 H 0.180097 -1.444286 -1.074837 0
M  V30 24 H 1.003957 0.313181 -3.615642 0
M  V30 25 H -0.542833 -0.551825 -3.911776 0
M  V30 26 H -1.773707 3.245643 -0.181409 0
M  V30 27 H -0.373733 6.306639 -0.862049 0
M  V30 28 H -0.984758 5.667393 0.611078 0
M  V30 29 H -1.575353 -5.014545 2.979698 0
M  V30 END ATOM
M  V30 BEGIN BOND
M  V30 1 3 1 2
M  V30 2 1 2 3
M  V30 3 2 3 4
M  V30 4 1 4 5
M  V30 5 1 5 6
M  V30 6 3 6 7
M  V30 7 1 7 8
M  V30 8 2 8 9
M  V30 9 1 9 10
M  V30 10 1 10 11
M  V30 11 1 11 12
M  V30 12 2 11 13
M  V30 13 2 10 14
M  V30 14 1 14 15
M  V30 15 1 15 16
M  V30 16 1 16 17
M  V30 17 2 16 18
M  V30 18 1 14 19
M  V30 19 2 5 20
M  V30 20 1 20 21
M  V30 21 1 21 3
M  V30 22 1 19 8
M  V30 23 1 4 22
M  V30 24 1 9 23
M  V30 25 1 12 24
M  V30 26 1 12 25
M  V30 27 1 15 26
M  V30 28 1 17 27
M  V30 29 1 17 28
M  V30 30 1 20 29
M  V30 END BOND
M  V30 END CTAB
M  END
>  <Dataset>  (804) 
ChEMBL_Kinases

>  <Ligand_Instance>  (804) 
nan

>  <PDB_ID>  (804) 
nan

>  <Standardized_SMILES>  (804) 
N#Cc1cc(C#Cc2cc(C(N)=O)c(NC(N)=O)s2)cs1

>  <Name>  (804) 
nan

>  <Pocket>  (804) 
nan

>  <ATP_Site>  (804) 
nan

>  <Peripheral>  (804) 
nan

>  <Num_H_Atoms_ProtBoundConf>  (804) 
nan

>  <Num_Resolved_Atoms>  (804) 
nan

>  <Num_Not_Resolved_Atoms>  (804) 
nan

$$$$
CHEMBL197405
     RDKit          3D

  0  0  0  0  0  0  0  0  0  0999 V3000
M  V30 BEGIN CTAB
M  V30 COUNTS 32 33 0 0 0
M  V30 BEGIN ATOM
M  V30 1 N 0.314273 -5.699937 4.903398 0
M  V30 2 C 0.068714 -4.474642 4.223896 0
M  V30 3 O -0.109100 -3.451272 4.900002 0
M  V30 4 N 0.054354 -4.565879 2.786343 0
M  V30 5 C -0.181159 -3.401374 2.043421 0
M  V30 6 S 1.127505 -2.298153 1.484379 0
M  V30 7 C 0.086031 -1.139166 0.668723 0
M  V30 8 C 0.548551 0.016837 -0.002958 0
M  V30 9 C 0.922489 1.005548 -0.580107 0
M  V30 10 C 1.392330 2.184697 -1.259925 0
M  V30 11 C 1.374483 2.131544 -2.642745 0
M  V30 12 C 1.821579 3.253515 -3.307351 0
M  V30 13 C 2.272845 4.393713 -2.670763 0
M  V30 14 C 2.251747 4.348870 -1.274368 0
M  V30 15 O 2.710023 5.506812 -0.622450 0
M  V30 16 C 1.821727 3.270410 -0.524646 0
M  V30 17 C -1.169826 -1.633199 0.855767 0
M  V30 18 C -1.306801 -2.801145 1.565595 0
M  V30 19 C -2.622794 -3.408216 1.816902 0
M  V30 20 N -3.858875 -2.862700 1.362462 0
M  V30 21 O -2.648744 -4.477270 2.476049 0
M  V30 22 H -0.623094 -5.964351 5.301641 0
M  V30 23 H 0.574182 -6.591561 5.377224 0
M  V30 24 H 0.214676 -5.474556 2.297252 0
M  V30 25 H 1.031735 1.265189 -3.185294 0
M  V30 26 H 1.821923 3.247980 -4.387102 0
M  V30 27 H 2.619120 5.262595 -3.199557 0
M  V30 28 H 2.039930 6.196391 -0.298936 0
M  V30 29 H 1.830121 3.297858 0.542385 0
M  V30 30 H -1.986963 -1.066167 0.427644 0
M  V30 31 H -4.494587 -3.533136 0.848652 0
M  V30 32 H -4.198509 -1.883533 1.481840 0
M  V30 END ATOM
M  V30 BEGIN BOND
M  V30 1 1 1 2
M  V30 2 2 2 3
M  V30 3 1 2 4
M  V30 4 1 4 5
M  V30 5 1 5 6
M  V30 6 1 6 7
M  V30 7 1 7 8
M  V30 8 3 8 9
M  V30 9 1 9 10
M  V30 10 2 10 11
M  V30 11 1 11 12
M  V30 12 2 12 13
M  V30 13 1 13 14
M  V30 14 1 14 15
M  V30 15 2 14 16
M  V30 16 2 7 17
M  V30 17 1 17 18
M  V30 18 1 18 19
M  V30 19 1 19 20
M  V30 20 2 19 21
M  V30 21 2 18 5
M  V30 22 1 16 10
M  V30 23 1 1 22
M  V30 24 1 1 23
M  V30 25 1 4 24
M  V30 26 1 11 25
M  V30 27 1 12 26
M  V30 28 1 13 27
M  V30 29 1 15 28
M  V30 30 1 16 29
M  V30 31 1 17 30
M  V30 32 1 20 31
M  V30 33 1 20 32
M  V30 END BOND
M  V30 END CTAB
M  END
>  <Dataset>  (805) 
ChEMBL_Kinases

>  <Ligand_Instance>  (805) 
nan

>  <PDB_ID>  (805) 
nan

>  <Standardized_SMILES>  (805) 
NC(=O)Nc1sc(C#Cc2cccc(O)c2)cc1C(N)=O

>  <Name>  (805) 
nan

>  <Pocket>  (805) 
nan

>  <ATP_Site>  (805) 
nan

>  <Peripheral>  (805) 
nan

>  <Num_H_Atoms_ProtBoundConf>  (805) 
nan

>  <Num_Resolved_Atoms>  (805) 
nan

>  <Num_Not_Resolved_Atoms>  (805) 
nan

$$$$
CHEMBL197399
     RDKit          3D

  0  0  0  0  0  0  0  0  0  0999 V3000
M  V30 BEGIN CTAB
M  V30 COUNTS 49 52 0 0 0
M  V30 BEGIN ATOM
M  V30 1 C -1.677930 0.601169 5.351185 0
M  V30 2 C -1.117031 -0.008367 4.080103 0
M  V30 3 O -0.437130 -1.182679 4.352124 0
M  V30 4 C 0.062045 -1.734448 3.207329 0
M  V30 5 N 0.994017 -0.912590 2.470716 0
M  V30 6 O 2.274299 -0.904285 2.693783 0
M  V30 7 C 2.907375 -0.077530 1.908034 0
M  V30 8 O 4.169496 0.105919 1.937599 0
M  V30 9 C 1.979904 0.527961 1.080049 0
M  V30 10 C 2.325454 1.513694 0.068694 0
M  V30 11 C 1.999905 2.845526 -0.041036 0
M  V30 12 C 2.417632 3.638640 -1.082548 0
M  V30 13 C 3.209593 3.066675 -2.075979 0
M  V30 14 F 3.582368 3.912968 -3.071178 0
M  V30 15 C 3.561554 1.716396 -1.999389 0
M  V30 16 C 3.121271 0.951286 -0.935159 0
M  V30 17 C 0.786814 -0.032190 1.473745 0
M  V30 18 C -0.498570 0.296343 0.872690 0
M  V30 19 C -1.225508 1.471777 0.858544 0
M  V30 20 C -2.437451 1.517391 0.201782 0
M  V30 21 N -2.891257 0.414076 -0.414779 0
M  V30 22 C -2.193032 -0.748575 -0.412502 0
M  V30 23 O -2.755235 -1.826828 -1.080967 0
M  V30 24 C -2.137203 -3.068339 -1.150728 0
M  V30 25 C -2.510389 -3.880072 -0.082663 0
M  V30 26 C -2.005521 -5.176954 0.045493 0
M  V30 27 C -1.122461 -5.636987 -0.918128 0
M  V30 28 C -0.754691 -4.824106 -1.979125 0
M  V30 29 O 0.127968 -5.241955 -2.970152 0
M  V30 30 C -1.250322 -3.561753 -2.097709 0
M  V30 31 N -1.002945 -0.800186 0.230238 0
M  V30 32 H -1.015728 1.387303 5.767884 0
M  V30 33 H -1.963876 -0.170098 6.093035 0
M  V30 34 H -2.629741 1.106426 5.048377 0
M  V30 35 H -0.359304 0.724387 3.712881 0
M  V30 36 H -1.884610 -0.235202 3.343547 0
M  V30 37 H -0.736088 -2.135784 2.526816 0
M  V30 38 H 0.603391 -2.673221 3.531135 0
M  V30 39 H 1.386691 3.183480 0.781744 0
M  V30 40 H 2.106495 4.665347 -1.072806 0
M  V30 41 H 4.177867 1.327808 -2.798452 0
M  V30 42 H 3.468513 -0.092628 -0.995867 0
M  V30 43 H -0.718234 2.250414 1.399561 0
M  V30 44 H -2.937748 2.474260 0.241004 0
M  V30 45 H -3.193238 -3.615914 0.722987 0
M  V30 46 H -2.272149 -5.838936 0.862919 0
M  V30 47 H -0.709910 -6.649492 -0.844121 0
M  V30 48 H 0.810497 -5.948900 -2.718111 0
M  V30 49 H -1.042948 -2.828676 -2.877002 0
M  V30 END ATOM
M  V30 BEGIN BOND
M  V30 1 1 1 2
M  V30 2 1 2 3
M  V30 3 1 3 4
M  V30 4 1 4 5
M  V30 5 1 5 6
M  V30 6 1 6 7
M  V30 7 2 7 8
M  V30 8 1 7 9
M  V30 9 1 9 10
M  V30 10 2 10 11
M  V30 11 1 11 12
M  V30 12 2 12 13
M  V30 13 1 13 14
M  V30 14 1 13 15
M  V30 15 2 15 16
M  V30 16 2 9 17
M  V30 17 1 17 18
M  V30 18 2 18 19
M  V30 19 1 19 20
M  V30 20 2 20 21
M  V30 21 1 21 22
M  V30 22 1 22 23
M  V30 23 1 23 24
M  V30 24 2 24 25
M  V30 25 1 25 26
M  V30 26 2 26 27
M  V30 27 1 27 28
M  V30 28 1 28 29
M  V30 29 2 28 30
M  V30 30 2 22 31
M  V30 31 1 17 5
M  V30 32 1 31 18
M  V30 33 1 16 10
M  V30 34 1 30 24
M  V30 35 1 1 32
M  V30 36 1 1 33
M  V30 37 1 1 34
M  V30 38 1 2 35
M  V30 39 1 2 36
M  V30 40 1 4 37
M  V30 41 1 4 38
M  V30 42 1 11 39
M  V30 43 1 12 40
M  V30 44 1 15 41
M  V30 45 1 16 42
M  V30 46 1 19 43
M  V30 47 1 20 44
M  V30 48 1 25 45
M  V30 49 1 26 46
M  V30 50 1 27 47
M  V30 51 1 29 48
M  V30 52 1 30 49
M  V30 END BOND
M  V30 END CTAB
M  END
>  <Dataset>  (806) 
ChEMBL_Kinases

>  <Ligand_Instance>  (806) 
nan

>  <PDB_ID>  (806) 
nan

>  <Standardized_SMILES>  (806) 
CCOCn1oc(=O)c(-c2ccc(F)cc2)c1-c1ccnc(Oc2cccc(O)c2)n1

>  <Name>  (806) 
nan

>  <Pocket>  (806) 
nan

>  <ATP_Site>  (806) 
nan

>  <Peripheral>  (806) 
nan

>  <Num_H_Atoms_ProtBoundConf>  (806) 
nan

>  <Num_Resolved_Atoms>  (806) 
nan

>  <Num_Not_Resolved_Atoms>  (806) 
nan

$$$$
CHEMBL1973866
     RDKit          3D

  0  0  0  0  0  0  0  0  0  0999 V3000
M  V30 BEGIN CTAB
M  V30 COUNTS 59 62 0 0 0
M  V30 BEGIN ATOM
M  V30 1 C 0.338477 -6.244334 2.605052 0
M  V30 2 C 0.910912 -5.266817 3.422438 0
M  V30 3 C 1.245412 -3.907195 3.500390 0
M  V30 4 N 1.069171 -3.008526 2.364939 0
M  V30 5 C 2.494435 -3.285985 1.738332 0
M  V30 6 O 3.652473 -3.773166 1.525729 0
M  V30 7 C 2.622056 -2.356888 0.647142 0
M  V30 8 C 3.379705 -1.980880 -0.587584 0
M  V30 9 C 2.760989 -0.671703 -1.159902 0
M  V30 10 C 3.515913 0.359776 -0.520272 0
M  V30 11 C 2.837892 1.608748 -0.371979 0
M  V30 12 O 3.281458 2.658265 0.141846 0
M  V30 13 C 3.770940 3.722743 0.678219 0
M  V30 14 C 1.504298 1.688491 -0.861017 0
M  V30 15 O 0.806238 2.907663 -0.696919 0
M  V30 16 C 0.032583 3.049963 0.528840 0
M  V30 17 C 0.975525 0.599482 -1.444622 0
M  V30 18 O -0.334405 0.870348 -1.875928 0
M  V30 19 C -0.951083 -0.074532 -2.803981 0
M  V30 20 C 1.470457 -0.618635 -1.678151 0
M  V30 21 S 1.277169 -1.437067 0.503794 0
M  V30 22 C 0.265379 -2.078421 1.835150 0
M  V30 23 C -0.904960 -2.218923 2.431249 0
M  V30 24 C -1.418845 -3.099233 3.434041 0
M  V30 25 N -1.806783 -3.785730 4.235961 0
M  V30 26 C -1.735998 -1.241552 1.641137 0
M  V30 27 N -2.006966 0.014776 1.859656 0
M  V30 28 C -2.814994 0.533816 0.921727 0
M  V30 29 C -3.556792 1.618737 0.483851 0
M  V30 30 C -4.378977 1.672491 -0.609748 0
M  V30 31 C -4.531552 0.555917 -1.390465 0
M  V30 32 C -3.838216 -0.579538 -1.028248 0
M  V30 33 C -2.993759 -0.598921 0.101424 0
M  V30 34 N -2.337922 -1.763865 0.494036 0
M  V30 35 C -2.278780 -3.116084 -0.049888 0
M  V30 36 H 0.536078 -5.132474 2.490907 0
M  V30 37 H -0.094629 -6.291561 1.584959 0
M  V30 38 H 1.203279 -5.798335 4.387301 0
M  V30 39 H 2.302396 -3.884101 3.964382 0
M  V30 40 H 0.778662 -3.361581 4.420672 0
M  V30 41 H 4.105965 -2.760368 -0.652069 0
M  V30 42 H 4.513860 0.260247 -0.149847 0
M  V30 43 H 4.543093 3.684807 1.505456 0
M  V30 44 H 4.222161 4.469697 -0.072630 0
M  V30 45 H 2.956917 4.407625 1.165841 0
M  V30 46 H 0.772783 3.399638 1.304960 0
M  V30 47 H -0.732813 3.803280 0.415393 0
M  V30 48 H -0.341904 2.073759 0.885753 0
M  V30 49 H -1.849489 0.334965 -3.243034 0
M  V30 50 H -0.203451 -0.285965 -3.614933 0
M  V30 51 H -1.193752 -0.979206 -2.214823 0
M  V30 52 H 1.098318 -1.482525 -2.144920 0
M  V30 53 H -3.380139 2.451861 1.161694 0
M  V30 54 H -4.856121 2.614640 -0.756299 0
M  V30 55 H -5.199928 0.523574 -2.209397 0
M  V30 56 H -3.995396 -1.428311 -1.673785 0
M  V30 57 H -1.221790 -3.431891 -0.107852 0
M  V30 58 H -2.869860 -3.818555 0.601512 0
M  V30 59 H -2.746821 -3.137380 -1.055944 0
M  V30 END ATOM
M  V30 BEGIN BOND
M  V30 1 2 1 2
M  V30 2 1 2 3
M  V30 3 1 3 4
M  V30 4 1 4 5
M  V30 5 2 5 6
M  V30 6 1 5 7
M  V30 7 2 7 8
M  V30 8 1 8 9
M  V30 9 2 9 10
M  V30 10 1 10 11
M  V30 11 1 11 12
M  V30 12 1 12 13
M  V30 13 2 11 14
M  V30 14 1 14 15
M  V30 15 1 15 16
M  V30 16 1 14 17
M  V30 17 1 17 18
M  V30 18 1 18 19
M  V30 19 2 17 20
M  V30 20 1 7 21
M  V30 21 1 21 22
M  V30 22 2 22 23
M  V30 23 1 23 24
M  V30 24 3 24 25
M  V30 25 1 23 26
M  V30 26 2 26 27
M  V30 27 1 27 28
M  V30 28 2 28 29
M  V30 29 1 29 30
M  V30 30 2 30 31
M  V30 31 1 31 32
M  V30 32 2 32 33
M  V30 33 1 33 34
M  V30 34 1 34 35
M  V30 35 1 22 4
M  V30 36 1 34 26
M  V30 37 1 20 9
M  V30 38 1 33 28
M  V30 39 1 1 36
M  V30 40 1 1 37
M  V30 41 1 2 38
M  V30 42 1 3 39
M  V30 43 1 3 40
M  V30 44 1 8 41
M  V30 45 1 10 42
M  V30 46 1 13 43
M  V30 47 1 13 44
M  V30 48 1 13 45
M  V30 49 1 16 46
M  V30 50 1 16 47
M  V30 51 1 16 48
M  V30 52 1 19 49
M  V30 53 1 19 50
M  V30 54 1 19 51
M  V30 55 1 20 52
M  V30 56 1 29 53
M  V30 57 1 30 54
M  V30 58 1 31 55
M  V30 59 1 32 56
M  V30 60 1 35 57
M  V30 61 1 35 58
M  V30 62 1 35 59
M  V30 END BOND
M  V30 END CTAB
M  END
>  <Dataset>  (807) 
ChEMBL_Kinases

>  <Ligand_Instance>  (807) 
nan

>  <PDB_ID>  (807) 
nan

>  <Standardized_SMILES>  (807) 
C=CCn1c(=O)/c(=C/c2cc(OC)c(OC)c(OC)c2)s/c1=C(/C#N)c1nc2ccccc2n1C

>  <Name>  (807) 
nan

>  <Pocket>  (807) 
nan

>  <ATP_Site>  (807) 
nan

>  <Peripheral>  (807) 
nan

>  <Num_H_Atoms_ProtBoundConf>  (807) 
nan

>  <Num_Resolved_Atoms>  (807) 
nan

>  <Num_Not_Resolved_Atoms>  (807) 
nan

$$$$
CHEMBL197382
     RDKit          3D

  0  0  0  0  0  0  0  0  0  0999 V3000
M  V30 BEGIN CTAB
M  V30 COUNTS 50 53 0 0 0
M  V30 BEGIN ATOM
M  V30 1 C 0.823962 -2.433473 -1.082852 0
M  V30 2 C 1.635472 -3.106571 -0.022490 0
M  V30 3 C 0.828247 -3.453174 1.227541 0 CFG=1
M  V30 4 N 0.264225 -2.290149 1.837389 0
M  V30 5 C -0.627746 -1.276021 1.445949 0
M  V30 6 C -0.183101 -0.088572 0.852166 0
M  V30 7 C -1.109595 0.868205 0.490904 0
M  V30 8 C -0.677154 2.047205 -0.097967 0
M  V30 9 N 0.687541 2.315641 -0.347485 0
M  V30 10 C 1.738255 2.935099 0.397755 0
M  V30 11 C 2.984057 3.024802 -0.187709 0
M  V30 12 C 3.943936 3.627025 0.576080 0
M  V30 13 C 3.773522 4.135230 1.842355 0
M  V30 14 F 4.808936 4.721874 2.522872 0
M  V30 15 C 2.507780 4.015709 2.372520 0
M  V30 16 Cl 2.253897 4.656800 3.994608 0
M  V30 17 C 1.487938 3.413738 1.647273 0
M  V30 18 C -1.643790 2.975681 -0.442553 0
M  V30 19 C -1.246540 4.217040 -1.057492 0
M  V30 20 N -0.921456 5.218023 -1.539094 0
M  V30 21 C -3.004638 2.750868 -0.213688 0
M  V30 22 N -3.353342 1.584468 0.361685 0
M  V30 23 C -2.455353 0.659189 0.711030 0
M  V30 24 C -2.797163 -0.535366 1.298779 0
M  V30 25 N -1.935638 -1.499678 1.669459 0
M  V30 26 C -0.134533 -4.522189 0.944513 0
M  V30 27 C -1.012210 -4.777322 2.001649 0
M  V30 28 C -1.977299 -5.758281 1.884048 0
M  V30 29 C -2.113408 -6.516249 0.734997 0
M  V30 30 C -1.242973 -6.259921 -0.307491 0
M  V30 31 C -0.282175 -5.277415 -0.179493 0
M  V30 32 H 0.917870 -2.958152 -2.079487 0
M  V30 33 H 1.258318 -1.416790 -1.282852 0
M  V30 34 H -0.263261 -2.407465 -0.884185 0
M  V30 35 H 2.099653 -4.012947 -0.458052 0
M  V30 36 H 2.510376 -2.465955 0.277526 0
M  V30 37 H 1.573711 -3.878679 1.931829 0
M  V30 38 H 0.479101 -1.987163 2.831114 0
M  V30 39 H 0.857952 0.064616 0.685751 0
M  V30 40 H 0.843056 1.936058 -1.307259 0
M  V30 41 H 3.207616 2.647757 -1.188653 0
M  V30 42 H 4.947490 3.718907 0.148832 0
M  V30 43 H 0.525780 3.361247 2.137797 0
M  V30 44 H -3.768305 3.474195 -0.481033 0
M  V30 45 H -3.868709 -0.678696 1.463307 0
M  V30 46 H -1.033508 -4.267936 2.969537 0
M  V30 47 H -2.687905 -6.008758 2.659702 0
M  V30 48 H -2.863975 -7.287466 0.628479 0
M  V30 49 H -1.270688 -6.800313 -1.246908 0
M  V30 50 H 0.417294 -5.046115 -0.971444 0
M  V30 END ATOM
M  V30 BEGIN BOND
M  V30 1 1 1 2
M  V30 2 1 2 3
M  V30 3 1 3 4
M  V30 4 1 4 5
M  V30 5 2 5 6
M  V30 6 1 6 7
M  V30 7 2 7 8
M  V30 8 1 8 9
M  V30 9 1 9 10
M  V30 10 2 10 11
M  V30 11 1 11 12
M  V30 12 2 12 13
M  V30 13 1 13 14
M  V30 14 1 13 15
M  V30 15 1 15 16
M  V30 16 2 15 17
M  V30 17 1 8 18
M  V30 18 1 18 19
M  V30 19 3 19 20
M  V30 20 2 18 21
M  V30 21 1 21 22
M  V30 22 2 22 23
M  V30 23 1 23 24
M  V30 24 2 24 25
M  V30 25 1 3 26
M  V30 26 2 26 27
M  V30 27 1 27 28
M  V30 28 2 28 29
M  V30 29 1 29 30
M  V30 30 2 30 31
M  V30 31 1 25 5
M  V30 32 1 31 26
M  V30 33 1 23 7
M  V30 34 1 17 10
M  V30 35 1 1 32
M  V30 36 1 1 33
M  V30 37 1 1 34
M  V30 38 1 2 35
M  V30 39 1 2 36
M  V30 40 1 3 37 CFG=1
M  V30 41 1 4 38
M  V30 42 1 6 39
M  V30 43 1 9 40
M  V30 44 1 11 41
M  V30 45 1 12 42
M  V30 46 1 17 43
M  V30 47 1 21 44
M  V30 48 1 24 45
M  V30 49 1 27 46
M  V30 50 1 28 47
M  V30 51 1 29 48
M  V30 52 1 30 49
M  V30 53 1 31 50
M  V30 END BOND
M  V30 END CTAB
M  END
>  <Dataset>  (808) 
ChEMBL_Kinases

>  <Ligand_Instance>  (808) 
nan

>  <PDB_ID>  (808) 
nan

>  <Standardized_SMILES>  (808) 
CC[C@@H](Nc1cc2c(Nc3ccc(F)c(Cl)c3)c(C#N)cnc2cn1)c1ccccc1

>  <Name>  (808) 
nan

>  <Pocket>  (808) 
nan

>  <ATP_Site>  (808) 
nan

>  <Peripheral>  (808) 
nan

>  <Num_H_Atoms_ProtBoundConf>  (808) 
nan

>  <Num_Resolved_Atoms>  (808) 
nan

>  <Num_Not_Resolved_Atoms>  (808) 
nan

$$$$
CHEMBL197358
     RDKit          3D

  0  0  0  0  0  0  0  0  0  0999 V3000
M  V30 BEGIN CTAB
M  V30 COUNTS 41 42 0 0 0
M  V30 BEGIN ATOM
M  V30 1 C 0.523525 -7.550162 0.041102 0
M  V30 2 C 1.247242 -6.207683 0.186712 0
M  V30 3 C 0.865002 -5.656014 1.542386 0
M  V30 4 C 0.714376 -5.313649 -0.912034 0
M  V30 5 O 0.956101 -5.848502 -2.160972 0
M  V30 6 C 1.275638 -3.962191 -0.825626 0
M  V30 7 C 0.825167 -2.788815 -0.353534 0
M  V30 8 C 1.588356 -1.654952 -0.405149 0
M  V30 9 C 1.187360 -0.361842 0.074588 0
M  V30 10 C 0.830982 0.717368 0.481105 0
M  V30 11 C 0.379581 2.031697 0.994542 0
M  V30 12 C 0.825597 2.646683 2.098197 0
M  V30 13 C 0.333526 3.847376 2.462549 0
M  V30 14 C 0.683764 4.665598 3.611486 0
M  V30 15 N 1.669322 4.211865 4.524493 0
M  V30 16 O 0.154893 5.771467 3.847481 0
M  V30 17 C -0.666887 4.373973 1.591601 0
M  V30 18 N -1.498782 5.562432 1.499200 0
M  V30 19 C -2.407659 5.730338 0.446581 0
M  V30 20 N -3.163873 6.933763 0.466222 0
M  V30 21 O -2.528210 4.839339 -0.461811 0
M  V30 22 S -0.804189 3.048130 0.295097 0
M  V30 23 C 2.863899 -1.815541 -0.984085 0
M  V30 24 S 2.921525 -3.622913 -1.441675 0
M  V30 25 H 0.266243 -7.947581 1.048541 0
M  V30 26 H -0.428769 -7.411549 -0.526201 0
M  V30 27 H 1.209014 -8.271650 -0.489493 0
M  V30 28 H 2.331594 -6.348882 0.118803 0
M  V30 29 H 0.962146 -6.389024 2.345075 0
M  V30 30 H 1.549202 -4.801115 1.723583 0
M  V30 31 H -0.169250 -5.228155 1.496721 0
M  V30 32 H -0.385700 -5.271117 -0.774754 0
M  V30 33 H 0.231613 -5.560358 -2.768517 0
M  V30 34 H -0.171654 -2.809573 0.063830 0
M  V30 35 H 1.588892 2.191320 2.717584 0
M  V30 36 H 1.254840 3.445279 5.122745 0
M  V30 37 H 2.582104 4.722913 4.414608 0
M  V30 38 H -1.387588 6.259187 2.231775 0
M  V30 39 H -4.156053 7.005848 0.192872 0
M  V30 40 H -4.143429 6.756705 0.146972 0
M  V30 41 H 3.643374 -1.036062 -1.127520 0
M  V30 END ATOM
M  V30 BEGIN BOND
M  V30 1 1 1 2
M  V30 2 1 2 3
M  V30 3 1 2 4
M  V30 4 1 4 5
M  V30 5 1 4 6
M  V30 6 2 6 7
M  V30 7 1 7 8
M  V30 8 1 8 9
M  V30 9 3 9 10
M  V30 10 1 10 11
M  V30 11 2 11 12
M  V30 12 1 12 13
M  V30 13 1 13 14
M  V30 14 1 14 15
M  V30 15 2 14 16
M  V30 16 2 13 17
M  V30 17 1 17 18
M  V30 18 1 18 19
M  V30 19 1 19 20
M  V30 20 2 19 21
M  V30 21 1 17 22
M  V30 22 2 8 23
M  V30 23 1 23 24
M  V30 24 1 24 6
M  V30 25 1 22 11
M  V30 26 1 1 25
M  V30 27 1 1 26
M  V30 28 1 1 27
M  V30 29 1 2 28
M  V30 30 1 3 29
M  V30 31 1 3 30
M  V30 32 1 3 31
M  V30 33 1 4 32
M  V30 34 1 5 33
M  V30 35 1 7 34
M  V30 36 1 12 35
M  V30 37 1 15 36
M  V30 38 1 15 37
M  V30 39 1 18 38
M  V30 40 1 20 39
M  V30 41 1 20 40
M  V30 42 1 23 41
M  V30 END BOND
M  V30 END CTAB
M  END
>  <Dataset>  (809) 
ChEMBL_Kinases

>  <Ligand_Instance>  (809) 
nan

>  <PDB_ID>  (809) 
nan

>  <Standardized_SMILES>  (809) 
CC(C)C(O)c1cc(C#Cc2cc(C(N)=O)c(NC(N)=O)s2)cs1

>  <Name>  (809) 
nan

>  <Pocket>  (809) 
nan

>  <ATP_Site>  (809) 
nan

>  <Peripheral>  (809) 
nan

>  <Num_H_Atoms_ProtBoundConf>  (809) 
nan

>  <Num_Resolved_Atoms>  (809) 
nan

>  <Num_Not_Resolved_Atoms>  (809) 
nan

$$$$
CHEMBL197277
     RDKit          3D

  0  0  0  0  0  0  0  0  0  0999 V3000
M  V30 BEGIN CTAB
M  V30 COUNTS 59 62 0 0 0
M  V30 BEGIN ATOM
M  V30 1 O -1.383671 -2.042300 0.140981 0
M  V30 2 S -0.224742 -1.986715 -0.864021 0
M  V30 3 O -0.681834 -2.778680 -2.084978 0
M  V30 4 N 1.136155 -2.787753 -0.203068 0
M  V30 5 C 2.006259 -2.729638 0.903842 0
M  V30 6 C 2.738651 -1.667575 1.381687 0
M  V30 7 C 3.561979 -1.727642 2.478894 0
M  V30 8 C 3.646344 -2.953342 3.134471 0
M  V30 9 C 2.952546 -4.110300 2.747480 0
M  V30 10 O 3.246459 -5.117533 3.576897 0
M  V30 11 C 2.908010 -6.405486 3.704500 0
M  V30 12 C 2.107286 -7.331237 3.083794 0
M  V30 13 C 1.932268 -8.646025 3.431025 0
M  V30 14 C 2.638448 -9.080719 4.521699 0
M  V30 15 F 2.454857 -10.390113 4.855504 0
M  V30 16 C 3.471634 -8.243808 5.222485 0
M  V30 17 C 3.603718 -6.908876 4.811739 0
M  V30 18 C 2.177894 -3.892080 1.643788 0
M  V30 19 N 0.077453 -0.388826 -1.242825 0
M  V30 20 C 0.429456 0.537329 -0.264890 0
M  V30 21 C -0.537407 1.678824 -0.159435 0
M  V30 22 C -1.009343 2.183239 -1.491856 0
M  V30 23 N -0.798004 3.612208 -1.549212 0
M  V30 24 C -1.524990 4.371954 -0.579141 0
M  V30 25 C -3.003021 4.214117 -0.719272 0
M  V30 26 C -3.873663 3.466212 0.045010 0
M  V30 27 C -5.216478 3.463579 -0.268105 0
M  V30 28 C -5.734296 4.181159 -1.320270 0
M  V30 29 C -4.871590 4.920213 -2.074978 0
M  V30 30 C -3.505324 4.953539 -1.796219 0
M  V30 31 O -2.729641 5.749631 -2.645785 0
M  V30 32 C -0.345400 1.547995 -2.668056 0
M  V30 33 C -0.271545 0.036321 -2.538744 0
M  V30 34 H 1.487392 -3.603661 -0.802758 0
M  V30 35 H 2.665428 -0.748748 0.853640 0
M  V30 36 H 4.093851 -0.836595 2.773422 0
M  V30 37 H 4.326862 -2.878768 3.988278 0
M  V30 38 H 1.592773 -6.907702 2.242230 0
M  V30 39 H 1.256147 -9.211216 2.812808 0
M  V30 40 H 3.958072 -8.723894 6.051471 0
M  V30 41 H 4.309505 -6.418602 5.500006 0
M  V30 42 H 1.645656 -4.777149 1.345441 0
M  V30 43 H 0.415501 0.024424 0.744405 0
M  V30 44 H 1.471003 0.915528 -0.366948 0
M  V30 45 H 0.013512 2.491843 0.395566 0
M  V30 46 H -1.370819 1.373282 0.504401 0
M  V30 47 H -2.090321 1.922108 -1.555439 0
M  V30 48 H -0.753524 3.997824 -2.494698 0
M  V30 49 H -1.179438 4.129439 0.437808 0
M  V30 50 H -1.229810 5.435819 -0.746728 0
M  V30 51 H -3.391963 2.941030 0.838952 0
M  V30 52 H -5.863509 2.864252 0.356041 0
M  V30 53 H -6.789126 4.176022 -1.561906 0
M  V30 54 H -5.270278 5.491411 -2.909362 0
M  V30 55 H -3.076327 6.645788 -2.965638 0
M  V30 56 H 0.663051 1.949643 -2.877224 0
M  V30 57 H -0.959326 1.742586 -3.577243 0
M  V30 58 H 0.547698 -0.286813 -3.247114 0
M  V30 59 H -1.181607 -0.450458 -2.942806 0
M  V30 END ATOM
M  V30 BEGIN BOND
M  V30 1 2 1 2
M  V30 2 2 2 3
M  V30 3 1 2 4
M  V30 4 1 4 5
M  V30 5 2 5 6
M  V30 6 1 6 7
M  V30 7 2 7 8
M  V30 8 1 8 9
M  V30 9 1 9 10
M  V30 10 1 10 11
M  V30 11 2 11 12
M  V30 12 1 12 13
M  V30 13 2 13 14
M  V30 14 1 14 15
M  V30 15 1 14 16
M  V30 16 2 16 17
M  V30 17 2 9 18
M  V30 18 1 2 19
M  V30 19 1 19 20
M  V30 20 1 20 21
M  V30 21 1 21 22
M  V30 22 1 22 23
M  V30 23 1 23 24
M  V30 24 1 24 25
M  V30 25 2 25 26
M  V30 26 1 26 27
M  V30 27 2 27 28
M  V30 28 1 28 29
M  V30 29 2 29 30
M  V30 30 1 30 31
M  V30 31 1 22 32
M  V30 32 1 32 33
M  V30 33 1 18 5
M  V30 34 1 33 19
M  V30 35 1 17 11
M  V30 36 1 30 25
M  V30 37 1 4 34
M  V30 38 1 6 35
M  V30 39 1 7 36
M  V30 40 1 8 37
M  V30 41 1 12 38
M  V30 42 1 13 39
M  V30 43 1 16 40
M  V30 44 1 17 41
M  V30 45 1 18 42
M  V30 46 1 20 43
M  V30 47 1 20 44
M  V30 48 1 21 45
M  V30 49 1 21 46
M  V30 50 1 22 47
M  V30 51 1 23 48
M  V30 52 1 24 49
M  V30 53 1 24 50
M  V30 54 1 26 51
M  V30 55 1 27 52
M  V30 56 1 28 53
M  V30 57 1 29 54
M  V30 58 1 31 55
M  V30 59 1 32 56
M  V30 60 1 32 57
M  V30 61 1 33 58
M  V30 62 1 33 59
M  V30 END BOND
M  V30 END CTAB
M  END
>  <Dataset>  (810) 
ChEMBL_Kinases

>  <Ligand_Instance>  (810) 
nan

>  <PDB_ID>  (810) 
nan

>  <Standardized_SMILES>  (810) 
O=S(=O)(Nc1cccc(Oc2ccc(F)cc2)c1)N1CCC(NCc2ccccc2O)CC1

>  <Name>  (810) 
nan

>  <Pocket>  (810) 
nan

>  <ATP_Site>  (810) 
nan

>  <Peripheral>  (810) 
nan

>  <Num_H_Atoms_ProtBoundConf>  (810) 
nan

>  <Num_Resolved_Atoms>  (810) 
nan

>  <Num_Not_Resolved_Atoms>  (810) 
nan

$$$$
CHEMBL1972735
     RDKit          3D

  0  0  0  0  0  0  0  0  0  0999 V3000
M  V30 BEGIN CTAB
M  V30 COUNTS 33 34 0 0 0
M  V30 BEGIN ATOM
M  V30 1 C -1.992950 -2.646706 2.997348 0
M  V30 2 C -2.325762 -2.282419 1.591949 0
M  V30 3 N -1.595329 -1.096672 1.126271 0
M  V30 4 C -0.384154 -1.336303 0.543083 0
M  V30 5 N 0.249080 -2.393552 0.317135 0
M  V30 6 C 1.516169 -2.297038 -0.321957 0
M  V30 7 O 2.288712 -2.297202 0.692862 0
M  V30 8 C 1.771534 -2.221567 -1.784935 0
M  V30 9 S 3.560484 -2.119608 -2.041880 0
M  V30 10 C 4.234047 -0.600539 -1.415032 0
M  V30 11 C 5.692940 -0.334866 -1.533261 0
M  V30 12 O 3.516391 0.230153 -0.887748 0
M  V30 13 S 0.239794 0.331072 0.086076 0
M  V30 14 C -1.219999 1.179822 0.739982 0
M  V30 15 C -1.514988 2.526648 0.770760 0
M  V30 16 C -2.702519 2.942382 1.328322 0
M  V30 17 C -3.494223 1.930290 1.811741 0
M  V30 18 C -3.214149 0.584796 1.788238 0
M  V30 19 C -2.027327 0.164988 1.231509 0
M  V30 20 H -1.554456 -3.671387 3.084328 0
M  V30 21 H -1.250721 -1.906893 3.406322 0
M  V30 22 H -2.921097 -2.621105 3.615334 0
M  V30 23 H -2.145233 -3.124231 0.912066 0
M  V30 24 H -3.406077 -2.033023 1.488467 0
M  V30 25 H 1.293149 -1.324936 -2.235846 0
M  V30 26 H 1.436457 -3.149767 -2.308696 0
M  V30 27 H 6.056321 -0.903790 -2.408733 0
M  V30 28 H 5.785720 0.766356 -1.745328 0
M  V30 29 H 6.207209 -0.626574 -0.610344 0
M  V30 30 H -0.794746 3.185215 0.353740 0
M  V30 31 H -2.961972 3.985499 1.367602 0
M  V30 32 H -4.445826 2.253221 2.259733 0
M  V30 33 H -3.955498 -0.074338 2.215999 0
M  V30 END ATOM
M  V30 BEGIN BOND
M  V30 1 1 1 2
M  V30 2 1 2 3
M  V30 3 1 3 4
M  V30 4 2 4 5
M  V30 5 1 5 6
M  V30 6 2 6 7
M  V30 7 1 6 8
M  V30 8 1 8 9
M  V30 9 1 9 10
M  V30 10 1 10 11
M  V30 11 2 10 12
M  V30 12 1 4 13
M  V30 13 1 13 14
M  V30 14 2 14 15
M  V30 15 1 15 16
M  V30 16 2 16 17
M  V30 17 1 17 18
M  V30 18 2 18 19
M  V30 19 1 19 3
M  V30 20 1 19 14
M  V30 21 1 1 20
M  V30 22 1 1 21
M  V30 23 1 1 22
M  V30 24 1 2 23
M  V30 25 1 2 24
M  V30 26 1 8 25
M  V30 27 1 8 26
M  V30 28 1 11 27
M  V30 29 1 11 28
M  V30 30 1 11 29
M  V30 31 1 15 30
M  V30 32 1 16 31
M  V30 33 1 17 32
M  V30 34 1 18 33
M  V30 END BOND
M  V30 END CTAB
M  END
>  <Dataset>  (811) 
ChEMBL_Kinases

>  <Ligand_Instance>  (811) 
nan

>  <PDB_ID>  (811) 
nan

>  <Standardized_SMILES>  (811) 
CCn1/c(=N/C(=O)CSC(C)=O)sc2ccccc21

>  <Name>  (811) 
nan

>  <Pocket>  (811) 
nan

>  <ATP_Site>  (811) 
nan

>  <Peripheral>  (811) 
nan

>  <Num_H_Atoms_ProtBoundConf>  (811) 
nan

>  <Num_Resolved_Atoms>  (811) 
nan

>  <Num_Not_Resolved_Atoms>  (811) 
nan

$$$$
CHEMBL197252
     RDKit          3D

  0  0  0  0  0  0  0  0  0  0999 V3000
M  V30 BEGIN CTAB
M  V30 COUNTS 44 46 0 0 0
M  V30 BEGIN ATOM
M  V30 1 N 2.362848 -9.201009 2.508909 0
M  V30 2 C 2.014238 -7.832326 2.243229 0
M  V30 3 O 2.322230 -7.905104 3.457867 0
M  V30 4 N 1.619468 -7.452806 0.933051 0
M  V30 5 C 1.317551 -6.080211 0.862612 0
M  V30 6 S 2.518253 -4.675054 0.457672 0
M  V30 7 C 1.336934 -3.464863 0.598840 0
M  V30 8 C 1.616043 -1.993961 0.390762 0
M  V30 9 C 1.829554 -0.817740 0.240103 0
M  V30 10 C 2.076376 0.586600 0.067786 0
M  V30 11 C 3.295156 0.970006 -0.477960 0
M  V30 12 C 3.588912 2.308407 -0.668198 0
M  V30 13 C 2.647253 3.247490 -0.304598 0
M  V30 14 C 1.413999 2.893336 0.246084 0
M  V30 15 N 0.493505 3.921711 0.596711 0
M  V30 16 C -0.489541 4.446380 -0.286585 0
M  V30 17 O -0.526419 3.954500 -1.441112 0
M  V30 18 C -1.434028 5.498925 0.066617 0
M  V30 19 C -2.323934 5.891849 -0.910888 0
M  V30 20 C -3.224402 6.886174 -0.594766 0
M  V30 21 N -3.254361 7.461669 0.602147 0
M  V30 22 C -2.386361 7.075510 1.549396 0
M  V30 23 C -1.436498 6.074198 1.319927 0
M  V30 24 C 1.149641 1.549162 0.423750 0
M  V30 25 C 0.196503 -4.017965 0.905919 0
M  V30 26 C 0.180486 -5.382324 1.044771 0
M  V30 27 C -1.049243 -6.133949 1.390902 0
M  V30 28 N -2.307810 -5.507797 1.606803 0
M  V30 29 O -1.032318 -7.381810 1.510904 0
M  V30 30 H 2.305276 -10.258580 2.415797 0
M  V30 31 H 2.266334 -10.245432 2.380963 0
M  V30 32 H 1.601504 -8.204662 0.214326 0
M  V30 33 H 4.008605 0.188605 -0.750004 0
M  V30 34 H 4.548057 2.585511 -1.096656 0
M  V30 35 H 2.888567 4.295243 -0.458603 0
M  V30 36 H 0.556851 4.303557 1.564555 0
M  V30 37 H -2.342597 5.450701 -1.914584 0
M  V30 38 H -3.948164 7.243110 -1.308502 0
M  V30 39 H -2.423305 7.553365 2.518047 0
M  V30 40 H -0.743459 5.773871 2.093306 0
M  V30 41 H 0.198553 1.268175 0.848390 0
M  V30 42 H -0.701483 -3.392139 1.042456 0
M  V30 43 H -2.581771 -5.096620 2.546092 0
M  V30 44 H -2.749120 -5.054523 2.441348 0
M  V30 END ATOM
M  V30 BEGIN BOND
M  V30 1 1 1 2
M  V30 2 2 2 3
M  V30 3 1 2 4
M  V30 4 1 4 5
M  V30 5 1 5 6
M  V30 6 1 6 7
M  V30 7 1 7 8
M  V30 8 3 8 9
M  V30 9 1 9 10
M  V30 10 2 10 11
M  V30 11 1 11 12
M  V30 12 2 12 13
M  V30 13 1 13 14
M  V30 14 1 14 15
M  V30 15 1 15 16
M  V30 16 2 16 17
M  V30 17 1 16 18
M  V30 18 2 18 19
M  V30 19 1 19 20
M  V30 20 2 20 21
M  V30 21 1 21 22
M  V30 22 2 22 23
M  V30 23 2 14 24
M  V30 24 2 7 25
M  V30 25 1 25 26
M  V30 26 1 26 27
M  V30 27 1 27 28
M  V30 28 2 27 29
M  V30 29 2 26 5
M  V30 30 1 24 10
M  V30 31 1 23 18
M  V30 32 1 1 30
M  V30 33 1 1 31
M  V30 34 1 4 32
M  V30 35 1 11 33
M  V30 36 1 12 34
M  V30 37 1 13 35
M  V30 38 1 15 36
M  V30 39 1 19 37
M  V30 40 1 20 38
M  V30 41 1 22 39
M  V30 42 1 23 40
M  V30 43 1 24 41
M  V30 44 1 25 42
M  V30 45 1 28 43
M  V30 46 1 28 44
M  V30 END BOND
M  V30 END CTAB
M  END
>  <Dataset>  (812) 
ChEMBL_Kinases

>  <Ligand_Instance>  (812) 
nan

>  <PDB_ID>  (812) 
nan

>  <Standardized_SMILES>  (812) 
NC(=O)Nc1sc(C#Cc2cccc(NC(=O)c3ccncc3)c2)cc1C(N)=O

>  <Name>  (812) 
nan

>  <Pocket>  (812) 
nan

>  <ATP_Site>  (812) 
nan

>  <Peripheral>  (812) 
nan

>  <Num_H_Atoms_ProtBoundConf>  (812) 
nan

>  <Num_Resolved_Atoms>  (812) 
nan

>  <Num_Not_Resolved_Atoms>  (812) 
nan

$$$$
CHEMBL197228
     RDKit          3D

  0  0  0  0  0  0  0  0  0  0999 V3000
M  V30 BEGIN CTAB
M  V30 COUNTS 47 50 0 0 0
M  V30 BEGIN ATOM
M  V30 1 O 1.386376 -1.083178 5.448659 0
M  V30 2 C 0.588418 -1.447522 4.580413 0
M  V30 3 N 1.538006 -1.575200 3.451032 0
M  V30 4 C 2.474420 -1.698565 2.346315 0
M  V30 5 C 2.505893 -0.547047 1.465769 0
M  V30 6 C 1.281554 0.132263 1.443230 0
M  V30 7 C 0.876586 1.197452 0.619393 0
M  V30 8 C 1.849173 1.587635 -0.269350 0
M  V30 9 C 3.098748 0.969058 -0.316638 0
M  V30 10 C 3.406765 -0.080258 0.547342 0
M  V30 11 C 3.862950 1.598512 -1.401342 0
M  V30 12 C 3.246888 2.992506 -1.477910 0
M  V30 13 C 1.765336 2.673180 -1.295513 0
M  V30 14 C -0.777207 -1.818495 4.040732 0
M  V30 15 C -1.394783 -0.657563 3.663597 0
M  V30 16 C -2.524387 -0.863417 2.838877 0
M  V30 17 C -2.872144 -2.168877 2.513828 0
M  V30 18 O -4.008989 -1.951083 1.652669 0
M  V30 19 C -3.569975 -1.602458 0.323898 0
M  V30 20 C -2.316046 -2.155600 0.013589 0
M  V30 21 C -1.619656 -1.986898 -1.203366 0
M  V30 22 C -2.224039 -1.212788 -2.168930 0
M  V30 23 C -3.456041 -0.674724 -1.860347 0
M  V30 24 C -4.121090 -0.841021 -0.684859 0
M  V30 25 C -2.195126 -3.275084 2.950221 0
M  V30 26 C -1.095408 -3.109472 3.752723 0
M  V30 27 H 0.875417 -1.878665 2.628652 0
M  V30 28 H 3.531698 -1.841080 2.815125 0
M  V30 29 H 2.349819 -2.632956 1.808109 0
M  V30 30 H 0.467038 -0.082819 2.093875 0
M  V30 31 H -0.094675 1.665679 0.676518 0
M  V30 32 H 4.291481 -0.646808 0.642193 0
M  V30 33 H 4.938371 1.582444 -1.301564 0
M  V30 34 H 3.484534 1.079766 -2.356080 0
M  V30 35 H 3.383282 3.439484 -2.464948 0
M  V30 36 H 3.522903 3.639782 -0.640790 0
M  V30 37 H 1.214219 3.535421 -0.868950 0
M  V30 38 H 1.310209 2.296336 -2.231304 0
M  V30 39 H -1.077374 0.356469 3.938132 0
M  V30 40 H -3.004910 0.083050 2.538309 0
M  V30 41 H -1.679881 -2.805002 0.648824 0
M  V30 42 H -0.658156 -2.401937 -1.428876 0
M  V30 43 H -1.717266 -1.060361 -3.100141 0
M  V30 44 H -3.957824 -0.066983 -2.588853 0
M  V30 45 H -5.064020 -0.470717 -0.348045 0
M  V30 46 H -2.654136 -4.167152 2.595052 0
M  V30 47 H -0.576861 -3.969575 4.092325 0
M  V30 END ATOM
M  V30 BEGIN BOND
M  V30 1 2 1 2
M  V30 2 1 2 3
M  V30 3 1 3 4
M  V30 4 1 4 5
M  V30 5 2 5 6
M  V30 6 1 6 7
M  V30 7 2 7 8
M  V30 8 1 8 9
M  V30 9 2 9 10
M  V30 10 1 9 11
M  V30 11 1 11 12
M  V30 12 1 12 13
M  V30 13 1 2 14
M  V30 14 2 14 15
M  V30 15 1 15 16
M  V30 16 2 16 17
M  V30 17 1 17 18
M  V30 18 1 18 19
M  V30 19 2 19 20
M  V30 20 1 20 21
M  V30 21 2 21 22
M  V30 22 1 22 23
M  V30 23 2 23 24
M  V30 24 1 17 25
M  V30 25 2 25 26
M  V30 26 1 10 5
M  V30 27 1 26 14
M  V30 28 1 13 8
M  V30 29 1 24 19
M  V30 30 1 3 27
M  V30 31 1 4 28
M  V30 32 1 4 29
M  V30 33 1 6 30
M  V30 34 1 7 31
M  V30 35 1 10 32
M  V30 36 1 11 33
M  V30 37 1 11 34
M  V30 38 1 12 35
M  V30 39 1 12 36
M  V30 40 1 13 37
M  V30 41 1 13 38
M  V30 42 1 15 39
M  V30 43 1 16 40
M  V30 44 1 20 41
M  V30 45 1 21 42
M  V30 46 1 22 43
M  V30 47 1 23 44
M  V30 48 1 24 45
M  V30 49 1 25 46
M  V30 50 1 26 47
M  V30 END BOND
M  V30 END CTAB
M  END
>  <Dataset>  (813) 
ChEMBL_Kinases

>  <Ligand_Instance>  (813) 
nan

>  <PDB_ID>  (813) 
nan

>  <Standardized_SMILES>  (813) 
O=C(NCc1ccc2c(c1)CCC2)c1ccc(Oc2ccccc2)cc1

>  <Name>  (813) 
nan

>  <Pocket>  (813) 
nan

>  <ATP_Site>  (813) 
nan

>  <Peripheral>  (813) 
nan

>  <Num_H_Atoms_ProtBoundConf>  (813) 
nan

>  <Num_Resolved_Atoms>  (813) 
nan

>  <Num_Not_Resolved_Atoms>  (813) 
nan

$$$$
CHEMBL197226
     RDKit          3D

  0  0  0  0  0  0  0  0  0  0999 V3000
M  V30 BEGIN CTAB
M  V30 COUNTS 52 56 0 0 0
M  V30 BEGIN ATOM
M  V30 1 N 2.176636 -1.649022 4.223504 0
M  V30 2 C 2.900481 -2.170782 3.101274 0
M  V30 3 N 3.038575 -3.376558 2.679672 0
M  V30 4 O 3.805707 -3.490625 1.571776 0
M  V30 5 N 4.156159 -2.241090 1.162783 0
M  V30 6 C 3.685266 -1.324662 2.152721 0
M  V30 7 N 2.887715 -0.279458 1.565911 0
M  V30 8 N 3.390915 1.020010 1.717868 0
M  V30 9 N 2.879405 1.867345 0.951777 0
M  V30 10 C 1.892839 1.235006 0.114200 0
M  V30 11 C 0.599220 1.988978 0.122610 0
M  V30 12 N 0.341889 3.304573 0.025594 0
M  V30 13 N -0.974638 3.497483 0.086541 0
M  V30 14 C -1.604334 2.311927 0.224587 0
M  V30 15 C -3.018650 1.964940 0.338626 0
M  V30 16 C -3.457610 0.645986 0.471270 0
M  V30 17 C -4.817451 0.435018 0.571550 0
M  V30 18 N -5.768782 1.395598 0.552832 0
M  V30 19 C -5.341093 2.665364 0.425210 0
M  V30 20 C -3.993536 2.951470 0.319788 0
M  V30 21 N -0.618385 1.391118 0.244945 0
M  V30 22 C 1.674669 -0.108238 0.830650 0
M  V30 23 C 1.328447 -1.130563 -0.184168 0
M  V30 24 N 1.145045 -2.469338 0.288812 0
M  V30 25 C -0.009691 -2.672877 1.107140 0
M  V30 26 C -1.152097 -3.340718 0.407621 0
M  V30 27 C -1.350204 -2.884918 -1.004473 0
M  V30 28 C -0.065686 -2.977431 -1.760209 0
M  V30 29 C 1.093261 -3.339924 -0.876829 0
M  V30 30 H 1.283066 -1.995184 4.635006 0
M  V30 31 H 2.561241 -0.801207 4.734954 0
M  V30 32 H 3.865266 -2.069164 0.202015 0
M  V30 33 H 4.596476 -0.955448 2.691564 0
M  V30 34 H 2.259639 1.087464 -0.916486 0
M  V30 35 H -1.501968 4.408800 0.040119 0
M  V30 36 H -2.740663 -0.157103 0.490801 0
M  V30 37 H -5.157471 -0.595138 0.675136 0
M  V30 38 H -6.085869 3.448743 0.408332 0
M  V30 39 H -3.727712 3.994430 0.220478 0
M  V30 40 H 0.846348 0.023721 1.587145 0
M  V30 41 H 2.049488 -1.171642 -1.033850 0
M  V30 42 H 0.359570 -0.829595 -0.686978 0
M  V30 43 H -0.394028 -1.745786 1.595037 0
M  V30 44 H 0.311646 -3.381948 1.925422 0
M  V30 45 H -2.089092 -3.092677 0.964176 0
M  V30 46 H -1.092775 -4.458302 0.433685 0
M  V30 47 H -2.129255 -3.562712 -1.455189 0
M  V30 48 H -1.813926 -1.865968 -1.052169 0
M  V30 49 H -0.149222 -3.767427 -2.541736 0
M  V30 50 H 0.189448 -2.045299 -2.315572 0
M  V30 51 H 1.054754 -4.411071 -0.605713 0
M  V30 52 H 2.045310 -3.172641 -1.446073 0
M  V30 END ATOM
M  V30 BEGIN BOND
M  V30 1 1 1 2
M  V30 2 2 2 3
M  V30 3 1 3 4
M  V30 4 1 4 5
M  V30 5 1 5 6
M  V30 6 1 6 7
M  V30 7 1 7 8
M  V30 8 2 8 9
M  V30 9 1 9 10
M  V30 10 1 10 11
M  V30 11 2 11 12
M  V30 12 1 12 13
M  V30 13 1 13 14
M  V30 14 1 14 15
M  V30 15 2 15 16
M  V30 16 1 16 17
M  V30 17 2 17 18
M  V30 18 1 18 19
M  V30 19 2 19 20
M  V30 20 2 14 21
M  V30 21 1 10 22
M  V30 22 1 22 23
M  V30 23 1 23 24
M  V30 24 1 24 25
M  V30 25 1 25 26
M  V30 26 1 26 27
M  V30 27 1 27 28
M  V30 28 1 28 29
M  V30 29 1 6 2
M  V30 30 1 22 7
M  V30 31 1 29 24
M  V30 32 1 21 11
M  V30 33 1 20 15
M  V30 34 1 1 30
M  V30 35 1 1 31
M  V30 36 1 5 32
M  V30 37 1 6 33
M  V30 38 1 10 34
M  V30 39 1 13 35
M  V30 40 1 16 36
M  V30 41 1 17 37
M  V30 42 1 19 38
M  V30 43 1 20 39
M  V30 44 1 22 40
M  V30 45 1 23 41
M  V30 46 1 23 42
M  V30 47 1 25 43
M  V30 48 1 25 44
M  V30 49 1 26 45
M  V30 50 1 26 46
M  V30 51 1 27 47
M  V30 52 1 27 48
M  V30 53 1 28 49
M  V30 54 1 28 50
M  V30 55 1 29 51
M  V30 56 1 29 52
M  V30 END BOND
M  V30 END CTAB
M  END
>  <Dataset>  (814) 
ChEMBL_Kinases

>  <Ligand_Instance>  (814) 
nan

>  <PDB_ID>  (814) 
nan

>  <Standardized_SMILES>  (814) 
NC1=NONC1N1N=NC(c2n[nH]c(-c3ccncc3)n2)C1CN1CCCCC1

>  <Name>  (814) 
nan

>  <Pocket>  (814) 
nan

>  <ATP_Site>  (814) 
nan

>  <Peripheral>  (814) 
nan

>  <Num_H_Atoms_ProtBoundConf>  (814) 
nan

>  <Num_Resolved_Atoms>  (814) 
nan

>  <Num_Not_Resolved_Atoms>  (814) 
nan

$$$$
CHEMBL197207
     RDKit          3D

  0  0  0  0  0  0  0  0  0  0999 V3000
M  V30 BEGIN CTAB
M  V30 COUNTS 46 47 0 0 0
M  V30 BEGIN ATOM
M  V30 1 C 5.128379 -2.592278 5.329022 0
M  V30 2 N 4.705566 -3.361440 4.186204 0
M  V30 3 C 3.364551 -3.846412 4.295064 0
M  V30 4 C 4.989991 -2.711452 2.945062 0
M  V30 5 C 4.167641 -1.496681 2.777660 0
M  V30 6 O 4.503485 -1.014125 1.650562 0
M  V30 7 N 3.176689 -0.815084 3.532113 0
M  V30 8 C 2.690613 0.353798 2.881315 0
M  V30 9 C 3.251055 1.603688 3.050494 0
M  V30 10 C 2.744383 2.708038 2.395652 0
M  V30 11 C 1.657508 2.537517 1.561389 0
M  V30 12 C 1.088246 1.292821 1.383985 0
M  V30 13 C -0.042531 1.050948 0.529098 0
M  V30 14 C -0.980119 0.856213 -0.196714 0
M  V30 15 C -2.165131 0.622687 -1.124971 0
M  V30 16 C -2.089697 0.184778 -2.343328 0
M  V30 17 C -3.219673 0.010268 -3.090895 0
M  V30 18 C -3.340279 -0.466419 -4.462165 0
M  V30 19 N -2.187118 -0.825099 -5.211194 0
M  V30 20 O -4.446050 -0.579469 -5.032259 0
M  V30 21 C -4.405673 0.321863 -2.479106 0
M  V30 22 N -5.847570 0.353902 -2.716796 0
M  V30 23 C -6.774576 0.768179 -1.750400 0
M  V30 24 N -8.144725 0.747801 -2.120651 0
M  V30 25 O -6.393152 1.141103 -0.603309 0
M  V30 26 S -3.804045 0.880461 -0.767461 0
M  V30 27 C 1.592424 0.188870 2.036695 0
M  V30 28 H 5.515812 -1.611558 5.037754 0
M  V30 29 H 4.285347 -2.544847 6.059805 0
M  V30 30 H 5.994598 -3.145562 5.774539 0
M  V30 31 H 3.440387 -4.967915 4.347700 0
M  V30 32 H 2.976352 -3.559599 5.303794 0
M  V30 33 H 2.671502 -3.519498 3.515796 0
M  V30 34 H 6.071850 -2.463522 2.937210 0
M  V30 35 H 4.749730 -3.429657 2.107350 0
M  V30 36 H 3.024289 -1.339468 4.421261 0
M  V30 37 H 4.104251 1.705056 3.712472 0
M  V30 38 H 3.223267 3.649411 2.568951 0
M  V30 39 H 1.238936 3.397303 1.032384 0
M  V30 40 H -1.134403 -0.061735 -2.823748 0
M  V30 41 H -2.041430 -1.878130 -5.252660 0
M  V30 42 H -2.040308 -1.852505 -5.254759 0
M  V30 43 H -6.151302 0.054148 -3.637831 0
M  V30 44 H -8.710874 1.537528 -2.500866 0
M  V30 45 H -8.705813 -0.127226 -2.025392 0
M  V30 46 H 1.155914 -0.803169 1.909076 0
M  V30 END ATOM
M  V30 BEGIN BOND
M  V30 1 1 1 2
M  V30 2 1 2 3
M  V30 3 1 2 4
M  V30 4 1 4 5
M  V30 5 2 5 6
M  V30 6 1 5 7
M  V30 7 1 7 8
M  V30 8 2 8 9
M  V30 9 1 9 10
M  V30 10 2 10 11
M  V30 11 1 11 12
M  V30 12 1 12 13
M  V30 13 3 13 14
M  V30 14 1 14 15
M  V30 15 2 15 16
M  V30 16 1 16 17
M  V30 17 1 17 18
M  V30 18 1 18 19
M  V30 19 2 18 20
M  V30 20 2 17 21
M  V30 21 1 21 22
M  V30 22 1 22 23
M  V30 23 1 23 24
M  V30 24 2 23 25
M  V30 25 1 21 26
M  V30 26 2 12 27
M  V30 27 1 27 8
M  V30 28 1 26 15
M  V30 29 1 1 28
M  V30 30 1 1 29
M  V30 31 1 1 30
M  V30 32 1 3 31
M  V30 33 1 3 32
M  V30 34 1 3 33
M  V30 35 1 4 34
M  V30 36 1 4 35
M  V30 37 1 7 36
M  V30 38 1 9 37
M  V30 39 1 10 38
M  V30 40 1 11 39
M  V30 41 1 16 40
M  V30 42 1 19 41
M  V30 43 1 19 42
M  V30 44 1 22 43
M  V30 45 1 24 44
M  V30 46 1 24 45
M  V30 47 1 27 46
M  V30 END BOND
M  V30 END CTAB
M  END
>  <Dataset>  (815) 
ChEMBL_Kinases

>  <Ligand_Instance>  (815) 
nan

>  <PDB_ID>  (815) 
nan

>  <Standardized_SMILES>  (815) 
CN(C)CC(=O)Nc1cccc(C#Cc2cc(C(N)=O)c(NC(N)=O)s2)c1

>  <Name>  (815) 
nan

>  <Pocket>  (815) 
nan

>  <ATP_Site>  (815) 
nan

>  <Peripheral>  (815) 
nan

>  <Num_H_Atoms_ProtBoundConf>  (815) 
nan

>  <Num_Resolved_Atoms>  (815) 
nan

>  <Num_Not_Resolved_Atoms>  (815) 
nan

$$$$
CHEMBL1967081
     RDKit          3D

  0  0  0  0  0  0  0  0  0  0999 V3000
M  V30 BEGIN CTAB
M  V30 COUNTS 50 53 0 0 0
M  V30 BEGIN ATOM
M  V30 1 C 1.353903 -5.377979 2.888370 0
M  V30 2 O 1.605139 -4.327056 1.987952 0
M  V30 3 C 2.656341 -3.456473 2.192305 0
M  V30 4 C 3.608667 -3.387865 3.184231 0
M  V30 5 C 4.583867 -2.420470 3.193836 0
M  V30 6 C 4.669906 -1.457717 2.211157 0
M  V30 7 C 3.716464 -1.525066 1.216848 0
M  V30 8 C 3.776788 -0.504774 0.146886 0
M  V30 9 N 2.900651 -0.527915 -0.806919 0
M  V30 10 N 2.892804 0.412808 -1.864305 0
M  V30 11 C 1.465440 0.369262 -2.069292 0
M  V30 12 C 0.611387 1.172996 -1.328049 0
M  V30 13 C -0.773379 1.143181 -1.520618 0
M  V30 14 N -1.445561 2.043367 -0.648441 0
M  V30 15 N -1.400700 3.376217 -0.498250 0
M  V30 16 C -2.259074 3.718227 0.499942 0
M  V30 17 C -2.547539 5.079435 1.022384 0
M  V30 18 C -2.886592 2.582214 1.022043 0
M  V30 19 C -2.325584 1.557196 0.249424 0
M  V30 20 C -2.724745 0.152327 0.479949 0
M  V30 21 C -4.056685 -0.159933 0.647198 0
M  V30 22 C -4.570604 -1.420615 0.864632 0
M  V30 23 C -3.644692 -2.463679 0.916992 0
M  V30 24 C -2.293440 -2.188707 0.752889 0
M  V30 25 C -1.829689 -0.906398 0.537658 0
M  V30 26 N -1.275932 0.310100 -2.451355 0
M  V30 27 C -0.448161 -0.466449 -3.167201 0
M  V30 28 N 0.901009 -0.450490 -2.992830 0
M  V30 29 C 2.712319 -2.493515 1.175704 0
M  V30 30 O 1.822144 -2.424544 0.099661 0
M  V30 31 H 2.287494 -5.666431 3.403943 0
M  V30 32 H 0.911829 -6.270443 2.368051 0
M  V30 33 H 0.558280 -5.062464 3.624816 0
M  V30 34 H 3.501818 -4.153208 3.924642 0
M  V30 35 H 5.296346 -2.430728 4.006230 0
M  V30 36 H 5.427456 -0.687476 2.198848 0
M  V30 37 H 4.523561 0.253156 0.135812 0
M  V30 38 H 3.569295 1.003387 -2.407110 0
M  V30 39 H 1.126882 1.810468 -0.600196 0
M  V30 40 H -2.214888 5.086259 2.097996 0
M  V30 41 H -2.057208 5.861727 0.425537 0
M  V30 42 H -3.641448 5.232067 1.058610 0
M  V30 43 H -3.604375 2.487645 1.800304 0
M  V30 44 H -4.779857 0.628429 0.610194 0
M  V30 45 H -5.633319 -1.601948 0.988842 0
M  V30 46 H -3.997371 -3.484284 1.087121 0
M  V30 47 H -1.575363 -3.022231 0.796853 0
M  V30 48 H -0.778559 -0.685384 0.409825 0
M  V30 49 H -0.919065 -1.116716 -3.903090 0
M  V30 50 H 2.105563 -2.780946 -0.800766 0
M  V30 END ATOM
M  V30 BEGIN BOND
M  V30 1 1 1 2
M  V30 2 1 2 3
M  V30 3 2 3 4
M  V30 4 1 4 5
M  V30 5 2 5 6
M  V30 6 1 6 7
M  V30 7 1 7 8
M  V30 8 2 8 9
M  V30 9 1 9 10
M  V30 10 1 10 11
M  V30 11 2 11 12
M  V30 12 1 12 13
M  V30 13 1 13 14
M  V30 14 1 14 15
M  V30 15 2 15 16
M  V30 16 1 16 17
M  V30 17 1 16 18
M  V30 18 2 18 19
M  V30 19 1 19 20
M  V30 20 2 20 21
M  V30 21 1 21 22
M  V30 22 2 22 23
M  V30 23 1 23 24
M  V30 24 2 24 25
M  V30 25 2 13 26
M  V30 26 1 26 27
M  V30 27 2 27 28
M  V30 28 2 7 29
M  V30 29 1 29 30
M  V30 30 1 29 3
M  V30 31 1 28 11
M  V30 32 1 19 14
M  V30 33 1 25 20
M  V30 34 1 1 31
M  V30 35 1 1 32
M  V30 36 1 1 33
M  V30 37 1 4 34
M  V30 38 1 5 35
M  V30 39 1 6 36
M  V30 40 1 8 37
M  V30 41 1 10 38
M  V30 42 1 12 39
M  V30 43 1 17 40
M  V30 44 1 17 41
M  V30 45 1 17 42
M  V30 46 1 18 43
M  V30 47 1 21 44
M  V30 48 1 22 45
M  V30 49 1 23 46
M  V30 50 1 24 47
M  V30 51 1 25 48
M  V30 52 1 27 49
M  V30 53 1 30 50
M  V30 END BOND
M  V30 END CTAB
M  END
>  <Dataset>  (816) 
ChEMBL_Kinases

>  <Ligand_Instance>  (816) 
nan

>  <PDB_ID>  (816) 
nan

>  <Standardized_SMILES>  (816) 
COc1cccc(/C=N/Nc2cc(-n3nc(C)cc3-c3ccccc3)ncn2)c1O

>  <Name>  (816) 
nan

>  <Pocket>  (816) 
nan

>  <ATP_Site>  (816) 
nan

>  <Peripheral>  (816) 
nan

>  <Num_H_Atoms_ProtBoundConf>  (816) 
nan

>  <Num_Resolved_Atoms>  (816) 
nan

>  <Num_Not_Resolved_Atoms>  (816) 
nan

$$$$
CHEMBL1967252
     RDKit          3D

  0  0  0  0  0  0  0  0  0  0999 V3000
M  V30 BEGIN CTAB
M  V30 COUNTS 27 29 0 0 0
M  V30 BEGIN ATOM
M  V30 1 C -1.525445 -2.128148 3.656712 0
M  V30 2 C -0.073456 -1.873230 3.459297 0
M  V30 3 N 0.957326 -2.150137 4.262913 0
M  V30 4 N 2.115376 -1.775644 3.753293 0
M  V30 5 C 1.813712 -1.221221 2.542846 0
M  V30 6 C 2.580507 -0.652296 1.544756 0
M  V30 7 C 2.044057 -0.145012 0.379054 0
M  V30 8 C 0.679908 -0.196166 0.176105 0
M  V30 9 C -0.016911 0.304579 -1.012161 0
M  V30 10 C 0.621498 0.259986 -2.250195 0
M  V30 11 C 0.001354 0.720644 -3.393326 0
M  V30 12 C -1.276217 1.216010 -3.198700 0
M  V30 13 N -1.899764 1.263649 -2.011995 0
M  V30 14 C -1.305909 0.813776 -0.868354 0
M  V30 15 C -0.098890 -0.763661 1.168536 0
M  V30 16 C 0.446923 -1.268705 2.331606 0
M  V30 17 H -1.816832 -2.119735 4.732285 0
M  V30 18 H -2.122811 -1.358689 3.088363 0
M  V30 19 H -1.840338 -3.122280 3.276104 0
M  V30 20 H 3.084956 -1.852436 4.131456 0
M  V30 21 H 3.656829 -0.613330 1.708288 0
M  V30 22 H 2.646260 0.304497 -0.410331 0
M  V30 23 H 1.619189 -0.137731 -2.341797 0
M  V30 24 H 0.430776 0.717973 -4.379651 0
M  V30 25 H -1.877535 1.610849 -4.016529 0
M  V30 26 H -1.828908 0.866137 0.057126 0
M  V30 27 H -1.169994 -0.844042 1.092535 0
M  V30 END ATOM
M  V30 BEGIN BOND
M  V30 1 1 1 2
M  V30 2 2 2 3
M  V30 3 1 3 4
M  V30 4 1 4 5
M  V30 5 2 5 6
M  V30 6 1 6 7
M  V30 7 2 7 8
M  V30 8 1 8 9
M  V30 9 2 9 10
M  V30 10 1 10 11
M  V30 11 2 11 12
M  V30 12 1 12 13
M  V30 13 2 13 14
M  V30 14 1 8 15
M  V30 15 2 15 16
M  V30 16 1 16 2
M  V30 17 1 16 5
M  V30 18 1 14 9
M  V30 19 1 1 17
M  V30 20 1 1 18
M  V30 21 1 1 19
M  V30 22 1 4 20
M  V30 23 1 6 21
M  V30 24 1 7 22
M  V30 25 1 10 23
M  V30 26 1 11 24
M  V30 27 1 12 25
M  V30 28 1 14 26
M  V30 29 1 15 27
M  V30 END BOND
M  V30 END CTAB
M  END
>  <Dataset>  (817) 
ChEMBL_Kinases

>  <Ligand_Instance>  (817) 
nan

>  <PDB_ID>  (817) 
nan

>  <Standardized_SMILES>  (817) 
Cc1n[nH]c2ccc(-c3cccnc3)cc12

>  <Name>  (817) 
nan

>  <Pocket>  (817) 
nan

>  <ATP_Site>  (817) 
nan

>  <Peripheral>  (817) 
nan

>  <Num_H_Atoms_ProtBoundConf>  (817) 
nan

>  <Num_Resolved_Atoms>  (817) 
nan

>  <Num_Not_Resolved_Atoms>  (817) 
nan

$$$$
CHEMBL1967431
     RDKit          3D

  0  0  0  0  0  0  0  0  0  0999 V3000
M  V30 BEGIN CTAB
M  V30 COUNTS 32 33 0 0 0
M  V30 BEGIN ATOM
M  V30 1 C -0.775286 -1.497071 1.513146 0
M  V30 2 C -0.463492 -1.709211 0.049247 0
M  V30 3 N 0.906812 -2.070799 -0.227009 0
M  V30 4 C 1.301504 -3.325055 -0.202209 0
M  V30 5 C 0.371787 -4.463972 0.132508 0
M  V30 6 C 2.655526 -3.654180 -0.493624 0
M  V30 7 S 3.394097 -1.978150 -0.827770 0
M  V30 8 C 1.818034 -1.130519 -0.533394 0
M  V30 9 N 1.882162 0.095657 -0.679151 0
M  V30 10 C 0.769238 0.930320 -0.517750 0
M  V30 11 O 0.291091 1.131198 -1.691861 0
M  V30 12 C 0.154816 1.538219 0.687711 0
M  V30 13 C 0.893387 1.508517 1.849290 0
M  V30 14 C 0.289761 2.083111 2.961999 0
M  V30 15 C -0.959356 2.627807 2.851879 0
M  V30 16 C -1.659629 2.631511 1.659647 0
M  V30 17 C -1.103519 2.072257 0.522149 0
M  V30 18 O -1.773391 2.056537 -0.689774 0
M  V30 19 H -1.459584 -0.635255 1.677323 0
M  V30 20 H 0.168966 -1.260366 2.026148 0
M  V30 21 H -1.309333 -2.360600 1.978139 0
M  V30 22 H -0.836872 -0.836259 -0.497721 0
M  V30 23 H -1.160669 -2.562041 -0.248703 0
M  V30 24 H 0.855378 -5.429559 -0.070969 0
M  V30 25 H 0.086497 -4.461784 1.192894 0
M  V30 26 H -0.537843 -4.458047 -0.505622 0
M  V30 27 H 3.129978 -4.595840 -0.514917 0
M  V30 28 H 1.879204 1.055073 1.847258 0
M  V30 29 H 0.905020 2.042960 3.868051 0
M  V30 30 H -1.333208 3.047304 3.783487 0
M  V30 31 H -2.652741 3.081792 1.639497 0
M  V30 32 H -2.030451 1.182150 -1.132523 0
M  V30 END ATOM
M  V30 BEGIN BOND
M  V30 1 1 1 2
M  V30 2 1 2 3
M  V30 3 1 3 4
M  V30 4 1 4 5
M  V30 5 2 4 6
M  V30 6 1 6 7
M  V30 7 1 7 8
M  V30 8 2 8 9
M  V30 9 1 9 10
M  V30 10 2 10 11
M  V30 11 1 10 12
M  V30 12 2 12 13
M  V30 13 1 13 14
M  V30 14 2 14 15
M  V30 15 1 15 16
M  V30 16 2 16 17
M  V30 17 1 17 18
M  V30 18 1 8 3
M  V30 19 1 17 12
M  V30 20 1 1 19
M  V30 21 1 1 20
M  V30 22 1 1 21
M  V30 23 1 2 22
M  V30 24 1 2 23
M  V30 25 1 5 24
M  V30 26 1 5 25
M  V30 27 1 5 26
M  V30 28 1 6 27
M  V30 29 1 13 28
M  V30 30 1 14 29
M  V30 31 1 15 30
M  V30 32 1 16 31
M  V30 33 1 18 32
M  V30 END BOND
M  V30 END CTAB
M  END
>  <Dataset>  (818) 
ChEMBL_Kinases

>  <Ligand_Instance>  (818) 
nan

>  <PDB_ID>  (818) 
nan

>  <Standardized_SMILES>  (818) 
CCn1c(C)cs/c1=N/C(=O)c1ccccc1O

>  <Name>  (818) 
nan

>  <Pocket>  (818) 
nan

>  <ATP_Site>  (818) 
nan

>  <Peripheral>  (818) 
nan

>  <Num_H_Atoms_ProtBoundConf>  (818) 
nan

>  <Num_Resolved_Atoms>  (818) 
nan

>  <Num_Not_Resolved_Atoms>  (818) 
nan

$$$$
CHEMBL196783
     RDKit          3D

  0  0  0  0  0  0  0  0  0  0999 V3000
M  V30 BEGIN CTAB
M  V30 COUNTS 31 32 0 0 0
M  V30 BEGIN ATOM
M  V30 1 N -0.133914 -5.831094 4.892188 0
M  V30 2 C -0.186473 -4.508919 4.362987 0
M  V30 3 O -0.129625 -3.533713 5.159617 0
M  V30 4 N -0.301184 -4.389356 2.950107 0
M  V30 5 C -0.372689 -3.168102 2.176326 0
M  V30 6 S 1.161314 -2.289935 1.499728 0
M  V30 7 C 0.253283 -1.031685 0.765758 0
M  V30 8 C 0.825913 0.114425 -0.008973 0
M  V30 9 C 1.277618 1.029399 -0.647954 0
M  V30 10 C 1.796606 2.126650 -1.413705 0
M  V30 11 C 1.357344 2.307242 -2.713710 0
M  V30 12 C 1.810080 3.339629 -3.513846 0
M  V30 13 C 2.734545 4.232611 -3.013670 0
M  V30 14 C 3.191273 4.073221 -1.711818 0
M  V30 15 F 4.106825 4.948031 -1.199673 0
M  V30 16 C 2.724282 3.029040 -0.922862 0
M  V30 17 C -1.016414 -1.255024 1.004517 0
M  V30 18 C -1.390539 -2.347710 1.730054 0
M  V30 19 C -2.744169 -2.757616 2.094223 0
M  V30 20 N -3.863323 -1.980613 1.683321 0
M  V30 21 O -2.944169 -3.790032 2.768105 0
M  V30 22 H -1.023599 -5.953618 5.439783 0
M  V30 23 H 0.396002 -6.723897 4.973979 0
M  V30 24 H -0.344823 -5.241440 2.328873 0
M  V30 25 H 0.637680 1.647389 -3.165071 0
M  V30 26 H 1.451782 3.465979 -4.537436 0
M  V30 27 H 3.132071 5.060987 -3.579050 0
M  V30 28 H 3.071676 2.892658 0.093951 0
M  V30 29 H -1.799188 -0.573535 0.629059 0
M  V30 30 H -3.892864 -1.986956 0.634511 0
M  V30 31 H -4.630684 -1.428326 2.156144 0
M  V30 END ATOM
M  V30 BEGIN BOND
M  V30 1 1 1 2
M  V30 2 2 2 3
M  V30 3 1 2 4
M  V30 4 1 4 5
M  V30 5 1 5 6
M  V30 6 1 6 7
M  V30 7 1 7 8
M  V30 8 3 8 9
M  V30 9 1 9 10
M  V30 10 2 10 11
M  V30 11 1 11 12
M  V30 12 2 12 13
M  V30 13 1 13 14
M  V30 14 1 14 15
M  V30 15 2 14 16
M  V30 16 2 7 17
M  V30 17 1 17 18
M  V30 18 1 18 19
M  V30 19 1 19 20
M  V30 20 2 19 21
M  V30 21 2 18 5
M  V30 22 1 16 10
M  V30 23 1 1 22
M  V30 24 1 1 23
M  V30 25 1 4 24
M  V30 26 1 11 25
M  V30 27 1 12 26
M  V30 28 1 13 27
M  V30 29 1 16 28
M  V30 30 1 17 29
M  V30 31 1 20 30
M  V30 32 1 20 31
M  V30 END BOND
M  V30 END CTAB
M  END
>  <Dataset>  (819) 
ChEMBL_Kinases

>  <Ligand_Instance>  (819) 
nan

>  <PDB_ID>  (819) 
nan

>  <Standardized_SMILES>  (819) 
NC(=O)Nc1sc(C#Cc2cccc(F)c2)cc1C(N)=O

>  <Name>  (819) 
nan

>  <Pocket>  (819) 
nan

>  <ATP_Site>  (819) 
nan

>  <Peripheral>  (819) 
nan

>  <Num_H_Atoms_ProtBoundConf>  (819) 
nan

>  <Num_Resolved_Atoms>  (819) 
nan

>  <Num_Not_Resolved_Atoms>  (819) 
nan

$$$$
CHEMBL1968355
     RDKit          3D

  0  0  0  0  0  0  0  0  0  0999 V3000
M  V30 BEGIN CTAB
M  V30 COUNTS 23 24 0 0 0
M  V30 BEGIN ATOM
M  V30 1 C 1.928138 -2.253846 2.317608 0
M  V30 2 C 0.916093 -1.408062 1.628127 0
M  V30 3 C -0.263612 -1.079367 2.252892 0
M  V30 4 C -1.178657 -0.281218 1.557001 0
M  V30 5 C -2.440499 0.058986 2.250088 0
M  V30 6 N -0.964892 0.180750 0.310381 0
M  V30 7 C 0.198133 -0.145371 -0.301175 0
M  V30 8 N 0.347615 0.376746 -1.613114 0
M  V30 9 C 0.935739 1.552300 -1.834297 0
M  V30 10 S 1.171874 2.288356 -3.407840 0
M  V30 11 S 2.172462 4.071919 -2.567705 0
M  V30 12 N 2.042519 3.534787 -0.959251 0
M  V30 13 C 1.408784 2.292032 -0.855418 0
M  V30 14 Cl 1.402439 1.972802 0.869448 0
M  V30 15 C 1.155461 -0.940431 0.340086 0
M  V30 16 H 2.932808 -2.148980 1.873788 0
M  V30 17 H 1.910581 -2.072335 3.400971 0
M  V30 18 H 1.616308 -3.305828 2.134735 0
M  V30 19 H -0.507306 -1.416393 3.261955 0
M  V30 20 H -3.253935 -0.156793 1.497049 0
M  V30 21 H -2.466341 1.118033 2.532911 0
M  V30 22 H -2.615110 -0.594039 3.121507 0
M  V30 23 H 2.066045 -1.167209 -0.200635 0
M  V30 END ATOM
M  V30 BEGIN BOND
M  V30 1 1 1 2
M  V30 2 2 2 3
M  V30 3 1 3 4
M  V30 4 1 4 5
M  V30 5 2 4 6
M  V30 6 1 6 7
M  V30 7 1 7 8
M  V30 8 2 8 9
M  V30 9 1 9 10
M  V30 10 1 10 11
M  V30 11 1 11 12
M  V30 12 2 12 13
M  V30 13 1 13 14
M  V30 14 2 7 15
M  V30 15 1 15 2
M  V30 16 1 13 9
M  V30 17 1 1 16
M  V30 18 1 1 17
M  V30 19 1 1 18
M  V30 20 1 3 19
M  V30 21 1 5 20
M  V30 22 1 5 21
M  V30 23 1 5 22
M  V30 24 1 15 23
M  V30 END BOND
M  V30 END CTAB
M  END
>  <Dataset>  (820) 
ChEMBL_Kinases

>  <Ligand_Instance>  (820) 
nan

>  <PDB_ID>  (820) 
nan

>  <Standardized_SMILES>  (820) 
Cc1cc(C)nc(/N=c2/ssnc2Cl)c1

>  <Name>  (820) 
nan

>  <Pocket>  (820) 
nan

>  <ATP_Site>  (820) 
nan

>  <Peripheral>  (820) 
nan

>  <Num_H_Atoms_ProtBoundConf>  (820) 
nan

>  <Num_Resolved_Atoms>  (820) 
nan

>  <Num_Not_Resolved_Atoms>  (820) 
nan

$$$$
CHEMBL1968515
     RDKit          3D

  0  0  0  0  0  0  0  0  0  0999 V3000
M  V30 BEGIN CTAB
M  V30 COUNTS 24 26 0 0 0
M  V30 BEGIN ATOM
M  V30 1 O 3.046598 -3.390068 1.929621 0
M  V30 2 C 1.998592 -2.830470 1.509064 0
M  V30 3 C 1.870424 -1.366318 1.729716 0
M  V30 4 N 0.782696 -0.865755 0.994226 0
M  V30 5 C -0.169754 -1.709656 0.354657 0
M  V30 6 N -0.081781 -2.995388 0.278530 0
M  V30 7 N 1.019417 -3.630267 0.858286 0
M  V30 8 C -1.411979 -1.187819 -0.318727 0
M  V30 9 O -1.380329 0.219962 -0.468538 0
M  V30 10 C -0.474986 1.051441 0.139301 0
M  V30 11 C -0.679642 2.410009 -0.003408 0
M  V30 12 C 0.203563 3.311639 0.589260 0
M  V30 13 C 1.251304 2.767764 1.297870 0
M  V30 14 C 1.506312 1.429660 1.474470 0
M  V30 15 C 0.605103 0.550358 0.869582 0
M  V30 16 H 2.847281 -0.911624 1.611316 0
M  V30 17 H 1.605913 -1.269810 2.823335 0
M  V30 18 H 1.155093 -4.657820 0.835596 0
M  V30 19 H -1.431021 -1.597887 -1.370807 0
M  V30 20 H -2.320300 -1.482631 0.245003 0
M  V30 21 H -1.495614 2.841512 -0.555272 0
M  V30 22 H 0.103521 4.370207 0.518165 0
M  V30 23 H 1.949115 3.461689 1.766202 0
M  V30 24 H 2.352614 1.073018 2.046565 0
M  V30 END ATOM
M  V30 BEGIN BOND
M  V30 1 2 1 2
M  V30 2 1 2 3
M  V30 3 1 3 4
M  V30 4 1 4 5
M  V30 5 2 5 6
M  V30 6 1 6 7
M  V30 7 1 5 8
M  V30 8 1 8 9
M  V30 9 1 9 10
M  V30 10 2 10 11
M  V30 11 1 11 12
M  V30 12 2 12 13
M  V30 13 1 13 14
M  V30 14 2 14 15
M  V30 15 1 7 2
M  V30 16 1 15 10
M  V30 17 1 15 4
M  V30 18 1 3 16
M  V30 19 1 3 17
M  V30 20 1 7 18
M  V30 21 1 8 19
M  V30 22 1 8 20
M  V30 23 1 11 21
M  V30 24 1 12 22
M  V30 25 1 13 23
M  V30 26 1 14 24
M  V30 END BOND
M  V30 END CTAB
M  END
>  <Dataset>  (821) 
ChEMBL_Kinases

>  <Ligand_Instance>  (821) 
nan

>  <PDB_ID>  (821) 
nan

>  <Standardized_SMILES>  (821) 
O=C1CN2C(=NN1)COc1ccccc12

>  <Name>  (821) 
nan

>  <Pocket>  (821) 
nan

>  <ATP_Site>  (821) 
nan

>  <Peripheral>  (821) 
nan

>  <Num_H_Atoms_ProtBoundConf>  (821) 
nan

>  <Num_Resolved_Atoms>  (821) 
nan

>  <Num_Not_Resolved_Atoms>  (821) 
nan

$$$$
CHEMBL196918
     RDKit          3D

  0  0  0  0  0  0  0  0  0  0999 V3000
M  V30 BEGIN CTAB
M  V30 COUNTS 62 66 0 0 0
M  V30 BEGIN ATOM
M  V30 1 N -1.107496 -4.873622 4.894011 0
M  V30 2 C -0.478697 -3.888255 4.780403 0
M  V30 3 C 0.273161 -2.689097 4.660389 0
M  V30 4 C 1.068772 -2.203034 5.675017 0
M  V30 5 N 1.767268 -1.070906 5.518956 0
M  V30 6 C 1.762670 -0.323854 4.399480 0
M  V30 7 C 2.462223 0.839761 4.196192 0
M  V30 8 N 2.377997 1.498122 3.028446 0
M  V30 9 C 1.614690 1.057952 2.011439 0
M  V30 10 N 1.521851 1.747061 0.775345 0
M  V30 11 C 2.167080 2.993110 0.492081 0
M  V30 12 C 1.636157 4.079724 1.407693 0
M  V30 13 N 0.221475 4.255491 1.256255 0
M  V30 14 C -0.252542 5.295734 2.125389 0
M  V30 15 C -1.760087 5.460802 1.951060 0
M  V30 16 O -1.956626 5.860126 0.620740 0
M  V30 17 C -1.667390 4.717166 -0.135636 0
M  V30 18 C -0.153820 4.565816 -0.102182 0
M  V30 19 C 0.913851 -0.108272 2.219334 0
M  V30 20 C 0.946354 -0.843841 3.389577 0
M  V30 21 C 0.181861 -2.000945 3.441066 0
M  V30 22 N -0.608509 -2.389964 2.373426 0
M  V30 23 C -0.565799 -3.206510 1.222507 0
M  V30 24 C -1.719273 -3.220544 0.451240 0
M  V30 25 C -1.688283 -4.016876 -0.668547 0
M  V30 26 C -0.623476 -4.783128 -1.071199 0
M  V30 27 C -0.499308 -5.623657 -2.214020 0
M  V30 28 O 0.405061 -6.512030 -2.190605 0
M  V30 29 C -1.168972 -5.743761 -3.480235 0
M  V30 30 C -0.433721 -6.195685 -4.584842 0
M  V30 31 C -0.978690 -6.355342 -5.870670 0
M  V30 32 C -2.293473 -6.058303 -6.069830 0
M  V30 33 C -3.080401 -5.609456 -5.033306 0
M  V30 34 C -2.473853 -5.481956 -3.813278 0
M  V30 35 C 0.486710 -4.700762 -0.228900 0
M  V30 36 C 0.556177 -3.933971 0.913213 0
M  V30 37 H 1.121002 -2.750543 6.603946 0
M  V30 38 H 3.036191 1.116454 5.046332 0
M  V30 39 H 0.940505 1.319568 0.010432 0
M  V30 40 H 2.101402 3.254939 -0.575271 0
M  V30 41 H 3.260720 2.843141 0.722633 0
M  V30 42 H 1.821491 3.761003 2.454174 0
M  V30 43 H 2.226546 5.007502 1.236616 0
M  V30 44 H 0.013272 5.126650 3.189697 0
M  V30 45 H 0.183736 6.259856 1.765307 0
M  V30 46 H -2.228360 4.461272 2.091439 0
M  V30 47 H -2.160527 6.207188 2.657702 0
M  V30 48 H -2.076806 4.723653 -1.143796 0
M  V30 49 H -2.160427 3.874621 0.420537 0
M  V30 50 H 0.257804 5.566973 -0.359481 0
M  V30 51 H 0.187550 3.823520 -0.848154 0
M  V30 52 H 0.312105 -0.450410 1.407588 0
M  V30 53 H -1.431949 -1.824431 2.658830 0
M  V30 54 H -2.585730 -2.632479 0.725267 0
M  V30 55 H -2.579766 -4.004810 -1.237246 0
M  V30 56 H 0.623605 -6.464439 -4.550218 0
M  V30 57 H -0.393402 -6.702072 -6.695990 0
M  V30 58 H -2.704338 -6.184168 -7.061216 0
M  V30 59 H -4.119900 -5.380892 -5.213574 0
M  V30 60 H -3.153656 -5.140281 -3.055025 0
M  V30 61 H 1.410811 -5.265336 -0.437126 0
M  V30 62 H 1.443996 -3.905814 1.530295 0
M  V30 END ATOM
M  V30 BEGIN BOND
M  V30 1 3 1 2
M  V30 2 1 2 3
M  V30 3 2 3 4
M  V30 4 1 4 5
M  V30 5 2 5 6
M  V30 6 1 6 7
M  V30 7 2 7 8
M  V30 8 1 8 9
M  V30 9 1 9 10
M  V30 10 1 10 11
M  V30 11 1 11 12
M  V30 12 1 12 13
M  V30 13 1 13 14
M  V30 14 1 14 15
M  V30 15 1 15 16
M  V30 16 1 16 17
M  V30 17 1 17 18
M  V30 18 2 9 19
M  V30 19 1 19 20
M  V30 20 2 20 21
M  V30 21 1 21 22
M  V30 22 1 22 23
M  V30 23 2 23 24
M  V30 24 1 24 25
M  V30 25 2 25 26
M  V30 26 1 26 27
M  V30 27 2 27 28
M  V30 28 1 27 29
M  V30 29 2 29 30
M  V30 30 1 30 31
M  V30 31 2 31 32
M  V30 32 1 32 33
M  V30 33 2 33 34
M  V30 34 1 26 35
M  V30 35 2 35 36
M  V30 36 1 21 3
M  V30 37 1 36 23
M  V30 38 1 20 6
M  V30 39 1 34 29
M  V30 40 1 18 13
M  V30 41 1 4 37
M  V30 42 1 7 38
M  V30 43 1 10 39
M  V30 44 1 11 40
M  V30 45 1 11 41
M  V30 46 1 12 42
M  V30 47 1 12 43
M  V30 48 1 14 44
M  V30 49 1 14 45
M  V30 50 1 15 46
M  V30 51 1 15 47
M  V30 52 1 17 48
M  V30 53 1 17 49
M  V30 54 1 18 50
M  V30 55 1 18 51
M  V30 56 1 19 52
M  V30 57 1 22 53
M  V30 58 1 24 54
M  V30 59 1 25 55
M  V30 60 1 30 56
M  V30 61 1 31 57
M  V30 62 1 32 58
M  V30 63 1 33 59
M  V30 64 1 34 60
M  V30 65 1 35 61
M  V30 66 1 36 62
M  V30 END BOND
M  V30 END CTAB
M  END
>  <Dataset>  (822) 
ChEMBL_Kinases

>  <Ligand_Instance>  (822) 
nan

>  <PDB_ID>  (822) 
nan

>  <Standardized_SMILES>  (822) 
N#Cc1cnc2cnc(NCCN3CCOCC3)cc2c1Nc1ccc(C(=O)c2ccccc2)cc1

>  <Name>  (822) 
nan

>  <Pocket>  (822) 
nan

>  <ATP_Site>  (822) 
nan

>  <Peripheral>  (822) 
nan

>  <Num_H_Atoms_ProtBoundConf>  (822) 
nan

>  <Num_Resolved_Atoms>  (822) 
nan

>  <Num_Not_Resolved_Atoms>  (822) 
nan

$$$$
CHEMBL196919
     RDKit          3D

  0  0  0  0  0  0  0  0  0  0999 V3000
M  V30 BEGIN CTAB
M  V30 COUNTS 60 64 0 0 0
M  V30 BEGIN ATOM
M  V30 1 N 0.252577 -6.141245 4.357529 0
M  V30 2 C 0.285243 -5.006327 4.175793 0
M  V30 3 C 0.325153 -3.603179 3.927609 0
M  V30 4 C 0.238867 -2.612688 4.891640 0
M  V30 5 N 0.278237 -1.298062 4.617205 0
M  V30 6 C 0.408406 -0.825414 3.340517 0
M  V30 7 C 0.451261 0.502925 2.986253 0
M  V30 8 N 0.576770 0.869894 1.689055 0
M  V30 9 C 0.665434 -0.030515 0.685878 0
M  V30 10 N 0.798489 0.290868 -0.679863 0
M  V30 11 C -0.030878 0.836486 -1.739072 0
M  V30 12 C -0.345444 2.246138 -1.418822 0
M  V30 13 N -1.061356 2.487625 -0.208663 0
M  V30 14 C -0.919774 3.924725 0.180997 0
M  V30 15 C -1.548723 4.004648 1.552877 0
M  V30 16 O -2.242127 2.845564 1.907127 0
M  V30 17 C -3.154319 2.455189 0.925678 0
M  V30 18 C -2.529320 2.452853 -0.447631 0
M  V30 19 C -1.057477 -0.063663 -2.206126 0
M  V30 20 C -1.872898 -0.925166 -1.462689 0
M  V30 21 C -2.832980 -1.790847 -1.935250 0
M  V30 22 C -3.026322 -1.823791 -3.299489 0
M  V30 23 C -2.272261 -1.013563 -4.100458 0
M  V30 24 C -1.325152 -0.165612 -3.583588 0
M  V30 25 C 0.617258 -1.368870 1.104058 0
M  V30 26 C 0.491194 -1.834721 2.403269 0
M  V30 27 C 0.460831 -3.195392 2.598559 0
M  V30 28 N 0.587765 -4.084101 1.468625 0
M  V30 29 C 1.968892 -4.366749 1.160852 0
M  V30 30 C 2.996172 -3.825740 1.901023 0
M  V30 31 C 4.346466 -4.047769 1.670623 0
M  V30 32 C 4.690362 -4.870508 0.623460 0
M  V30 33 F 6.021666 -5.081974 0.407354 0
M  V30 34 C 3.688814 -5.430141 -0.140331 0
M  V30 35 Cl 4.205339 -6.466726 -1.458702 0
M  V30 36 C 2.350312 -5.185652 0.120108 0
M  V30 37 H 0.134692 -2.955976 5.916164 0
M  V30 38 H 0.379629 1.223976 3.786604 0
M  V30 39 H 1.817512 0.001243 -0.794415 0
M  V30 40 H 0.724500 0.912730 -2.610724 0
M  V30 41 H 0.654184 2.774604 -1.309629 0
M  V30 42 H -0.803455 2.775349 -2.292734 0
M  V30 43 H 0.118912 4.249247 0.136090 0
M  V30 44 H -1.512118 4.564069 -0.499979 0
M  V30 45 H -2.192917 4.909218 1.663360 0
M  V30 46 H -0.710572 4.129544 2.268179 0
M  V30 47 H -3.984861 3.208038 0.996723 0
M  V30 48 H -3.479720 1.427596 1.154450 0
M  V30 49 H -2.771922 1.641274 -1.095867 0
M  V30 50 H -2.830176 3.424046 -0.953676 0
M  V30 51 H -1.733228 -0.895390 -0.404507 0
M  V30 52 H -3.390840 -2.400237 -1.257376 0
M  V30 53 H -3.782184 -2.505939 -3.664406 0
M  V30 54 H -2.471484 -1.087150 -5.164634 0
M  V30 55 H -0.787537 0.429133 -4.313681 0
M  V30 56 H 0.688528 -2.088036 0.298773 0
M  V30 57 H -0.110684 -4.532135 0.868270 0
M  V30 58 H 2.809581 -3.162615 2.748488 0
M  V30 59 H 5.124885 -3.605559 2.275843 0
M  V30 60 H 1.579476 -5.640497 -0.501855 0
M  V30 END ATOM
M  V30 BEGIN BOND
M  V30 1 3 1 2
M  V30 2 1 2 3
M  V30 3 2 3 4
M  V30 4 1 4 5
M  V30 5 2 5 6
M  V30 6 1 6 7
M  V30 7 2 7 8
M  V30 8 1 8 9
M  V30 9 1 9 10
M  V30 10 1 10 11
M  V30 11 1 11 12
M  V30 12 1 12 13
M  V30 13 1 13 14
M  V30 14 1 14 15
M  V30 15 1 15 16
M  V30 16 1 16 17
M  V30 17 1 17 18
M  V30 18 1 11 19
M  V30 19 2 19 20
M  V30 20 1 20 21
M  V30 21 2 21 22
M  V30 22 1 22 23
M  V30 23 2 23 24
M  V30 24 2 9 25
M  V30 25 1 25 26
M  V30 26 2 26 27
M  V30 27 1 27 28
M  V30 28 1 28 29
M  V30 29 2 29 30
M  V30 30 1 30 31
M  V30 31 2 31 32
M  V30 32 1 32 33
M  V30 33 1 32 34
M  V30 34 1 34 35
M  V30 35 2 34 36
M  V30 36 1 27 3
M  V30 37 1 36 29
M  V30 38 1 26 6
M  V30 39 1 18 13
M  V30 40 1 24 19
M  V30 41 1 4 37
M  V30 42 1 7 38
M  V30 43 1 10 39
M  V30 44 1 11 40
M  V30 45 1 12 41
M  V30 46 1 12 42
M  V30 47 1 14 43
M  V30 48 1 14 44
M  V30 49 1 15 45
M  V30 50 1 15 46
M  V30 51 1 17 47
M  V30 52 1 17 48
M  V30 53 1 18 49
M  V30 54 1 18 50
M  V30 55 1 20 51
M  V30 56 1 21 52
M  V30 57 1 22 53
M  V30 58 1 23 54
M  V30 59 1 24 55
M  V30 60 1 25 56
M  V30 61 1 28 57
M  V30 62 1 30 58
M  V30 63 1 31 59
M  V30 64 1 36 60
M  V30 END BOND
M  V30 END CTAB
M  END
>  <Dataset>  (823) 
ChEMBL_Kinases

>  <Ligand_Instance>  (823) 
nan

>  <PDB_ID>  (823) 
nan

>  <Standardized_SMILES>  (823) 
N#Cc1cnc2cnc(NC(CN3CCOCC3)c3ccccc3)cc2c1Nc1ccc(F)c(Cl)c1

>  <Name>  (823) 
nan

>  <Pocket>  (823) 
nan

>  <ATP_Site>  (823) 
nan

>  <Peripheral>  (823) 
nan

>  <Num_H_Atoms_ProtBoundConf>  (823) 
nan

>  <Num_Resolved_Atoms>  (823) 
nan

>  <Num_Not_Resolved_Atoms>  (823) 
nan

$$$$
CHEMBL1971815
     RDKit          3D

  0  0  0  0  0  0  0  0  0  0999 V3000
M  V30 BEGIN CTAB
M  V30 COUNTS 44 47 0 0 0
M  V30 BEGIN ATOM
M  V30 1 C 1.169418 -6.858263 -2.400333 0
M  V30 2 C 0.386137 -5.587560 -2.159732 0
M  V30 3 O 0.559811 -5.104612 -0.839992 0
M  V30 4 C -0.121091 -3.930235 -0.506283 0
M  V30 5 C -0.909257 -3.317534 -1.460518 0
M  V30 6 C -1.600339 -2.156776 -1.177985 0
M  V30 7 C -1.500749 -1.604384 0.073104 0
M  V30 8 C -2.165887 -0.374467 0.548054 0
M  V30 9 C -1.520382 0.741269 0.772623 0
M  V30 10 S 0.247053 0.682861 0.463299 0
M  V30 11 C 0.515840 2.483238 0.953341 0
M  V30 12 N 1.334141 3.579141 1.143441 0
M  V30 13 C 0.555008 4.586176 1.571041 0
M  V30 14 C 1.346283 5.784852 1.795910 0
M  V30 15 C 2.224130 6.223955 2.782330 0
M  V30 16 C 2.642243 7.494723 2.373887 0
M  V30 17 C 2.003198 7.753118 1.177617 0
M  V30 18 O 1.263209 6.711813 0.901361 0
M  V30 19 N -0.689329 4.120858 1.638494 0
M  V30 20 N -0.729698 2.838399 1.264522 0
M  V30 21 C -1.756147 1.982068 1.179880 0
M  V30 22 O -2.976730 2.161275 1.434702 0
M  V30 23 C -0.707643 -2.209146 1.054526 0
M  V30 24 C -0.016358 -3.373847 0.765438 0
M  V30 25 O 0.798829 -4.064149 1.650789 0
M  V30 26 C 1.045092 -3.676738 2.985672 0
M  V30 27 C 1.673512 -2.335049 3.132035 0
M  V30 28 H 1.465894 -7.269800 -1.412901 0
M  V30 29 H 2.091518 -6.591320 -2.964153 0
M  V30 30 H 0.582400 -7.537093 -3.016759 0
M  V30 31 H -0.711375 -5.845315 -2.229949 0
M  V30 32 H 0.681870 -4.827829 -2.902924 0
M  V30 33 H -1.027679 -3.706407 -2.467256 0
M  V30 34 H -2.231772 -1.611728 -1.845121 0
M  V30 35 H -3.247569 -0.300836 0.748623 0
M  V30 36 H 2.424506 5.577384 3.625510 0
M  V30 37 H 3.339549 8.048408 2.987946 0
M  V30 38 H 2.138768 8.659901 0.635865 0
M  V30 39 H -0.598691 -1.805598 2.063700 0
M  V30 40 H 0.070896 -3.636440 3.538192 0
M  V30 41 H 1.708639 -4.442631 3.429498 0
M  V30 42 H 1.140406 -1.680561 3.881949 0
M  V30 43 H 2.702728 -2.455266 3.523542 0
M  V30 44 H 1.797503 -1.796676 2.164603 0
M  V30 END ATOM
M  V30 BEGIN BOND
M  V30 1 1 1 2
M  V30 2 1 2 3
M  V30 3 1 3 4
M  V30 4 2 4 5
M  V30 5 1 5 6
M  V30 6 2 6 7
M  V30 7 1 7 8
M  V30 8 2 8 9
M  V30 9 1 9 10
M  V30 10 1 10 11
M  V30 11 2 11 12
M  V30 12 1 12 13
M  V30 13 1 13 14
M  V30 14 2 14 15
M  V30 15 1 15 16
M  V30 16 2 16 17
M  V30 17 1 17 18
M  V30 18 2 13 19
M  V30 19 1 19 20
M  V30 20 1 20 21
M  V30 21 2 21 22
M  V30 22 1 7 23
M  V30 23 2 23 24
M  V30 24 1 24 25
M  V30 25 1 25 26
M  V30 26 1 26 27
M  V30 27 1 24 4
M  V30 28 1 21 9
M  V30 29 1 20 11
M  V30 30 1 18 14
M  V30 31 1 1 28
M  V30 32 1 1 29
M  V30 33 1 1 30
M  V30 34 1 2 31
M  V30 35 1 2 32
M  V30 36 1 5 33
M  V30 37 1 6 34
M  V30 38 1 8 35
M  V30 39 1 15 36
M  V30 40 1 16 37
M  V30 41 1 17 38
M  V30 42 1 23 39
M  V30 43 1 26 40
M  V30 44 1 26 41
M  V30 45 1 27 42
M  V30 46 1 27 43
M  V30 47 1 27 44
M  V30 END BOND
M  V30 END CTAB
M  END
>  <Dataset>  (824) 
ChEMBL_Kinases

>  <Ligand_Instance>  (824) 
nan

>  <PDB_ID>  (824) 
nan

>  <Standardized_SMILES>  (824) 
CCOc1ccc(/C=c2\sc3nc(-c4ccco4)nn3c2=O)cc1OCC

>  <Name>  (824) 
nan

>  <Pocket>  (824) 
nan

>  <ATP_Site>  (824) 
nan

>  <Peripheral>  (824) 
nan

>  <Num_H_Atoms_ProtBoundConf>  (824) 
nan

>  <Num_Resolved_Atoms>  (824) 
nan

>  <Num_Not_Resolved_Atoms>  (824) 
nan

$$$$
CHEMBL1969664
     RDKit          3D

  0  0  0  0  0  0  0  0  0  0999 V3000
M  V30 BEGIN CTAB
M  V30 COUNTS 43 46 0 0 0
M  V30 BEGIN ATOM
M  V30 1 N 0.243713 -4.624118 4.519613 0
M  V30 2 C 0.625555 -4.580499 3.435092 0
M  V30 3 C 1.081127 -4.534347 2.076439 0
M  V30 4 C 1.542601 -5.666264 1.408257 0
M  V30 5 C 1.986902 -5.637201 0.092885 0
M  V30 6 C 1.958008 -4.403985 -0.563453 0
M  V30 7 N 2.331827 -4.114069 -1.829608 0
M  V30 8 C 2.128717 -2.786148 -2.033889 0
M  V30 9 O 2.342761 -1.961981 -3.154189 0
M  V30 10 C 1.616851 -2.232285 -0.871295 0
M  V30 11 C 1.226733 -0.856465 -0.558041 0
M  V30 12 C -0.108725 -0.579029 -0.845674 0
M  V30 13 C -0.561022 0.709678 -0.576511 0
M  V30 14 C 0.244920 1.719969 -0.041566 0
M  V30 15 C -0.330765 3.043245 0.203722 0
M  V30 16 N -0.908074 3.242955 1.496029 0
M  V30 17 C -0.009466 3.080875 2.598977 0
M  V30 18 C -0.102778 1.741101 3.282247 0
M  V30 19 O -1.055130 0.902547 2.732259 0
M  V30 20 C -2.276462 1.556597 2.647609 0
M  V30 21 C -2.206219 2.710980 1.678744 0
M  V30 22 C 1.545538 1.333726 0.202954 0
M  V30 23 N 2.020369 0.100072 -0.043030 0
M  V30 24 C 1.511939 -3.254450 0.049141 0
M  V30 25 C 1.085455 -3.356180 1.356107 0
M  V30 26 H 1.547397 -6.609082 1.960522 0
M  V30 27 H 2.342952 -6.526402 -0.413103 0
M  V30 28 H 2.717028 -4.700754 -2.602478 0
M  V30 29 H 3.198426 -1.409157 -3.168930 0
M  V30 30 H -0.794797 -1.302058 -1.259002 0
M  V30 31 H -1.614879 0.918226 -0.806668 0
M  V30 32 H -1.095297 3.324587 -0.548277 0
M  V30 33 H 0.484190 3.809952 0.072572 0
M  V30 34 H -0.290030 3.884090 3.339351 0
M  V30 35 H 1.018663 3.338320 2.278789 0
M  V30 36 H 0.888029 1.223606 3.121893 0
M  V30 37 H -0.233649 1.839765 4.390680 0
M  V30 38 H -2.544726 1.866471 3.684900 0
M  V30 39 H -3.009341 0.795896 2.300394 0
M  V30 40 H -2.656284 2.470116 0.701172 0
M  V30 41 H -2.855856 3.516670 2.107767 0
M  V30 42 H 2.207649 2.080282 0.616781 0
M  V30 43 H 0.731116 -2.454636 1.849611 0
M  V30 END ATOM
M  V30 BEGIN BOND
M  V30 1 3 1 2
M  V30 2 1 2 3
M  V30 3 2 3 4
M  V30 4 1 4 5
M  V30 5 2 5 6
M  V30 6 1 6 7
M  V30 7 1 7 8
M  V30 8 1 8 9
M  V30 9 2 8 10
M  V30 10 1 10 11
M  V30 11 2 11 12
M  V30 12 1 12 13
M  V30 13 2 13 14
M  V30 14 1 14 15
M  V30 15 1 15 16
M  V30 16 1 16 17
M  V30 17 1 17 18
M  V30 18 1 18 19
M  V30 19 1 19 20
M  V30 20 1 20 21
M  V30 21 1 14 22
M  V30 22 2 22 23
M  V30 23 1 10 24
M  V30 24 2 24 25
M  V30 25 1 25 3
M  V30 26 1 24 6
M  V30 27 1 23 11
M  V30 28 1 21 16
M  V30 29 1 4 26
M  V30 30 1 5 27
M  V30 31 1 7 28
M  V30 32 1 9 29
M  V30 33 1 12 30
M  V30 34 1 13 31
M  V30 35 1 15 32
M  V30 36 1 15 33
M  V30 37 1 17 34
M  V30 38 1 17 35
M  V30 39 1 18 36
M  V30 40 1 18 37
M  V30 41 1 20 38
M  V30 42 1 20 39
M  V30 43 1 21 40
M  V30 44 1 21 41
M  V30 45 1 22 42
M  V30 46 1 25 43
M  V30 END BOND
M  V30 END CTAB
M  END
>  <Dataset>  (825) 
ChEMBL_Kinases

>  <Ligand_Instance>  (825) 
nan

>  <PDB_ID>  (825) 
nan

>  <Standardized_SMILES>  (825) 
N#Cc1ccc2[nH]c(O)c(-c3ccc(CN4CCOCC4)cn3)c2c1

>  <Name>  (825) 
AZD-1080

>  <Pocket>  (825) 
nan

>  <ATP_Site>  (825) 
nan

>  <Peripheral>  (825) 
nan

>  <Num_H_Atoms_ProtBoundConf>  (825) 
nan

>  <Num_Resolved_Atoms>  (825) 
nan

>  <Num_Not_Resolved_Atoms>  (825) 
nan

$$$$
CHEMBL1969923
     RDKit          3D

  0  0  0  0  0  0  0  0  0  0999 V3000
M  V30 BEGIN CTAB
M  V30 COUNTS 31 33 0 0 0
M  V30 BEGIN ATOM
M  V30 1 N 2.205078 -3.256685 3.111713 0
M  V30 2 C 3.334865 -4.042663 2.713114 0
M  V30 3 S 3.558000 -5.462801 3.488694 0
M  V30 4 N 4.069779 -3.404835 1.675303 0
M  V30 5 N 2.997518 -2.572214 1.998453 0
M  V30 6 C 2.787360 -1.435121 1.451269 0
M  V30 7 N 3.609807 -0.841193 0.431097 0
M  V30 8 C 2.986350 0.104397 -0.425743 0
M  V30 9 O 3.635884 0.682494 -1.357522 0
M  V30 10 C 1.571310 0.317579 -0.113722 0
M  V30 11 C 0.671844 0.728621 -0.953788 0
M  V30 12 C -0.661810 0.854723 -0.372613 0
M  V30 13 C -0.912000 1.392107 0.870980 0
M  V30 14 C -2.232254 1.433369 1.339234 0
M  V30 15 C -3.242114 0.927025 0.525837 0
M  V30 16 C -3.009859 0.377509 -0.738708 0
M  V30 17 C -1.699910 0.355165 -1.164509 0
M  V30 18 O -4.256815 -0.024433 -1.255465 0
M  V30 19 C -5.121783 -0.218140 -0.123420 0
M  V30 20 O -4.636230 0.827722 0.712992 0
M  V30 21 S 1.513683 -0.151717 1.637591 0
M  V30 22 H 1.462932 -2.599558 3.498340 0
M  V30 23 H 1.187182 -3.039140 3.032604 0
M  V30 24 H 4.907661 -3.523319 1.065056 0
M  V30 25 H 4.634740 -1.132686 0.362272 0
M  V30 26 H 0.910418 0.950750 -1.983539 0
M  V30 27 H -0.102662 1.778793 1.468054 0
M  V30 28 H -2.483298 1.845590 2.306305 0
M  V30 29 H -1.491108 -0.067482 -2.146020 0
M  V30 30 H -6.157780 -0.102757 -0.432677 0
M  V30 31 H -4.882147 -1.225412 0.294282 0
M  V30 END ATOM
M  V30 BEGIN BOND
M  V30 1 1 1 2
M  V30 2 2 2 3
M  V30 3 1 2 4
M  V30 4 1 4 5
M  V30 5 2 5 6
M  V30 6 1 6 7
M  V30 7 1 7 8
M  V30 8 2 8 9
M  V30 9 1 8 10
M  V30 10 2 10 11
M  V30 11 1 11 12
M  V30 12 2 12 13
M  V30 13 1 13 14
M  V30 14 2 14 15
M  V30 15 1 15 16
M  V30 16 2 16 17
M  V30 17 1 16 18
M  V30 18 1 18 19
M  V30 19 1 19 20
M  V30 20 1 10 21
M  V30 21 1 21 6
M  V30 22 1 17 12
M  V30 23 1 20 15
M  V30 24 1 1 22
M  V30 25 1 1 23
M  V30 26 1 4 24
M  V30 27 1 7 25
M  V30 28 1 11 26
M  V30 29 1 13 27
M  V30 30 1 14 28
M  V30 31 1 17 29
M  V30 32 1 19 30
M  V30 33 1 19 31
M  V30 END BOND
M  V30 END CTAB
M  END
>  <Dataset>  (826) 
ChEMBL_Kinases

>  <Ligand_Instance>  (826) 
nan

>  <PDB_ID>  (826) 
nan

>  <Standardized_SMILES>  (826) 
NC(=S)N/N=C1\NC(=O)/C(=C/c2ccc3c(c2)OCO3)S1

>  <Name>  (826) 
nan

>  <Pocket>  (826) 
nan

>  <ATP_Site>  (826) 
nan

>  <Peripheral>  (826) 
nan

>  <Num_H_Atoms_ProtBoundConf>  (826) 
nan

>  <Num_Resolved_Atoms>  (826) 
nan

>  <Num_Not_Resolved_Atoms>  (826) 
nan

$$$$
CHEMBL197006
     RDKit          3D

  0  0  0  0  0  0  0  0  0  0999 V3000
M  V30 BEGIN CTAB
M  V30 COUNTS 50 53 0 0 0
M  V30 BEGIN ATOM
M  V30 1 N -1.136704 -6.032907 2.816110 0
M  V30 2 C -0.505779 -5.080078 2.574625 0
M  V30 3 C 0.257575 -3.912618 2.263554 0
M  V30 4 C 1.434290 -3.771873 2.980727 0
M  V30 5 N 2.242925 -2.696022 2.766468 0
M  V30 6 C 1.878976 -1.795873 1.863500 0
M  V30 7 C 2.637496 -0.663311 1.578354 0
M  V30 8 N 2.230858 0.230607 0.654826 0
M  V30 9 C 1.109017 0.124588 -0.048311 0
M  V30 10 N 0.723040 1.092222 -1.010294 0
M  V30 11 C 1.505301 2.250686 -1.296130 0
M  V30 12 C 1.744889 3.196411 -0.186759 0
M  V30 13 N 0.653058 3.864998 0.423749 0
M  V30 14 C 1.228040 4.792168 1.399342 0
M  V30 15 C 1.597503 4.020626 2.622188 0
M  V30 16 O 0.465995 3.460488 3.158643 0
M  V30 17 C -0.187023 2.559878 2.325539 0
M  V30 18 C -0.417319 3.122638 0.944982 0
M  V30 19 C 0.312020 -0.983586 0.192472 0
M  V30 20 C 0.715003 -1.904325 1.132070 0
M  V30 21 C -0.138777 -2.971781 1.308256 0
M  V30 22 N -1.351430 -3.246048 0.663922 0
M  V30 23 C -1.767871 -4.046503 -0.439055 0
M  V30 24 C -2.709494 -4.969975 0.031570 0
M  V30 25 C -3.304498 -5.903578 -0.822595 0
M  V30 26 C -2.948654 -5.904308 -2.150757 0
M  V30 27 Cl -3.622364 -7.024757 -3.326904 0
M  V30 28 C -2.020732 -4.987504 -2.592227 0
M  V30 29 C -1.426851 -4.062675 -1.762958 0
M  V30 30 F -0.516751 -3.130598 -2.071694 0
M  V30 31 H 1.759758 -4.492453 3.727522 0
M  V30 32 H 3.566076 -0.487065 2.097135 0
M  V30 33 H -0.180079 0.944468 -1.546710 0
M  V30 34 H 1.167158 2.764261 -2.238424 0
M  V30 35 H 2.531043 1.858907 -1.600595 0
M  V30 36 H 2.467136 4.019531 -0.497363 0
M  V30 37 H 2.240044 2.602235 0.632903 0
M  V30 38 H 0.509454 5.572975 1.703142 0
M  V30 39 H 2.146573 5.210155 0.918018 0
M  V30 40 H 2.438120 3.315368 2.509139 0
M  V30 41 H 1.959726 4.769615 3.377291 0
M  V30 42 H -1.191909 2.388074 2.778489 0
M  V30 43 H 0.327564 1.581779 2.306593 0
M  V30 44 H -0.721779 2.311807 0.284237 0
M  V30 45 H -1.342695 3.799624 0.968333 0
M  V30 46 H -0.590777 -1.085322 -0.355266 0
M  V30 47 H -2.036265 -2.666393 1.216803 0
M  V30 48 H -3.099609 -5.100758 1.053052 0
M  V30 49 H -4.035125 -6.639790 -0.522454 0
M  V30 50 H -1.694634 -4.935449 -3.635795 0
M  V30 END ATOM
M  V30 BEGIN BOND
M  V30 1 3 1 2
M  V30 2 1 2 3
M  V30 3 2 3 4
M  V30 4 1 4 5
M  V30 5 2 5 6
M  V30 6 1 6 7
M  V30 7 2 7 8
M  V30 8 1 8 9
M  V30 9 1 9 10
M  V30 10 1 10 11
M  V30 11 1 11 12
M  V30 12 1 12 13
M  V30 13 1 13 14
M  V30 14 1 14 15
M  V30 15 1 15 16
M  V30 16 1 16 17
M  V30 17 1 17 18
M  V30 18 2 9 19
M  V30 19 1 19 20
M  V30 20 2 20 21
M  V30 21 1 21 22
M  V30 22 1 22 23
M  V30 23 2 23 24
M  V30 24 1 24 25
M  V30 25 2 25 26
M  V30 26 1 26 27
M  V30 27 1 26 28
M  V30 28 2 28 29
M  V30 29 1 29 30
M  V30 30 1 21 3
M  V30 31 1 29 23
M  V30 32 1 20 6
M  V30 33 1 18 13
M  V30 34 1 4 31
M  V30 35 1 7 32
M  V30 36 1 10 33
M  V30 37 1 11 34
M  V30 38 1 11 35
M  V30 39 1 12 36
M  V30 40 1 12 37
M  V30 41 1 14 38
M  V30 42 1 14 39
M  V30 43 1 15 40
M  V30 44 1 15 41
M  V30 45 1 17 42
M  V30 46 1 17 43
M  V30 47 1 18 44
M  V30 48 1 18 45
M  V30 49 1 19 46
M  V30 50 1 22 47
M  V30 51 1 24 48
M  V30 52 1 25 49
M  V30 53 1 28 50
M  V30 END BOND
M  V30 END CTAB
M  END
>  <Dataset>  (827) 
ChEMBL_Kinases

>  <Ligand_Instance>  (827) 
nan

>  <PDB_ID>  (827) 
nan

>  <Standardized_SMILES>  (827) 
N#Cc1cnc2cnc(NCCN3CCOCC3)cc2c1Nc1ccc(Cl)cc1F

>  <Name>  (827) 
nan

>  <Pocket>  (827) 
nan

>  <ATP_Site>  (827) 
nan

>  <Peripheral>  (827) 
nan

>  <Num_H_Atoms_ProtBoundConf>  (827) 
nan

>  <Num_Resolved_Atoms>  (827) 
nan

>  <Num_Not_Resolved_Atoms>  (827) 
nan

$$$$
CHEMBL197077
     RDKit          3D

  0  0  0  0  0  0  0  0  0  0999 V3000
M  V30 BEGIN CTAB
M  V30 COUNTS 53 56 0 0 0
M  V30 BEGIN ATOM
M  V30 1 N 1.084782 0.545262 2.359731 0
M  V30 2 C 2.115554 -0.359059 2.029625 0
M  V30 3 N 2.161778 -1.094835 3.115087 0
M  V30 4 O 3.136994 -2.048407 2.956313 0
M  V30 5 N 3.574612 -2.107744 1.677235 0
M  V30 6 C 3.115825 -0.844594 1.100991 0
M  V30 7 N 2.614299 -1.068142 -0.257364 0
M  V30 8 N 3.203972 -0.151016 -1.178373 0
M  V30 9 N 2.449893 0.173909 -2.129274 0
M  V30 10 C 1.205204 -0.528347 -1.937570 0
M  V30 11 C 0.317134 0.293518 -1.103516 0
M  V30 12 O -0.792490 -0.276065 -0.809635 0
M  V30 13 N 0.671615 1.609790 -0.667297 0
M  V30 14 N -0.111197 2.460652 0.123945 0
M  V30 15 C -1.415317 2.448229 0.059274 0
M  V30 16 C -2.227264 3.342277 0.891150 0
M  V30 17 C -3.602704 3.322957 0.816528 0
M  V30 18 C -4.345520 4.170869 1.609313 0
M  V30 19 N -3.754182 5.026636 2.463883 0
M  V30 20 C -2.411972 5.079138 2.569463 0
M  V30 21 C -1.649060 4.220791 1.767336 0
M  V30 22 C 1.832858 -1.720432 -1.223511 0
M  V30 23 C 0.934663 -2.827934 -0.997074 0
M  V30 24 N -0.180936 -2.806980 -0.179269 0
M  V30 25 C -0.079250 -2.745337 1.216786 0
M  V30 26 C -0.952627 -3.777730 1.920375 0
M  V30 27 C -0.846889 -5.121890 1.282187 0
M  V30 28 C -1.205286 -5.027221 -0.179676 0
M  V30 29 C -1.321319 -3.578660 -0.606337 0
M  V30 30 H 0.052907 0.527116 2.220365 0
M  V30 31 H 1.313061 1.456759 2.850406 0
M  V30 32 H 3.298460 -2.923124 1.124149 0
M  V30 33 H 3.983525 -0.186339 1.163658 0
M  V30 34 H 0.736809 -0.835574 -2.895047 0
M  V30 35 H 1.610738 1.939346 -0.986487 0
M  V30 36 H -1.919504 1.770723 -0.615531 0
M  V30 37 H -4.067927 2.636565 0.131670 0
M  V30 38 H -5.437802 4.161805 1.556450 0
M  V30 39 H -1.932807 5.764558 3.254709 0
M  V30 40 H -0.557319 4.266081 1.855719 0
M  V30 41 H 2.600518 -2.071515 -2.019313 0
M  V30 42 H 1.514274 -3.785801 -0.723286 0
M  V30 43 H 0.553089 -3.153603 -2.033265 0
M  V30 44 H 0.954132 -2.991897 1.514577 0
M  V30 45 H -0.338107 -1.761838 1.661287 0
M  V30 46 H -0.537592 -3.865060 2.962260 0
M  V30 47 H -1.985162 -3.430951 2.006210 0
M  V30 48 H -1.571255 -5.789846 1.833176 0
M  V30 49 H 0.147114 -5.577499 1.464755 0
M  V30 50 H -2.205006 -5.488601 -0.341325 0
M  V30 51 H -0.444356 -5.569928 -0.784512 0
M  V30 52 H -2.220894 -3.159656 -0.136715 0
M  V30 53 H -1.484003 -3.555339 -1.686635 0
M  V30 END ATOM
M  V30 BEGIN BOND
M  V30 1 1 1 2
M  V30 2 2 2 3
M  V30 3 1 3 4
M  V30 4 1 4 5
M  V30 5 1 5 6
M  V30 6 1 6 7
M  V30 7 1 7 8
M  V30 8 2 8 9
M  V30 9 1 9 10
M  V30 10 1 10 11
M  V30 11 2 11 12
M  V30 12 1 11 13
M  V30 13 1 13 14
M  V30 14 2 14 15
M  V30 15 1 15 16
M  V30 16 2 16 17
M  V30 17 1 17 18
M  V30 18 2 18 19
M  V30 19 1 19 20
M  V30 20 2 20 21
M  V30 21 1 10 22
M  V30 22 1 22 23
M  V30 23 1 23 24
M  V30 24 1 24 25
M  V30 25 1 25 26
M  V30 26 1 26 27
M  V30 27 1 27 28
M  V30 28 1 28 29
M  V30 29 1 6 2
M  V30 30 1 22 7
M  V30 31 1 29 24
M  V30 32 1 21 16
M  V30 33 1 1 30
M  V30 34 1 1 31
M  V30 35 1 5 32
M  V30 36 1 6 33
M  V30 37 1 10 34
M  V30 38 1 13 35
M  V30 39 1 15 36
M  V30 40 1 17 37
M  V30 41 1 18 38
M  V30 42 1 20 39
M  V30 43 1 21 40
M  V30 44 1 22 41
M  V30 45 1 23 42
M  V30 46 1 23 43
M  V30 47 1 25 44
M  V30 48 1 25 45
M  V30 49 1 26 46
M  V30 50 1 26 47
M  V30 51 1 27 48
M  V30 52 1 27 49
M  V30 53 1 28 50
M  V30 54 1 28 51
M  V30 55 1 29 52
M  V30 56 1 29 53
M  V30 END BOND
M  V30 END CTAB
M  END
>  <Dataset>  (828) 
ChEMBL_Kinases

>  <Ligand_Instance>  (828) 
nan

>  <PDB_ID>  (828) 
nan

>  <Standardized_SMILES>  (828) 
NC1=NONC1N1N=NC(C(=O)N/N=C/c2ccncc2)C1CN1CCCCC1

>  <Name>  (828) 
nan

>  <Pocket>  (828) 
nan

>  <ATP_Site>  (828) 
nan

>  <Peripheral>  (828) 
nan

>  <Num_H_Atoms_ProtBoundConf>  (828) 
nan

>  <Num_Resolved_Atoms>  (828) 
nan

>  <Num_Not_Resolved_Atoms>  (828) 
nan

$$$$
CHEMBL1971051
     RDKit          3D

  0  0  0  0  0  0  0  0  0  0999 V3000
M  V30 BEGIN CTAB
M  V30 COUNTS 62 64 0 0 0
M  V30 BEGIN ATOM
M  V30 1 C 6.989518 -1.387296 -4.680714 0
M  V30 2 C 7.241682 -2.780531 -4.248727 0
M  V30 3 N 6.301844 -3.421002 -3.369567 0
M  V30 4 C 7.009710 -4.668661 -3.177535 0
M  V30 5 C 6.339039 -5.735497 -2.375841 0
M  V30 6 C 5.022115 -3.023033 -2.900589 0
M  V30 7 C 4.312669 -3.585285 -1.875080 0
M  V30 8 C 3.043711 -3.243640 -1.494028 0
M  V30 9 C 2.365130 -2.263233 -2.150018 0
M  V30 10 C 0.991709 -1.877086 -1.746510 0
M  V30 11 N 0.505311 -2.531736 -0.757535 0
M  V30 12 N -0.726663 -2.382628 -0.183376 0
M  V30 13 C -2.027714 -2.851998 -0.036842 0
M  V30 14 O -2.402281 -3.901555 -0.661735 0
M  V30 15 C -3.011738 -2.206530 0.805501 0
M  V30 16 C -4.211232 -2.838190 0.996582 0
M  V30 17 C -5.214342 -2.269253 1.801744 0
M  V30 18 C -5.005061 -1.050949 2.419842 0
M  V30 19 C -3.822490 -0.389708 2.253298 0
M  V30 20 S -3.334985 1.145725 2.930148 0
M  V30 21 O -1.814129 1.225623 2.998793 0
M  V30 22 O -3.860761 1.301896 4.330906 0
M  V30 23 N -3.843279 2.495149 1.983049 0
M  V30 24 C -4.762458 3.405799 2.611110 0
M  V30 25 C -5.745237 2.944284 3.449669 0
M  V30 26 C -6.497129 3.927405 4.039076 0
M  V30 27 C -6.387858 5.302333 3.894677 0
M  V30 28 C -5.368919 5.678432 3.025903 0
M  V30 29 C -4.564817 4.765356 2.388085 0
M  V30 30 O -3.554768 5.166618 1.508917 0
M  V30 31 C -3.230563 6.508671 1.234615 0
M  V30 32 C -2.891985 -0.985266 1.467859 0
M  V30 33 C 3.029341 -1.638734 -3.214931 0
M  V30 34 C 4.303617 -2.043558 -3.531536 0
M  V30 35 H 6.673183 -0.675621 -3.916081 0
M  V30 36 H 8.028733 -0.984250 -4.995576 0
M  V30 37 H 6.448256 -1.339688 -5.648872 0
M  V30 38 H 8.235749 -2.734053 -3.675432 0
M  V30 39 H 7.476787 -3.366274 -5.172932 0
M  V30 40 H 7.998297 -4.485673 -2.664308 0
M  V30 41 H 7.233167 -5.165316 -4.172816 0
M  V30 42 H 5.309699 -5.968024 -2.676283 0
M  V30 43 H 6.887184 -6.723354 -2.638270 0
M  V30 44 H 6.527415 -5.685396 -1.285513 0
M  V30 45 H 4.729288 -4.336324 -1.248185 0
M  V30 46 H 2.536571 -3.726322 -0.673823 0
M  V30 47 H 0.377790 -1.110594 -2.191383 0
M  V30 48 H -0.484727 -1.516079 0.372675 0
M  V30 49 H -4.420304 -3.788209 0.533313 0
M  V30 50 H -6.148841 -2.791919 1.935156 0
M  V30 51 H -5.734542 -0.552490 3.057211 0
M  V30 52 H -3.533866 2.687608 1.008310 0
M  V30 53 H -5.948597 1.914769 3.651686 0
M  V30 54 H -7.293005 3.594272 4.710415 0
M  V30 55 H -7.043954 5.978139 4.419878 0
M  V30 56 H -5.215070 6.743360 2.851204 0
M  V30 57 H -2.128884 6.528422 0.980429 0
M  V30 58 H -3.377152 7.200983 2.081278 0
M  V30 59 H -3.749294 6.880314 0.314569 0
M  V30 60 H -1.919629 -0.516644 1.286955 0
M  V30 61 H 2.415671 -0.874653 -3.677793 0
M  V30 62 H 4.588354 -1.456522 -4.379545 0
M  V30 END ATOM
M  V30 BEGIN BOND
M  V30 1 1 1 2
M  V30 2 1 2 3
M  V30 3 1 3 4
M  V30 4 1 4 5
M  V30 5 1 3 6
M  V30 6 2 6 7
M  V30 7 1 7 8
M  V30 8 2 8 9
M  V30 9 1 9 10
M  V30 10 2 10 11
M  V30 11 1 11 12
M  V30 12 1 12 13
M  V30 13 2 13 14
M  V30 14 1 13 15
M  V30 15 2 15 16
M  V30 16 1 16 17
M  V30 17 2 17 18
M  V30 18 1 18 19
M  V30 19 1 19 20
M  V30 20 2 20 21
M  V30 21 2 20 22
M  V30 22 1 20 23
M  V30 23 1 23 24
M  V30 24 2 24 25
M  V30 25 1 25 26
M  V30 26 2 26 27
M  V30 27 1 27 28
M  V30 28 2 28 29
M  V30 29 1 29 30
M  V30 30 1 30 31
M  V30 31 2 19 32
M  V30 32 1 9 33
M  V30 33 2 33 34
M  V30 34 1 34 6
M  V30 35 1 32 15
M  V30 36 1 29 24
M  V30 37 1 1 35
M  V30 38 1 1 36
M  V30 39 1 1 37
M  V30 40 1 2 38
M  V30 41 1 2 39
M  V30 42 1 4 40
M  V30 43 1 4 41
M  V30 44 1 5 42
M  V30 45 1 5 43
M  V30 46 1 5 44
M  V30 47 1 7 45
M  V30 48 1 8 46
M  V30 49 1 10 47
M  V30 50 1 12 48
M  V30 51 1 16 49
M  V30 52 1 17 50
M  V30 53 1 18 51
M  V30 54 1 23 52
M  V30 55 1 25 53
M  V30 56 1 26 54
M  V30 57 1 27 55
M  V30 58 1 28 56
M  V30 59 1 31 57
M  V30 60 1 31 58
M  V30 61 1 31 59
M  V30 62 1 32 60
M  V30 63 1 33 61
M  V30 64 1 34 62
M  V30 END BOND
M  V30 END CTAB
M  END
>  <Dataset>  (829) 
ChEMBL_Kinases

>  <Ligand_Instance>  (829) 
nan

>  <PDB_ID>  (829) 
nan

>  <Standardized_SMILES>  (829) 
CCN(CC)c1ccc(/C=N/NC(=O)c2cccc(S(=O)(=O)Nc3ccccc3OC)c2)cc1

>  <Name>  (829) 
nan

>  <Pocket>  (829) 
nan

>  <ATP_Site>  (829) 
nan

>  <Peripheral>  (829) 
nan

>  <Num_H_Atoms_ProtBoundConf>  (829) 
nan

>  <Num_Resolved_Atoms>  (829) 
nan

>  <Num_Not_Resolved_Atoms>  (829) 
nan

$$$$
CHEMBL1971185
     RDKit          3D

  0  0  0  0  0  0  0  0  0  0999 V3000
M  V30 BEGIN CTAB
M  V30 COUNTS 30 31 0 0 0
M  V30 BEGIN ATOM
M  V30 1 O -1.154899 -2.555213 0.851779 0
M  V30 2 C -0.398698 -1.553398 0.797135 0
M  V30 3 C 1.034755 -1.726433 0.601499 0
M  V30 4 C 1.568637 -2.913636 0.478765 0
M  V30 5 C 2.989663 -3.172241 0.280954 0
M  V30 6 C 3.947265 -2.186262 0.199071 0
M  V30 7 C 5.292837 -2.435336 0.011563 0
M  V30 8 C 5.678653 -3.755162 -0.097537 0
M  V30 9 N 4.763210 -4.761599 -0.022091 0
M  V30 10 C 3.449911 -4.467601 0.163176 0
M  V30 11 C -0.972787 -0.219916 0.931645 0
M  V30 12 C -2.270230 -0.058722 1.108959 0
M  V30 13 C -2.940981 1.224067 1.253898 0
M  V30 14 C -2.292864 2.439144 1.222813 0
M  V30 15 C -2.964184 3.638357 1.364159 0
M  V30 16 C -4.343788 3.657016 1.546019 0
M  V30 17 N -4.935439 2.451766 1.570127 0
M  V30 18 C -4.290124 1.291538 1.433925 0
M  V30 19 H 1.670759 -0.856155 0.556765 0
M  V30 20 H 0.886167 -3.741348 0.531496 0
M  V30 21 H 3.660583 -1.158874 0.282208 0
M  V30 22 H 5.996218 -1.607820 -0.044013 0
M  V30 23 H 6.727394 -4.006599 -0.246224 0
M  V30 24 H 2.760453 -5.296996 0.216840 0
M  V30 25 H -0.342704 0.656788 0.887949 0
M  V30 26 H -2.856210 -0.964767 1.145557 0
M  V30 27 H -1.222037 2.474251 1.083849 0
M  V30 28 H -2.451053 4.597001 1.339405 0
M  V30 29 H -4.863146 4.590736 1.655637 0
M  V30 30 H -4.924484 0.400270 1.477576 0
M  V30 END ATOM
M  V30 BEGIN BOND
M  V30 1 2 1 2
M  V30 2 1 2 3
M  V30 3 2 3 4
M  V30 4 1 4 5
M  V30 5 2 5 6
M  V30 6 1 6 7
M  V30 7 2 7 8
M  V30 8 1 8 9
M  V30 9 2 9 10
M  V30 10 1 2 11
M  V30 11 2 11 12
M  V30 12 1 12 13
M  V30 13 2 13 14
M  V30 14 1 14 15
M  V30 15 2 15 16
M  V30 16 1 16 17
M  V30 17 2 17 18
M  V30 18 1 10 5
M  V30 19 1 18 13
M  V30 20 1 3 19
M  V30 21 1 4 20
M  V30 22 1 6 21
M  V30 23 1 7 22
M  V30 24 1 8 23
M  V30 25 1 10 24
M  V30 26 1 11 25
M  V30 27 1 12 26
M  V30 28 1 14 27
M  V30 29 1 15 28
M  V30 30 1 16 29
M  V30 31 1 18 30
M  V30 END BOND
M  V30 END CTAB
M  END
>  <Dataset>  (830) 
ChEMBL_Kinases

>  <Ligand_Instance>  (830) 
nan

>  <PDB_ID>  (830) 
nan

>  <Standardized_SMILES>  (830) 
O=C(/C=C/c1cccnc1)/C=C/c1cccnc1

>  <Name>  (830) 
nan

>  <Pocket>  (830) 
nan

>  <ATP_Site>  (830) 
nan

>  <Peripheral>  (830) 
nan

>  <Num_H_Atoms_ProtBoundConf>  (830) 
nan

>  <Num_Resolved_Atoms>  (830) 
nan

>  <Num_Not_Resolved_Atoms>  (830) 
nan

$$$$
CHEMBL197164
     RDKit          3D

  0  0  0  0  0  0  0  0  0  0999 V3000
M  V30 BEGIN CTAB
M  V30 COUNTS 50 53 0 0 0
M  V30 BEGIN ATOM
M  V30 1 N -1.633105 -4.408216 4.174099 0
M  V30 2 C -0.846423 -3.791596 3.610243 0
M  V30 3 C 0.144273 -3.033609 2.930070 0
M  V30 4 C 1.411641 -2.869603 3.425485 0
M  V30 5 N 2.393456 -2.149222 2.803726 0
M  V30 6 C 2.127476 -1.545910 1.618549 0
M  V30 7 C 3.050174 -0.792854 0.917427 0
M  V30 8 N 2.697989 -0.213995 -0.266270 0
M  V30 9 C 1.441603 -0.361907 -0.782958 0
M  V30 10 N 1.365608 0.361883 -2.014197 0
M  V30 11 C 0.602833 1.561920 -1.623060 0
M  V30 12 C 1.272929 2.303626 -0.513290 0
M  V30 13 N 0.618050 3.496866 -0.071147 0
M  V30 14 C 1.450151 4.095674 0.976649 0
M  V30 15 C 1.604448 3.145264 2.152620 0
M  V30 16 O 0.455046 2.409152 2.381174 0
M  V30 17 C -0.691583 3.101216 1.949128 0
M  V30 18 C -0.699738 3.282131 0.441043 0
M  V30 19 C 0.506984 -1.110054 -0.098446 0
M  V30 20 C 0.861404 -1.695651 1.098949 0
M  V30 21 C -0.162761 -2.426766 1.713612 0
M  V30 22 N -1.462274 -2.528998 1.114549 0
M  V30 23 C -1.817381 -3.628378 0.273824 0
M  V30 24 C -3.024831 -3.712607 -0.385550 0
M  V30 25 C -3.348912 -4.785589 -1.186711 0
M  V30 26 C -2.420516 -5.802875 -1.322858 0
M  V30 27 Cl -2.756781 -7.197339 -2.319922 0
M  V30 28 C -1.188076 -5.770931 -0.681921 0
M  V30 29 Cl 0.025451 -7.023010 -0.812989 0
M  V30 30 C -0.917242 -4.655276 0.117763 0
M  V30 31 H 1.719924 -3.310599 4.361728 0
M  V30 32 H 4.046123 -0.682924 1.334923 0
M  V30 33 H 1.821259 -0.091908 -2.807794 0
M  V30 34 H -0.439764 1.293369 -1.417582 0
M  V30 35 H 0.623567 2.215870 -2.536703 0
M  V30 36 H 1.377834 1.632471 0.386974 0
M  V30 37 H 2.320354 2.587118 -0.765599 0
M  V30 38 H 1.062706 5.079029 1.304774 0
M  V30 39 H 2.457494 4.266896 0.550656 0
M  V30 40 H 2.440230 2.463658 1.911890 0
M  V30 41 H 1.915138 3.736378 3.039143 0
M  V30 42 H -0.798737 4.045300 2.485671 0
M  V30 43 H -1.551252 2.457058 2.200140 0
M  V30 44 H -1.186762 2.457195 -0.053078 0
M  V30 45 H -1.305058 4.216807 0.249351 0
M  V30 46 H -0.428446 -1.133623 -0.628957 0
M  V30 47 H -2.205150 -1.799324 1.270143 0
M  V30 48 H -3.745857 -2.889235 -0.261526 0
M  V30 49 H -4.310346 -4.858739 -1.714917 0
M  V30 50 H 0.028373 -4.579580 0.640436 0
M  V30 END ATOM
M  V30 BEGIN BOND
M  V30 1 3 1 2
M  V30 2 1 2 3
M  V30 3 2 3 4
M  V30 4 1 4 5
M  V30 5 2 5 6
M  V30 6 1 6 7
M  V30 7 2 7 8
M  V30 8 1 8 9
M  V30 9 1 9 10
M  V30 10 1 10 11
M  V30 11 1 11 12
M  V30 12 1 12 13
M  V30 13 1 13 14
M  V30 14 1 14 15
M  V30 15 1 15 16
M  V30 16 1 16 17
M  V30 17 1 17 18
M  V30 18 2 9 19
M  V30 19 1 19 20
M  V30 20 2 20 21
M  V30 21 1 21 22
M  V30 22 1 22 23
M  V30 23 2 23 24
M  V30 24 1 24 25
M  V30 25 2 25 26
M  V30 26 1 26 27
M  V30 27 1 26 28
M  V30 28 1 28 29
M  V30 29 2 28 30
M  V30 30 1 21 3
M  V30 31 1 30 23
M  V30 32 1 20 6
M  V30 33 1 18 13
M  V30 34 1 4 31
M  V30 35 1 7 32
M  V30 36 1 10 33
M  V30 37 1 11 34
M  V30 38 1 11 35
M  V30 39 1 12 36
M  V30 40 1 12 37
M  V30 41 1 14 38
M  V30 42 1 14 39
M  V30 43 1 15 40
M  V30 44 1 15 41
M  V30 45 1 17 42
M  V30 46 1 17 43
M  V30 47 1 18 44
M  V30 48 1 18 45
M  V30 49 1 19 46
M  V30 50 1 22 47
M  V30 51 1 24 48
M  V30 52 1 25 49
M  V30 53 1 30 50
M  V30 END BOND
M  V30 END CTAB
M  END
>  <Dataset>  (831) 
ChEMBL_Kinases

>  <Ligand_Instance>  (831) 
nan

>  <PDB_ID>  (831) 
nan

>  <Standardized_SMILES>  (831) 
N#Cc1cnc2cnc(NCCN3CCOCC3)cc2c1Nc1ccc(Cl)c(Cl)c1

>  <Name>  (831) 
nan

>  <Pocket>  (831) 
nan

>  <ATP_Site>  (831) 
nan

>  <Peripheral>  (831) 
nan

>  <Num_H_Atoms_ProtBoundConf>  (831) 
nan

>  <Num_Resolved_Atoms>  (831) 
nan

>  <Num_Not_Resolved_Atoms>  (831) 
nan

$$$$
CHEMBL1971767
     RDKit          3D

  0  0  0  0  0  0  0  0  0  0999 V3000
M  V30 BEGIN CTAB
M  V30 COUNTS 51 54 0 0 0
M  V30 BEGIN ATOM
M  V30 1 C -6.962517 2.629221 -0.929854 0
M  V30 2 C -6.053085 1.546348 -1.352916 0
M  V30 3 C -5.054771 1.039563 -0.550919 0
M  V30 4 C -4.455209 0.058524 -1.317070 0
M  V30 5 C -3.332224 -0.846969 -1.086622 0
M  V30 6 O -2.326274 -0.558907 -1.818421 0
M  V30 7 N -3.059034 -1.991890 -0.242607 0
M  V30 8 N -1.696801 -2.271449 -0.653975 0
M  V30 9 C -0.787848 -1.446749 -0.179840 0
M  V30 10 C 0.604288 -1.220254 -0.231375 0
M  V30 11 S 1.072639 0.037348 -1.540676 0
M  V30 12 C 2.926290 -0.131784 -1.087231 0
M  V30 13 N 3.441096 0.827873 -2.063215 0
M  V30 14 C 4.037363 0.606703 -3.357101 0
M  V30 15 C 3.013563 1.127821 -4.374316 0
M  V30 16 O 2.933079 2.490209 -4.228210 0
M  V30 17 C 2.496038 2.881617 -2.979967 0
M  V30 18 C 3.371525 2.289862 -1.882012 0
M  V30 19 N 2.868367 -0.958588 -0.191663 0
M  V30 20 C 1.801817 -1.528865 0.280944 0
M  V30 21 C 1.880383 -2.478394 1.377057 0
M  V30 22 C 0.960578 -2.438599 2.415547 0
M  V30 23 C 1.110768 -3.353950 3.452302 0
M  V30 24 C 2.119749 -4.323736 3.540658 0
M  V30 25 C 3.021182 -4.321087 2.461926 0
M  V30 26 C 2.865713 -3.418361 1.448921 0
M  V30 27 C -5.098058 0.003397 -2.535090 0
M  V30 28 C -4.922712 -0.823358 -3.752147 0
M  V30 29 O -6.051823 0.921097 -2.503319 0
M  V30 30 H -6.405227 3.489468 -0.472276 0
M  V30 31 H -7.703031 2.304624 -0.183548 0
M  V30 32 H -7.411722 3.053228 -1.862354 0
M  V30 33 H -4.695592 1.254455 0.467961 0
M  V30 34 H -3.895368 -2.200384 0.335780 0
M  V30 35 H -1.188455 -0.654197 0.478314 0
M  V30 36 H 4.961801 1.206652 -3.498935 0
M  V30 37 H 4.184767 -0.483177 -3.562158 0
M  V30 38 H 2.044949 0.609657 -4.113321 0
M  V30 39 H 3.316228 0.890836 -5.395030 0
M  V30 40 H 1.427951 2.593085 -2.814063 0
M  V30 41 H 2.564229 3.982060 -2.886209 0
M  V30 42 H 2.859688 2.499683 -0.923068 0
M  V30 43 H 4.347303 2.772451 -1.872328 0
M  V30 44 H 0.128438 -1.718399 2.443290 0
M  V30 45 H 0.365880 -3.293544 4.258533 0
M  V30 46 H 2.137517 -4.984709 4.410555 0
M  V30 47 H 3.775706 -5.087948 2.592054 0
M  V30 48 H 3.617172 -3.505877 0.670077 0
M  V30 49 H -4.254200 -1.675294 -3.578170 0
M  V30 50 H -5.890877 -1.239157 -4.103650 0
M  V30 51 H -4.463832 -0.187749 -4.544500 0
M  V30 END ATOM
M  V30 BEGIN BOND
M  V30 1 1 1 2
M  V30 2 2 2 3
M  V30 3 1 3 4
M  V30 4 1 4 5
M  V30 5 2 5 6
M  V30 6 1 5 7
M  V30 7 1 7 8
M  V30 8 2 8 9
M  V30 9 1 9 10
M  V30 10 1 10 11
M  V30 11 1 11 12
M  V30 12 1 12 13
M  V30 13 1 13 14
M  V30 14 1 14 15
M  V30 15 1 15 16
M  V30 16 1 16 17
M  V30 17 1 17 18
M  V30 18 2 12 19
M  V30 19 1 19 20
M  V30 20 1 20 21
M  V30 21 2 21 22
M  V30 22 1 22 23
M  V30 23 2 23 24
M  V30 24 1 24 25
M  V30 25 2 25 26
M  V30 26 2 4 27
M  V30 27 1 27 28
M  V30 28 1 27 29
M  V30 29 1 29 2
M  V30 30 2 20 10
M  V30 31 1 26 21
M  V30 32 1 18 13
M  V30 33 1 1 30
M  V30 34 1 1 31
M  V30 35 1 1 32
M  V30 36 1 3 33
M  V30 37 1 7 34
M  V30 38 1 9 35
M  V30 39 1 14 36
M  V30 40 1 14 37
M  V30 41 1 15 38
M  V30 42 1 15 39
M  V30 43 1 17 40
M  V30 44 1 17 41
M  V30 45 1 18 42
M  V30 46 1 18 43
M  V30 47 1 22 44
M  V30 48 1 23 45
M  V30 49 1 24 46
M  V30 50 1 25 47
M  V30 51 1 26 48
M  V30 52 1 28 49
M  V30 53 1 28 50
M  V30 54 1 28 51
M  V30 END BOND
M  V30 END CTAB
M  END
>  <Dataset>  (832) 
ChEMBL_Kinases

>  <Ligand_Instance>  (832) 
nan

>  <PDB_ID>  (832) 
nan

>  <Standardized_SMILES>  (832) 
Cc1cc(C(=O)N/N=C/c2sc(N3CCOCC3)nc2-c2ccccc2)c(C)o1

>  <Name>  (832) 
nan

>  <Pocket>  (832) 
nan

>  <ATP_Site>  (832) 
nan

>  <Peripheral>  (832) 
nan

>  <Num_H_Atoms_ProtBoundConf>  (832) 
nan

>  <Num_Resolved_Atoms>  (832) 
nan

>  <Num_Not_Resolved_Atoms>  (832) 
nan

$$$$
CHEMBL1969475
     RDKit          3D

  0  0  0  0  0  0  0  0  0  0999 V3000
M  V30 BEGIN CTAB
M  V30 COUNTS 40 42 0 0 0
M  V30 BEGIN ATOM
M  V30 1 C -0.013887 -1.410100 -0.328404 0
M  V30 2 C 0.591143 -1.101431 0.986972 0
M  V30 3 N 1.670659 -0.413531 0.965295 0
M  V30 4 N 2.301633 0.068063 -0.185299 0
M  V30 5 C 3.518737 0.780235 -0.176200 0
M  V30 6 S 4.618145 1.240144 0.913600 0
M  V30 7 N 3.935542 1.232434 -1.465381 0
M  V30 8 C 3.399836 1.139687 -2.805499 0
M  V30 9 C 2.917045 1.055104 -4.017158 0
M  V30 10 C 1.899204 1.280630 -4.888177 0
M  V30 11 C 0.798727 1.899917 -4.248435 0
M  V30 12 F -0.177653 2.112509 -5.134272 0
M  V30 13 C 0.970060 2.143698 -2.928569 0
M  V30 14 C 2.165370 1.807267 -2.210739 0
M  V30 15 C 0.014729 -1.471264 2.318787 0
M  V30 16 C 0.756176 -1.135764 3.400451 0
M  V30 17 C 0.073195 -1.394367 4.551586 0
M  V30 18 C -1.222992 -1.930250 4.813500 0
M  V30 19 C -1.793629 -2.202566 3.515756 0
M  V30 20 C -1.238342 -1.999361 2.232619 0
M  V30 21 O -3.097216 -2.752636 3.464915 0
M  V30 22 C -3.976273 -2.743142 4.547877 0
M  V30 23 C -3.446785 -1.913949 5.695116 0
M  V30 24 O -2.038884 -2.237061 5.860718 0
M  V30 25 H -0.715693 -2.294459 -0.170159 0
M  V30 26 H -0.636588 -0.617339 -0.766415 0
M  V30 27 H 0.738643 -1.845785 -1.041472 0
M  V30 28 H 1.784759 -0.167761 -1.028152 0
M  V30 29 H 4.780469 1.774705 -1.788283 0
M  V30 30 H 3.916261 0.571903 -4.310762 0
M  V30 31 H 2.154988 0.935157 -5.862786 0
M  V30 32 H 0.007980 2.622469 -2.642495 0
M  V30 33 H 1.787859 2.206776 -1.213534 0
M  V30 34 H 1.728310 -0.731290 3.474150 0
M  V30 35 H 0.468419 -1.202073 5.571406 0
M  V30 36 H -1.816714 -2.260562 1.373381 0
M  V30 37 H -4.236136 -3.749011 4.938932 0
M  V30 38 H -4.931654 -2.270819 4.238870 0
M  V30 39 H -3.982172 -2.053877 6.623866 0
M  V30 40 H -3.469788 -0.820747 5.430226 0
M  V30 END ATOM
M  V30 BEGIN BOND
M  V30 1 1 1 2
M  V30 2 2 2 3
M  V30 3 1 3 4
M  V30 4 1 4 5
M  V30 5 2 5 6
M  V30 6 1 5 7
M  V30 7 1 7 8
M  V30 8 2 8 9
M  V30 9 1 9 10
M  V30 10 2 10 11
M  V30 11 1 11 12
M  V30 12 1 11 13
M  V30 13 2 13 14
M  V30 14 1 2 15
M  V30 15 2 15 16
M  V30 16 1 16 17
M  V30 17 2 17 18
M  V30 18 1 18 19
M  V30 19 2 19 20
M  V30 20 1 19 21
M  V30 21 1 21 22
M  V30 22 1 22 23
M  V30 23 1 23 24
M  V30 24 1 14 8
M  V30 25 1 20 15
M  V30 26 1 24 18
M  V30 27 1 1 25
M  V30 28 1 1 26
M  V30 29 1 1 27
M  V30 30 1 4 28
M  V30 31 1 7 29
M  V30 32 1 9 30
M  V30 33 1 10 31
M  V30 34 1 13 32
M  V30 35 1 14 33
M  V30 36 1 16 34
M  V30 37 1 17 35
M  V30 38 1 20 36
M  V30 39 1 22 37
M  V30 40 1 22 38
M  V30 41 1 23 39
M  V30 42 1 23 40
M  V30 END BOND
M  V30 END CTAB
M  END
>  <Dataset>  (833) 
ChEMBL_Kinases

>  <Ligand_Instance>  (833) 
nan

>  <PDB_ID>  (833) 
nan

>  <Standardized_SMILES>  (833) 
C/C(=N\NC(=S)Nc1ccc(F)cc1)c1ccc2c(c1)OCCO2

>  <Name>  (833) 
nan

>  <Pocket>  (833) 
nan

>  <ATP_Site>  (833) 
nan

>  <Peripheral>  (833) 
nan

>  <Num_H_Atoms_ProtBoundConf>  (833) 
nan

>  <Num_Resolved_Atoms>  (833) 
nan

>  <Num_Not_Resolved_Atoms>  (833) 
nan

$$$$
CHEMBL201417
     RDKit          3D

  0  0  0  0  0  0  0  0  0  0999 V3000
M  V30 BEGIN CTAB
M  V30 COUNTS 42 44 0 0 0
M  V30 BEGIN ATOM
M  V30 1 C -0.847808 -5.120400 0.549303 0
M  V30 2 N -0.771237 -3.696695 0.897764 0
M  V30 3 C 0.239433 -2.927771 0.446970 0
M  V30 4 C 0.330142 -1.590442 0.762207 0
M  V30 5 C 1.437344 -0.804537 0.252950 0
M  V30 6 O 1.653706 0.415464 0.450664 0
M  V30 7 N 2.453893 -1.354457 -0.568965 0
M  V30 8 O 3.506619 -0.672398 -1.071633 0
M  V30 9 C 3.128878 -0.154238 -2.301729 0
M  V30 10 C 4.232979 0.576540 -2.996917 0
M  V30 11 C 4.912671 1.753162 -2.439150 0
M  V30 12 C 5.641366 0.430356 -2.575542 0
M  V30 13 C -0.644106 -1.063984 1.552297 0
M  V30 14 N -0.646420 0.291320 1.940264 0
M  V30 15 C -1.625478 0.871785 2.788171 0
M  V30 16 C -2.515160 1.906433 2.483559 0
M  V30 17 C -3.433277 2.429534 3.357184 0
M  V30 18 C -3.479858 1.897344 4.620509 0
M  V30 19 Br -4.762582 2.630396 5.832548 0
M  V30 20 C -2.633827 0.876141 4.992777 0
M  V30 21 C -1.735173 0.383841 4.095433 0
M  V30 22 F -0.962652 -0.615587 4.612814 0
M  V30 23 C -1.683111 -1.826547 2.023212 0
M  V30 24 C -1.733206 -3.161271 1.681991 0
M  V30 25 O -2.657870 -3.945837 2.071402 0
M  V30 26 H -1.623341 -5.598158 1.180658 0
M  V30 27 H -1.063385 -5.210149 -0.537897 0
M  V30 28 H 0.098642 -5.640609 0.795809 0
M  V30 29 H 0.947920 -3.462688 -0.169859 0
M  V30 30 H 2.473007 -2.355112 -0.860222 0
M  V30 31 H 2.717845 -0.933775 -2.973857 0
M  V30 32 H 2.300326 0.586871 -2.157172 0
M  V30 33 H 4.083722 0.629381 -4.115556 0
M  V30 34 H 4.736174 2.116811 -1.407182 0
M  V30 35 H 5.253441 2.575436 -3.102899 0
M  V30 36 H 6.432860 0.371125 -3.344812 0
M  V30 37 H 5.935948 -0.047830 -1.614443 0
M  V30 38 H -0.083912 1.132492 1.789511 0
M  V30 39 H -2.427222 2.280080 1.474925 0
M  V30 40 H -4.053431 3.233214 2.964606 0
M  V30 41 H -2.760645 0.538066 6.009100 0
M  V30 42 H -2.508325 -1.535850 2.642920 0
M  V30 END ATOM
M  V30 BEGIN BOND
M  V30 1 1 1 2
M  V30 2 1 2 3
M  V30 3 2 3 4
M  V30 4 1 4 5
M  V30 5 2 5 6
M  V30 6 1 5 7
M  V30 7 1 7 8
M  V30 8 1 8 9
M  V30 9 1 9 10
M  V30 10 1 10 11
M  V30 11 1 11 12
M  V30 12 1 4 13
M  V30 13 1 13 14
M  V30 14 1 14 15
M  V30 15 2 15 16
M  V30 16 1 16 17
M  V30 17 2 17 18
M  V30 18 1 18 19
M  V30 19 1 18 20
M  V30 20 2 20 21
M  V30 21 1 21 22
M  V30 22 2 13 23
M  V30 23 1 23 24
M  V30 24 2 24 25
M  V30 25 1 24 2
M  V30 26 1 12 10
M  V30 27 1 21 15
M  V30 28 1 1 26
M  V30 29 1 1 27
M  V30 30 1 1 28
M  V30 31 1 3 29
M  V30 32 1 7 30
M  V30 33 1 9 31
M  V30 34 1 9 32
M  V30 35 1 10 33
M  V30 36 1 11 34
M  V30 37 1 11 35
M  V30 38 1 12 36
M  V30 39 1 12 37
M  V30 40 1 14 38
M  V30 41 1 16 39
M  V30 42 1 17 40
M  V30 43 1 20 41
M  V30 44 1 23 42
M  V30 END BOND
M  V30 END CTAB
M  END
>  <Dataset>  (834) 
ChEMBL_Kinases

>  <Ligand_Instance>  (834) 
nan

>  <PDB_ID>  (834) 
nan

>  <Standardized_SMILES>  (834) 
Cn1cc(C(=O)NOCC2CC2)c(Nc2ccc(Br)cc2F)cc1=O

>  <Name>  (834) 
nan

>  <Pocket>  (834) 
nan

>  <ATP_Site>  (834) 
nan

>  <Peripheral>  (834) 
nan

>  <Num_H_Atoms_ProtBoundConf>  (834) 
nan

>  <Num_Resolved_Atoms>  (834) 
nan

>  <Num_Not_Resolved_Atoms>  (834) 
nan

$$$$
CHEMBL201379
     RDKit          3D

  0  0  0  0  0  0  0  0  0  0999 V3000
M  V30 BEGIN CTAB
M  V30 COUNTS 42 44 0 0 0
M  V30 BEGIN ATOM
M  V30 1 C 2.728098 -4.716257 2.408343 0
M  V30 2 N 1.751806 -3.853316 1.726193 0
M  V30 3 C 1.969407 -2.525722 1.638830 0
M  V30 4 C 1.053872 -1.722237 1.000031 0
M  V30 5 C 1.277061 -0.314374 0.873232 0
M  V30 6 O 0.562347 0.531495 0.281383 0
M  V30 7 N 2.398018 0.306468 1.438589 0
M  V30 8 O 2.470035 1.660395 1.229941 0
M  V30 9 C 3.189646 1.806948 0.022217 0
M  V30 10 C 3.347865 3.249508 -0.334129 0
M  V30 11 C 4.053844 4.123712 0.607743 0
M  V30 12 C 2.519712 4.223907 0.485956 0
M  V30 13 C -0.077802 -2.292424 0.457708 0
M  V30 14 N -1.116400 -1.582276 -0.203154 0
M  V30 15 C -2.415426 -1.145109 0.175705 0
M  V30 16 C -3.330386 -1.730348 -0.710187 0
M  V30 17 C -4.705063 -1.496774 -0.595702 0
M  V30 18 C -5.160682 -0.676178 0.407531 0
M  V30 19 Br -6.989485 -0.248005 0.712143 0
M  V30 20 C -4.262707 -0.106298 1.271294 0
M  V30 21 C -2.908801 -0.328922 1.168396 0
M  V30 22 F -1.913079 0.154464 1.944521 0
M  V30 23 C -0.300885 -3.672074 0.549693 0
M  V30 24 Cl -1.664976 -4.544733 -0.075967 0
M  V30 25 C 0.648043 -4.465976 1.205136 0
M  V30 26 O 0.526695 -5.711646 1.332977 0
M  V30 27 H 2.820407 -5.639678 1.828419 0
M  V30 28 H 3.658656 -4.187694 2.606002 0
M  V30 29 H 2.264724 -5.022611 3.390034 0
M  V30 30 H 2.878633 -2.175099 2.092184 0
M  V30 31 H 3.146360 -0.175467 1.983286 0
M  V30 32 H 2.637859 1.278626 -0.792638 0
M  V30 33 H 4.189033 1.325164 0.207571 0
M  V30 34 H 3.424846 3.431327 -1.436639 0
M  V30 35 H 4.591816 5.017515 0.176994 0
M  V30 36 H 4.444850 3.719027 1.561592 0
M  V30 37 H 1.942617 3.795970 1.335768 0
M  V30 38 H 2.098128 5.077904 -0.073763 0
M  V30 39 H -0.726484 -1.399693 -1.155396 0
M  V30 40 H -3.147404 -2.404787 -1.561760 0
M  V30 41 H -5.466653 -1.906681 -1.232740 0
M  V30 42 H -4.543252 0.549404 2.084376 0
M  V30 END ATOM
M  V30 BEGIN BOND
M  V30 1 1 1 2
M  V30 2 1 2 3
M  V30 3 2 3 4
M  V30 4 1 4 5
M  V30 5 2 5 6
M  V30 6 1 5 7
M  V30 7 1 7 8
M  V30 8 1 8 9
M  V30 9 1 9 10
M  V30 10 1 10 11
M  V30 11 1 11 12
M  V30 12 1 4 13
M  V30 13 1 13 14
M  V30 14 1 14 15
M  V30 15 2 15 16
M  V30 16 1 16 17
M  V30 17 2 17 18
M  V30 18 1 18 19
M  V30 19 1 18 20
M  V30 20 2 20 21
M  V30 21 1 21 22
M  V30 22 2 13 23
M  V30 23 1 23 24
M  V30 24 1 23 25
M  V30 25 2 25 26
M  V30 26 1 25 2
M  V30 27 1 12 10
M  V30 28 1 21 15
M  V30 29 1 1 27
M  V30 30 1 1 28
M  V30 31 1 1 29
M  V30 32 1 3 30
M  V30 33 1 7 31
M  V30 34 1 9 32
M  V30 35 1 9 33
M  V30 36 1 10 34
M  V30 37 1 11 35
M  V30 38 1 11 36
M  V30 39 1 12 37
M  V30 40 1 12 38
M  V30 41 1 14 39
M  V30 42 1 16 40
M  V30 43 1 17 41
M  V30 44 1 20 42
M  V30 END BOND
M  V30 END CTAB
M  END
>  <Dataset>  (835) 
ChEMBL_Kinases

>  <Ligand_Instance>  (835) 
nan

>  <PDB_ID>  (835) 
nan

>  <Standardized_SMILES>  (835) 
Cn1cc(C(=O)NOCC2CC2)c(Nc2ccc(Br)cc2F)c(Cl)c1=O

>  <Name>  (835) 
nan

>  <Pocket>  (835) 
nan

>  <ATP_Site>  (835) 
nan

>  <Peripheral>  (835) 
nan

>  <Num_H_Atoms_ProtBoundConf>  (835) 
nan

>  <Num_Resolved_Atoms>  (835) 
nan

>  <Num_Not_Resolved_Atoms>  (835) 
nan

$$$$
CHEMBL2012703
     RDKit          3D

  0  0  0  0  0  0  0  0  0  0999 V3000
M  V30 BEGIN CTAB
M  V30 COUNTS 59 62 0 0 0
M  V30 BEGIN ATOM
M  V30 1 C 1.835102 1.106668 0.175178 0
M  V30 2 C 1.429791 -0.082685 0.969251 0
M  V30 3 C 2.266449 -0.449263 2.031124 0
M  V30 4 N 3.456425 0.264886 2.319509 0
M  V30 5 C 4.428444 0.076000 3.344595 0
M  V30 6 C 3.951009 0.392904 4.743068 0
M  V30 7 N 5.100965 0.124013 5.612354 0
M  V30 8 C 4.808360 0.378488 6.987478 0
M  V30 9 C 5.558013 -1.221249 5.444243 0
M  V30 10 C 1.865083 -1.553364 2.753765 0
M  V30 11 C 0.730681 -2.299154 2.511175 0
M  V30 12 Cl 0.282288 -3.691219 3.472934 0
M  V30 13 C -0.075031 -1.915685 1.459336 0
M  V30 14 C 0.292166 -0.816681 0.711885 0
M  V30 15 N -0.554758 -0.434924 -0.380755 0
M  V30 16 C -0.327610 -0.330206 -1.791771 0
M  V30 17 C -1.245228 -1.214689 -2.598068 0
M  V30 18 N -2.665412 -0.955663 -2.309564 0
M  V30 19 C -3.895633 -0.643138 -2.941488 0
M  V30 20 N -4.236262 0.626134 -2.590632 0
M  V30 21 C -5.378572 1.178436 -3.062807 0
M  V30 22 N -6.176505 0.471459 -3.878455 0
M  V30 23 C -5.885071 -0.783335 -4.253221 0
M  V30 24 N -6.403618 -1.767332 -4.996240 0
M  V30 25 N -5.629639 -2.838083 -4.975467 0
M  V30 26 C -4.522021 -2.623837 -4.198250 0
M  V30 27 C -3.393117 -3.539544 -3.937163 0
M  V30 28 F -3.773306 -4.753661 -4.546974 0
M  V30 29 F -3.157984 -3.829066 -2.634224 0
M  V30 30 F -2.267418 -3.208338 -4.678668 0
M  V30 31 C -4.719734 -1.332384 -3.766264 0
M  V30 32 C -2.796812 -1.075183 -0.849689 0
M  V30 33 C -1.932274 -0.058829 -0.137362 0
M  V30 34 H 2.066815 1.978512 0.823742 0
M  V30 35 H 1.037035 1.455400 -0.501359 0
M  V30 36 H 2.739333 0.905585 -0.421875 0
M  V30 37 H 3.670538 1.075685 1.673216 0
M  V30 38 H 4.771696 -1.005823 3.403269 0
M  V30 39 H 5.340049 0.676418 3.190627 0
M  V30 40 H 3.060902 -0.188713 5.012148 0
M  V30 41 H 3.756019 1.498696 4.830989 0
M  V30 42 H 5.244705 -0.426925 7.603394 0
M  V30 43 H 5.234267 1.352910 7.310947 0
M  V30 44 H 3.716916 0.430899 7.197063 0
M  V30 45 H 6.355302 -1.235424 4.668334 0
M  V30 46 H 6.031024 -1.566845 6.405774 0
M  V30 47 H 4.759248 -1.947863 5.228563 0
M  V30 48 H 2.443523 -1.927610 3.586893 0
M  V30 49 H -0.963694 -2.503387 1.272918 0
M  V30 50 H -0.540374 0.703594 -2.112564 0
M  V30 51 H 0.692905 -0.565470 -2.103889 0
M  V30 52 H -0.974599 -2.257446 -2.413615 0
M  V30 53 H -1.086591 -0.946603 -3.673172 0
M  V30 54 H -5.736050 2.179622 -2.842245 0
M  V30 55 H -7.314188 -1.667916 -5.517904 0
M  V30 56 H -3.846895 -0.947162 -0.503430 0
M  V30 57 H -2.401506 -2.078118 -0.579239 0
M  V30 58 H -2.214245 -0.179171 0.949477 0
M  V30 59 H -2.142034 0.970740 -0.487350 0
M  V30 END ATOM
M  V30 BEGIN BOND
M  V30 1 1 1 2
M  V30 2 2 2 3
M  V30 3 1 3 4
M  V30 4 1 4 5
M  V30 5 1 5 6
M  V30 6 1 6 7
M  V30 7 1 7 8
M  V30 8 1 7 9
M  V30 9 1 3 10
M  V30 10 2 10 11
M  V30 11 1 11 12
M  V30 12 1 11 13
M  V30 13 2 13 14
M  V30 14 1 14 15
M  V30 15 1 15 16
M  V30 16 1 16 17
M  V30 17 1 17 18
M  V30 18 1 18 19
M  V30 19 2 19 20
M  V30 20 1 20 21
M  V30 21 2 21 22
M  V30 22 1 22 23
M  V30 23 1 23 24
M  V30 24 1 24 25
M  V30 25 2 25 26
M  V30 26 1 26 27
M  V30 27 1 27 28
M  V30 28 1 27 29
M  V30 29 1 27 30
M  V30 30 1 26 31
M  V30 31 1 18 32
M  V30 32 1 32 33
M  V30 33 1 14 2
M  V30 34 1 33 15
M  V30 35 1 31 19
M  V30 36 2 31 23
M  V30 37 1 1 34
M  V30 38 1 1 35
M  V30 39 1 1 36
M  V30 40 1 4 37
M  V30 41 1 5 38
M  V30 42 1 5 39
M  V30 43 1 6 40
M  V30 44 1 6 41
M  V30 45 1 8 42
M  V30 46 1 8 43
M  V30 47 1 8 44
M  V30 48 1 9 45
M  V30 49 1 9 46
M  V30 50 1 9 47
M  V30 51 1 10 48
M  V30 52 1 13 49
M  V30 53 1 16 50
M  V30 54 1 16 51
M  V30 55 1 17 52
M  V30 56 1 17 53
M  V30 57 1 21 54
M  V30 58 1 24 55
M  V30 59 1 32 56
M  V30 60 1 32 57
M  V30 61 1 33 58
M  V30 62 1 33 59
M  V30 END BOND
M  V30 END CTAB
M  END
>  <Dataset>  (836) 
ChEMBL_Kinases

>  <Ligand_Instance>  (836) 
nan

>  <PDB_ID>  (836) 
nan

>  <Standardized_SMILES>  (836) 
Cc1c(NCCN(C)C)cc(Cl)cc1N1CCN(c2ncnc3[nH]nc(C(F)(F)F)c23)CC1

>  <Name>  (836) 
nan

>  <Pocket>  (836) 
nan

>  <ATP_Site>  (836) 
nan

>  <Peripheral>  (836) 
nan

>  <Num_H_Atoms_ProtBoundConf>  (836) 
nan

>  <Num_Resolved_Atoms>  (836) 
nan

>  <Num_Not_Resolved_Atoms>  (836) 
nan

$$$$
CHEMBL2012700
     RDKit          3D

  0  0  0  0  0  0  0  0  0  0999 V3000
M  V30 BEGIN CTAB
M  V30 COUNTS 61 64 0 0 0
M  V30 BEGIN ATOM
M  V30 1 C 4.276600 0.456626 -1.983402 0
M  V30 2 C 4.796204 1.719214 -1.371276 0
M  V30 3 C 5.785070 1.480184 -0.270685 0
M  V30 4 N 7.139917 1.655166 -0.289544 0
M  V30 5 N 7.665537 1.343624 0.882532 0
M  V30 6 C 6.713410 0.947465 1.744276 0
M  V30 7 N 6.579435 0.517473 3.004401 0
M  V30 8 C 5.417519 0.177055 3.587138 0
M  V30 9 N 4.308239 0.283717 2.826090 0
M  V30 10 C 4.347652 0.713320 1.531379 0
M  V30 11 N 3.027754 0.727615 1.004579 0
M  V30 12 C 1.982575 1.640728 0.515623 0
M  V30 13 C 0.767939 1.533235 1.387914 0
M  V30 14 N 0.240422 0.160378 1.394191 0
M  V30 15 C -1.084800 -0.082250 0.905803 0
M  V30 16 C -1.517629 0.846589 -0.047949 0
M  V30 17 C -2.740393 0.727489 -0.641237 0
M  V30 18 Cl -3.390222 1.828681 -1.849742 0
M  V30 19 C -3.569713 -0.320549 -0.302787 0
M  V30 20 C -3.211059 -1.271506 0.626150 0
M  V30 21 O -3.861510 -2.353741 1.090963 0
M  V30 22 C -5.083290 -2.919950 0.830181 0
M  V30 23 C -5.337610 -3.395957 -0.558963 0
M  V30 24 N -6.670169 -3.967701 -0.661344 0
M  V30 25 C -6.826694 -5.196968 0.067041 0
M  V30 26 C -6.977474 -4.131500 -2.087726 0
M  V30 27 C -1.947425 -1.112521 1.212815 0
M  V30 28 C -1.449292 -2.070120 2.264588 0
M  V30 29 C 1.306867 -0.674295 1.911481 0
M  V30 30 C 2.447287 -0.592027 0.882553 0
M  V30 31 C 5.569029 1.045145 0.997816 0
M  V30 32 H 4.796495 0.179062 -2.923911 0
M  V30 33 H 4.333902 -0.430964 -1.305765 0
M  V30 34 H 3.210823 0.599531 -2.272883 0
M  V30 35 H 4.055612 2.482896 -1.154318 0
M  V30 36 H 5.434088 2.191226 -2.189312 0
M  V30 37 H 8.684935 1.382347 1.158337 0
M  V30 38 H 5.418457 -0.158994 4.614442 0
M  V30 39 H 1.781324 1.390094 -0.520941 0
M  V30 40 H 2.341906 2.695568 0.583600 0
M  V30 41 H 0.026717 2.290240 1.154810 0
M  V30 42 H 1.094367 1.749343 2.451447 0
M  V30 43 H -1.000152 1.729606 -0.443087 0
M  V30 44 H -4.531311 -0.453347 -0.729703 0
M  V30 45 H -5.862922 -2.133386 1.078636 0
M  V30 46 H -5.308362 -3.747151 1.560622 0
M  V30 47 H -5.305965 -2.582803 -1.301312 0
M  V30 48 H -4.565839 -4.168963 -0.800901 0
M  V30 49 H -7.137225 -5.976406 -0.671873 0
M  V30 50 H -5.864091 -5.487334 0.508301 0
M  V30 51 H -7.634991 -5.120384 0.840019 0
M  V30 52 H -7.577952 -5.048481 -2.207496 0
M  V30 53 H -7.587746 -3.267432 -2.451182 0
M  V30 54 H -6.053738 -4.255011 -2.681090 0
M  V30 55 H -0.957374 -2.940799 1.845037 0
M  V30 56 H -0.964653 -1.546400 3.086318 0
M  V30 57 H -2.402106 -2.488747 2.734778 0
M  V30 58 H 1.056881 -1.757448 1.937917 0
M  V30 59 H 1.633157 -0.291645 2.882430 0
M  V30 60 H 2.019483 -0.791402 -0.133948 0
M  V30 61 H 3.134292 -1.418054 1.183598 0
M  V30 END ATOM
M  V30 BEGIN BOND
M  V30 1 1 1 2
M  V30 2 1 2 3
M  V30 3 2 3 4
M  V30 4 1 4 5
M  V30 5 1 5 6
M  V30 6 2 6 7
M  V30 7 1 7 8
M  V30 8 2 8 9
M  V30 9 1 9 10
M  V30 10 1 10 11
M  V30 11 1 11 12
M  V30 12 1 12 13
M  V30 13 1 13 14
M  V30 14 1 14 15
M  V30 15 2 15 16
M  V30 16 1 16 17
M  V30 17 1 17 18
M  V30 18 2 17 19
M  V30 19 1 19 20
M  V30 20 1 20 21
M  V30 21 1 21 22
M  V30 22 1 22 23
M  V30 23 1 23 24
M  V30 24 1 24 25
M  V30 25 1 24 26
M  V30 26 2 20 27
M  V30 27 1 27 28
M  V30 28 1 14 29
M  V30 29 1 29 30
M  V30 30 2 10 31
M  V30 31 1 31 3
M  V30 32 1 31 6
M  V30 33 1 30 11
M  V30 34 1 27 15
M  V30 35 1 1 32
M  V30 36 1 1 33
M  V30 37 1 1 34
M  V30 38 1 2 35
M  V30 39 1 2 36
M  V30 40 1 5 37
M  V30 41 1 8 38
M  V30 42 1 12 39
M  V30 43 1 12 40
M  V30 44 1 13 41
M  V30 45 1 13 42
M  V30 46 1 16 43
M  V30 47 1 19 44
M  V30 48 1 22 45
M  V30 49 1 22 46
M  V30 50 1 23 47
M  V30 51 1 23 48
M  V30 52 1 25 49
M  V30 53 1 25 50
M  V30 54 1 25 51
M  V30 55 1 26 52
M  V30 56 1 26 53
M  V30 57 1 26 54
M  V30 58 1 28 55
M  V30 59 1 28 56
M  V30 60 1 28 57
M  V30 61 1 29 58
M  V30 62 1 29 59
M  V30 63 1 30 60
M  V30 64 1 30 61
M  V30 END BOND
M  V30 END CTAB
M  END
>  <Dataset>  (837) 
ChEMBL_Kinases

>  <Ligand_Instance>  (837) 
nan

>  <PDB_ID>  (837) 
nan

>  <Standardized_SMILES>  (837) 
CCc1n[nH]c2ncnc(N3CCN(c4cc(Cl)cc(OCCN(C)C)c4C)CC3)c12

>  <Name>  (837) 
nan

>  <Pocket>  (837) 
nan

>  <ATP_Site>  (837) 
nan

>  <Peripheral>  (837) 
nan

>  <Num_H_Atoms_ProtBoundConf>  (837) 
nan

>  <Num_Resolved_Atoms>  (837) 
nan

>  <Num_Not_Resolved_Atoms>  (837) 
nan

$$$$
CHEMBL2012698
     RDKit          3D

  0  0  0  0  0  0  0  0  0  0999 V3000
M  V30 BEGIN CTAB
M  V30 COUNTS 67 71 0 0 0
M  V30 BEGIN ATOM
M  V30 1 C 4.673835 2.866102 3.336021 0
M  V30 2 C 4.895359 1.360586 3.317024 0
M  V30 3 C 5.412409 0.888817 2.016328 0
M  V30 4 N 6.735887 0.712034 1.767857 0
M  V30 5 N 6.943004 0.328243 0.524402 0
M  V30 6 C 5.775675 0.227631 -0.122381 0
M  V30 7 N 5.302609 -0.106171 -1.328398 0
M  V30 8 C 3.985895 -0.101145 -1.605322 0
M  V30 9 N 3.046453 0.238344 -0.696630 0
M  V30 10 C 3.483446 0.584512 0.538054 0
M  V30 11 N 2.379307 0.936610 1.402328 0
M  V30 12 C 1.772345 2.142819 1.985332 0
M  V30 13 C 0.288545 2.148190 1.660696 0
M  V30 14 N -0.271618 0.878223 1.989480 0
M  V30 15 C -1.584422 0.376747 1.755864 0
M  V30 16 C -2.200123 0.172997 3.000265 0
M  V30 17 C -3.508234 -0.317088 3.105100 0
M  V30 18 Cl -4.343582 -0.598632 4.598432 0
M  V30 19 C -4.205721 -0.606126 1.948393 0
M  V30 20 C -3.570959 -0.394885 0.742252 0
M  V30 21 C -4.282942 -0.723032 -0.524031 0
M  V30 22 C -3.797181 -2.074097 -1.032640 0
M  V30 23 C -4.427137 -2.520175 -2.307833 0
M  V30 24 N -3.908507 -3.790511 -2.699575 0
M  V30 25 C -2.531001 -3.791855 -3.097747 0
M  V30 26 C -1.796617 -4.737355 -2.186317 0
M  V30 27 C -2.841540 -5.486040 -1.414928 0
M  V30 28 C -4.160008 -4.893744 -1.851213 0
M  V30 29 C -2.289260 0.085639 0.608243 0
M  V30 30 C -1.528334 0.357995 -0.607051 0
M  V30 31 C 0.603309 -0.088277 2.672675 0
M  V30 32 C 1.761391 -0.350190 1.738185 0
M  V30 33 C 4.831901 0.576467 0.809957 0
M  V30 34 H 3.907206 3.073017 4.093154 0
M  V30 35 H 5.614693 3.391521 3.669851 0
M  V30 36 H 4.480097 3.254338 2.330844 0
M  V30 37 H 5.640046 1.129059 4.096285 0
M  V30 38 H 3.972621 0.819191 3.624572 0
M  V30 39 H 7.861395 0.117524 0.057008 0
M  V30 40 H 3.681610 -0.387734 -2.620550 0
M  V30 41 H 2.256198 3.019841 1.498656 0
M  V30 42 H 1.864594 2.168671 3.084730 0
M  V30 43 H 0.228730 2.466014 0.621650 0
M  V30 44 H -0.147634 2.979905 2.279492 0
M  V30 45 H -1.788699 0.348490 4.002145 0
M  V30 46 H -5.234717 -0.994176 1.943740 0
M  V30 47 H -4.101521 0.088326 -1.263062 0
M  V30 48 H -5.365777 -0.729236 -0.326433 0
M  V30 49 H -4.169275 -2.799086 -0.242544 0
M  V30 50 H -2.713842 -2.154747 -1.120642 0
M  V30 51 H -5.541120 -2.647790 -2.222480 0
M  V30 52 H -4.173754 -1.808004 -3.130909 0
M  V30 53 H -2.061398 -2.793318 -3.155805 0
M  V30 54 H -2.474801 -4.227831 -4.136231 0
M  V30 55 H -1.133299 -4.195393 -1.465038 0
M  V30 56 H -1.178072 -5.458841 -2.758746 0
M  V30 57 H -2.660133 -5.392798 -0.314264 0
M  V30 58 H -2.798049 -6.576528 -1.637842 0
M  V30 59 H -4.701747 -5.698647 -2.430909 0
M  V30 60 H -4.764074 -4.731234 -0.962009 0
M  V30 61 H -1.415990 1.478525 -0.738081 0
M  V30 62 H -2.079392 0.074328 -1.541348 0
M  V30 63 H -0.543156 -0.138634 -0.681636 0
M  V30 64 H 1.028753 0.404423 3.580577 0
M  V30 65 H 0.079612 -1.027581 2.933938 0
M  V30 66 H 1.302851 -0.797643 0.811592 0
M  V30 67 H 2.494620 -1.056800 2.182247 0
M  V30 END ATOM
M  V30 BEGIN BOND
M  V30 1 1 1 2
M  V30 2 1 2 3
M  V30 3 2 3 4
M  V30 4 1 4 5
M  V30 5 1 5 6
M  V30 6 2 6 7
M  V30 7 1 7 8
M  V30 8 2 8 9
M  V30 9 1 9 10
M  V30 10 1 10 11
M  V30 11 1 11 12
M  V30 12 1 12 13
M  V30 13 1 13 14
M  V30 14 1 14 15
M  V30 15 2 15 16
M  V30 16 1 16 17
M  V30 17 1 17 18
M  V30 18 2 17 19
M  V30 19 1 19 20
M  V30 20 1 20 21
M  V30 21 1 21 22
M  V30 22 1 22 23
M  V30 23 1 23 24
M  V30 24 1 24 25
M  V30 25 1 25 26
M  V30 26 1 26 27
M  V30 27 1 27 28
M  V30 28 2 20 29
M  V30 29 1 29 30
M  V30 30 1 14 31
M  V30 31 1 31 32
M  V30 32 2 10 33
M  V30 33 1 33 3
M  V30 34 1 33 6
M  V30 35 1 32 11
M  V30 36 1 29 15
M  V30 37 1 28 24
M  V30 38 1 1 34
M  V30 39 1 1 35
M  V30 40 1 1 36
M  V30 41 1 2 37
M  V30 42 1 2 38
M  V30 43 1 5 39
M  V30 44 1 8 40
M  V30 45 1 12 41
M  V30 46 1 12 42
M  V30 47 1 13 43
M  V30 48 1 13 44
M  V30 49 1 16 45
M  V30 50 1 19 46
M  V30 51 1 21 47
M  V30 52 1 21 48
M  V30 53 1 22 49
M  V30 54 1 22 50
M  V30 55 1 23 51
M  V30 56 1 23 52
M  V30 57 1 25 53
M  V30 58 1 25 54
M  V30 59 1 26 55
M  V30 60 1 26 56
M  V30 61 1 27 57
M  V30 62 1 27 58
M  V30 63 1 28 59
M  V30 64 1 28 60
M  V30 65 1 30 61
M  V30 66 1 30 62
M  V30 67 1 30 63
M  V30 68 1 31 64
M  V30 69 1 31 65
M  V30 70 1 32 66
M  V30 71 1 32 67
M  V30 END BOND
M  V30 END CTAB
M  END
>  <Dataset>  (838) 
ChEMBL_Kinases

>  <Ligand_Instance>  (838) 
nan

>  <PDB_ID>  (838) 
nan

>  <Standardized_SMILES>  (838) 
CCc1n[nH]c2ncnc(N3CCN(c4cc(Cl)cc(CCCN5CCCC5)c4C)CC3)c12

>  <Name>  (838) 
nan

>  <Pocket>  (838) 
nan

>  <ATP_Site>  (838) 
nan

>  <Peripheral>  (838) 
nan

>  <Num_H_Atoms_ProtBoundConf>  (838) 
nan

>  <Num_Resolved_Atoms>  (838) 
nan

>  <Num_Not_Resolved_Atoms>  (838) 
nan

$$$$
CHEMBL2012697
     RDKit          3D

  0  0  0  0  0  0  0  0  0  0999 V3000
M  V30 BEGIN CTAB
M  V30 COUNTS 65 69 0 0 0
M  V30 BEGIN ATOM
M  V30 1 C 3.182824 0.355945 3.831870 0
M  V30 2 C 3.175604 0.044365 2.351470 0
M  V30 3 C 4.298836 0.765112 1.757734 0
M  V30 4 N 5.523260 0.243204 1.545506 0
M  V30 5 N 6.309071 1.176284 1.043619 0
M  V30 6 C 5.660779 2.366714 0.891388 0
M  V30 7 N 5.903044 3.604464 0.444719 0
M  V30 8 C 4.939295 4.532770 0.442015 0
M  V30 9 N 3.700899 4.220419 0.896157 0
M  V30 10 C 3.393748 2.971288 1.366425 0
M  V30 11 N 2.034168 2.958122 1.778149 0
M  V30 12 C 1.171473 2.967222 2.934215 0
M  V30 13 C 0.044395 2.014512 2.946801 0
M  V30 14 N -0.455690 1.551062 1.684079 0
M  V30 15 C -0.988856 0.238805 1.552218 0
M  V30 16 C -0.444370 -0.718880 2.380365 0
M  V30 17 C -0.840707 -2.036699 2.324700 0
M  V30 18 Cl -0.214473 -3.339822 3.332111 0
M  V30 19 C -1.807566 -2.421689 1.419827 0
M  V30 20 C -2.387713 -1.510817 0.566631 0
M  V30 21 O -3.350750 -1.708386 -0.385197 0
M  V30 22 C -4.019461 -2.833612 -0.793003 0
M  V30 23 C -3.217726 -3.947445 -1.380163 0
M  V30 24 N -4.060004 -5.062431 -1.750436 0
M  V30 25 C -4.919409 -4.792564 -2.864906 0
M  V30 26 C -4.018272 -4.933645 -4.088717 0
M  V30 27 C -2.836769 -5.779256 -3.634067 0
M  V30 28 C -3.271568 -6.176938 -2.240079 0
M  V30 29 C -1.952306 -0.178263 0.660872 0
M  V30 30 C -2.585221 0.858822 -0.229525 0
M  V30 31 C -0.234102 2.665331 0.786071 0
M  V30 32 C 1.236895 2.927906 0.571682 0
M  V30 33 C 4.403418 2.063851 1.350530 0
M  V30 34 H 2.224547 0.273198 4.331988 0
M  V30 35 H 3.623990 1.349321 4.049080 0
M  V30 36 H 3.880320 -0.366413 4.362464 0
M  V30 37 H 2.202535 0.261996 1.878393 0
M  V30 38 H 3.330791 -1.038605 2.232802 0
M  V30 39 H 7.331018 1.073889 0.770924 0
M  V30 40 H 5.204821 5.511266 0.067717 0
M  V30 41 H 1.757167 2.804950 3.876455 0
M  V30 42 H 0.803709 4.052280 3.060239 0
M  V30 43 H -0.843668 2.608015 3.382841 0
M  V30 44 H 0.149370 1.211441 3.724152 0
M  V30 45 H 0.328334 -0.630151 3.149188 0
M  V30 46 H -2.157887 -3.431877 1.343139 0
M  V30 47 H -4.693270 -3.204509 0.033979 0
M  V30 48 H -4.761737 -2.501968 -1.581167 0
M  V30 49 H -2.390099 -4.327190 -0.784987 0
M  V30 50 H -2.741636 -3.625094 -2.363633 0
M  V30 51 H -5.452182 -3.845977 -2.856778 0
M  V30 52 H -5.635436 -5.663467 -2.921515 0
M  V30 53 H -3.700961 -3.929800 -4.407615 0
M  V30 54 H -4.557529 -5.420076 -4.927932 0
M  V30 55 H -1.921961 -5.163971 -3.521952 0
M  V30 56 H -2.695931 -6.653035 -4.281953 0
M  V30 57 H -2.414531 -6.413017 -1.567227 0
M  V30 58 H -3.968501 -7.027658 -2.360217 0
M  V30 59 H -3.636717 0.462958 -0.436855 0
M  V30 60 H -2.109827 0.942294 -1.204384 0
M  V30 61 H -2.767907 1.799122 0.281962 0
M  V30 62 H -0.790348 3.555284 1.129727 0
M  V30 63 H -0.604730 2.452413 -0.259347 0
M  V30 64 H 1.653683 2.237895 -0.216588 0
M  V30 65 H 1.300761 3.952929 0.128825 0
M  V30 END ATOM
M  V30 BEGIN BOND
M  V30 1 1 1 2
M  V30 2 1 2 3
M  V30 3 2 3 4
M  V30 4 1 4 5
M  V30 5 1 5 6
M  V30 6 2 6 7
M  V30 7 1 7 8
M  V30 8 2 8 9
M  V30 9 1 9 10
M  V30 10 1 10 11
M  V30 11 1 11 12
M  V30 12 1 12 13
M  V30 13 1 13 14
M  V30 14 1 14 15
M  V30 15 2 15 16
M  V30 16 1 16 17
M  V30 17 1 17 18
M  V30 18 2 17 19
M  V30 19 1 19 20
M  V30 20 1 20 21
M  V30 21 1 21 22
M  V30 22 1 22 23
M  V30 23 1 23 24
M  V30 24 1 24 25
M  V30 25 1 25 26
M  V30 26 1 26 27
M  V30 27 1 27 28
M  V30 28 2 20 29
M  V30 29 1 29 30
M  V30 30 1 14 31
M  V30 31 1 31 32
M  V30 32 2 10 33
M  V30 33 1 33 3
M  V30 34 1 33 6
M  V30 35 1 32 11
M  V30 36 1 29 15
M  V30 37 1 28 24
M  V30 38 1 1 34
M  V30 39 1 1 35
M  V30 40 1 1 36
M  V30 41 1 2 37
M  V30 42 1 2 38
M  V30 43 1 5 39
M  V30 44 1 8 40
M  V30 45 1 12 41
M  V30 46 1 12 42
M  V30 47 1 13 43
M  V30 48 1 13 44
M  V30 49 1 16 45
M  V30 50 1 19 46
M  V30 51 1 22 47
M  V30 52 1 22 48
M  V30 53 1 23 49
M  V30 54 1 23 50
M  V30 55 1 25 51
M  V30 56 1 25 52
M  V30 57 1 26 53
M  V30 58 1 26 54
M  V30 59 1 27 55
M  V30 60 1 27 56
M  V30 61 1 28 57
M  V30 62 1 28 58
M  V30 63 1 30 59
M  V30 64 1 30 60
M  V30 65 1 30 61
M  V30 66 1 31 62
M  V30 67 1 31 63
M  V30 68 1 32 64
M  V30 69 1 32 65
M  V30 END BOND
M  V30 END CTAB
M  END
>  <Dataset>  (839) 
ChEMBL_Kinases

>  <Ligand_Instance>  (839) 
nan

>  <PDB_ID>  (839) 
nan

>  <Standardized_SMILES>  (839) 
CCc1n[nH]c2ncnc(N3CCN(c4cc(Cl)cc(OCCN5CCCC5)c4C)CC3)c12

>  <Name>  (839) 
nan

>  <Pocket>  (839) 
nan

>  <ATP_Site>  (839) 
nan

>  <Peripheral>  (839) 
nan

>  <Num_H_Atoms_ProtBoundConf>  (839) 
nan

>  <Num_Resolved_Atoms>  (839) 
nan

>  <Num_Not_Resolved_Atoms>  (839) 
nan

$$$$
CHEMBL2012696
     RDKit          3D

  0  0  0  0  0  0  0  0  0  0999 V3000
M  V30 BEGIN CTAB
M  V30 COUNTS 68 71 0 0 0
M  V30 BEGIN ATOM
M  V30 1 C 5.550616 -1.900555 1.911859 0
M  V30 2 C 5.403422 -1.646221 0.416388 0
M  V30 3 C 6.237939 -0.512837 0.035418 0
M  V30 4 N 7.485069 -0.632751 -0.464464 0
M  V30 5 N 7.971270 0.600327 -0.661602 0
M  V30 6 C 7.091324 1.552242 -0.311851 0
M  V30 7 N 7.004794 2.892313 -0.300481 0
M  V30 8 C 5.879685 3.490287 0.128144 0
M  V30 9 N 4.783631 2.811777 0.566643 0
M  V30 10 C 4.867648 1.443744 0.556853 0
M  V30 11 N 3.646750 0.894529 1.050750 0
M  V30 12 C 3.066925 0.250270 2.187183 0
M  V30 13 C 1.794423 0.870953 2.677201 0
M  V30 14 N 0.826493 1.019557 1.581509 0
M  V30 15 C -0.423348 0.345545 1.558015 0
M  V30 16 C -0.374943 -0.843389 2.304675 0
M  V30 17 C -1.413029 -1.734503 2.402655 0
M  V30 18 Cl -1.338261 -3.217469 3.342289 0
M  V30 19 C -2.585113 -1.422830 1.707517 0
M  V30 20 C -2.655381 -0.265849 0.969624 0
M  V30 21 N -3.852532 0.047451 0.271544 0
M  V30 22 C -5.012546 -0.834462 0.268129 0
M  V30 23 C -4.742185 -2.044319 -0.618374 0
M  V30 24 N -5.867672 -2.923597 -0.607648 0
M  V30 25 C -7.051672 -2.455163 -1.246744 0
M  V30 26 C -6.908007 -2.343047 -2.748043 0
M  V30 27 C -5.548917 -4.272672 -0.966142 0
M  V30 28 C -4.701324 -4.999647 0.051892 0
M  V30 29 C -1.591664 0.606925 0.898147 0
M  V30 30 C -1.624418 1.869652 0.171567 0
M  V30 31 C 1.508640 1.896620 0.635336 0
M  V30 32 C 2.598966 0.982839 0.056246 0
M  V30 33 C 6.004303 0.834448 0.124591 0
M  V30 34 H 4.656406 -2.337549 2.375742 0
M  V30 35 H 6.375322 -2.643523 2.099951 0
M  V30 36 H 5.807717 -0.978859 2.464500 0
M  V30 37 H 5.747285 -2.557669 -0.100292 0
M  V30 38 H 4.338585 -1.534488 0.130274 0
M  V30 39 H 8.916475 0.847988 -1.040036 0
M  V30 40 H 5.879568 4.584766 0.112003 0
M  V30 41 H 3.813315 0.223418 3.001150 0
M  V30 42 H 2.860419 -0.802475 1.887696 0
M  V30 43 H 2.017648 1.909645 3.033706 0
M  V30 44 H 1.377282 0.369061 3.563590 0
M  V30 45 H 0.479550 -1.197298 2.873579 0
M  V30 46 H -3.389531 -2.137339 1.814887 0
M  V30 47 H -4.053275 0.881390 -0.293801 0
M  V30 48 H -5.940093 -0.366920 -0.041872 0
M  V30 49 H -5.155121 -1.278080 1.300867 0
M  V30 50 H -3.821735 -2.579000 -0.396518 0
M  V30 51 H -4.601264 -1.633392 -1.662664 0
M  V30 52 H -7.845081 -3.223564 -1.065663 0
M  V30 53 H -7.411708 -1.496645 -0.827411 0
M  V30 54 H -6.291764 -1.482725 -3.065246 0
M  V30 55 H -7.920126 -2.301148 -3.205774 0
M  V30 56 H -6.439367 -3.284596 -3.117902 0
M  V30 57 H -4.982019 -4.324121 -1.937478 0
M  V30 58 H -6.466460 -4.862263 -1.118657 0
M  V30 59 H -5.323442 -5.175219 0.960582 0
M  V30 60 H -4.431658 -5.989478 -0.366497 0
M  V30 61 H -3.787776 -4.452770 0.347921 0
M  V30 62 H -1.301792 1.885987 -0.857917 0
M  V30 63 H -1.123343 2.722481 0.710424 0
M  V30 64 H -2.698968 2.259615 0.123530 0
M  V30 65 H 1.979494 2.768831 1.128800 0
M  V30 66 H 0.911391 2.231988 -0.211285 0
M  V30 67 H 2.870784 1.421958 -0.898818 0
M  V30 68 H 2.105175 -0.009039 -0.135430 0
M  V30 END ATOM
M  V30 BEGIN BOND
M  V30 1 1 1 2
M  V30 2 1 2 3
M  V30 3 2 3 4
M  V30 4 1 4 5
M  V30 5 1 5 6
M  V30 6 2 6 7
M  V30 7 1 7 8
M  V30 8 2 8 9
M  V30 9 1 9 10
M  V30 10 1 10 11
M  V30 11 1 11 12
M  V30 12 1 12 13
M  V30 13 1 13 14
M  V30 14 1 14 15
M  V30 15 2 15 16
M  V30 16 1 16 17
M  V30 17 1 17 18
M  V30 18 2 17 19
M  V30 19 1 19 20
M  V30 20 1 20 21
M  V30 21 1 21 22
M  V30 22 1 22 23
M  V30 23 1 23 24
M  V30 24 1 24 25
M  V30 25 1 25 26
M  V30 26 1 24 27
M  V30 27 1 27 28
M  V30 28 2 20 29
M  V30 29 1 29 30
M  V30 30 1 14 31
M  V30 31 1 31 32
M  V30 32 2 10 33
M  V30 33 1 33 3
M  V30 34 1 33 6
M  V30 35 1 32 11
M  V30 36 1 29 15
M  V30 37 1 1 34
M  V30 38 1 1 35
M  V30 39 1 1 36
M  V30 40 1 2 37
M  V30 41 1 2 38
M  V30 42 1 5 39
M  V30 43 1 8 40
M  V30 44 1 12 41
M  V30 45 1 12 42
M  V30 46 1 13 43
M  V30 47 1 13 44
M  V30 48 1 16 45
M  V30 49 1 19 46
M  V30 50 1 21 47
M  V30 51 1 22 48
M  V30 52 1 22 49
M  V30 53 1 23 50
M  V30 54 1 23 51
M  V30 55 1 25 52
M  V30 56 1 25 53
M  V30 57 1 26 54
M  V30 58 1 26 55
M  V30 59 1 26 56
M  V30 60 1 27 57
M  V30 61 1 27 58
M  V30 62 1 28 59
M  V30 63 1 28 60
M  V30 64 1 28 61
M  V30 65 1 30 62
M  V30 66 1 30 63
M  V30 67 1 30 64
M  V30 68 1 31 65
M  V30 69 1 31 66
M  V30 70 1 32 67
M  V30 71 1 32 68
M  V30 END BOND
M  V30 END CTAB
M  END
>  <Dataset>  (840) 
ChEMBL_Kinases

>  <Ligand_Instance>  (840) 
nan

>  <PDB_ID>  (840) 
nan

>  <Standardized_SMILES>  (840) 
CCc1n[nH]c2ncnc(N3CCN(c4cc(Cl)cc(NCCN(CC)CC)c4C)CC3)c12

>  <Name>  (840) 
nan

>  <Pocket>  (840) 
nan

>  <ATP_Site>  (840) 
nan

>  <Peripheral>  (840) 
nan

>  <Num_H_Atoms_ProtBoundConf>  (840) 
nan

>  <Num_Resolved_Atoms>  (840) 
nan

>  <Num_Not_Resolved_Atoms>  (840) 
nan

$$$$
CHEMBL2012695
     RDKit          3D

  0  0  0  0  0  0  0  0  0  0999 V3000
M  V30 BEGIN CTAB
M  V30 COUNTS 69 72 0 0 0
M  V30 BEGIN ATOM
M  V30 1 C 3.634037 1.493643 3.879465 0
M  V30 2 C 4.509089 0.485462 3.202869 0
M  V30 3 C 5.591593 1.048251 2.373151 0
M  V30 4 N 6.881167 1.189723 2.814115 0
M  V30 5 N 7.634092 1.730633 1.868966 0
M  V30 6 C 6.912682 1.986462 0.742002 0
M  V30 7 N 7.134757 2.483223 -0.488295 0
M  V30 8 C 6.061458 2.520671 -1.329871 0
M  V30 9 N 4.809256 2.088171 -0.983693 0
M  V30 10 C 4.591883 1.584683 0.274183 0
M  V30 11 N 3.211074 1.272159 0.354747 0
M  V30 12 C 2.318383 2.356472 0.710514 0
M  V30 13 C 0.900090 2.098579 0.250316 0
M  V30 14 N 0.383932 0.849862 0.698644 0
M  V30 15 C -0.960484 0.436212 0.897391 0
M  V30 16 C -1.151480 0.073866 2.230909 0
M  V30 17 C -2.400062 -0.374511 2.670009 0
M  V30 18 Cl -2.732889 -0.849613 4.321682 0
M  V30 19 C -3.470340 -0.466943 1.785984 0
M  V30 20 C -3.229025 -0.097245 0.479602 0
M  V30 21 C -4.345555 -0.204963 -0.492729 0
M  V30 22 C -4.256689 -1.444579 -1.361539 0
M  V30 23 C -4.297177 -2.706539 -0.515117 0
M  V30 24 N -4.211266 -3.915998 -1.311898 0
M  V30 25 C -5.378168 -4.144354 -2.129241 0
M  V30 26 C -5.234869 -5.409729 -2.959544 0
M  V30 27 C -4.078271 -5.045638 -0.410230 0
M  V30 28 C -2.768295 -5.066180 0.317735 0
M  V30 29 C -2.013452 0.349134 0.013159 0
M  V30 30 C -1.687193 0.774849 -1.349657 0
M  V30 31 C 1.398069 -0.165130 1.006898 0
M  V30 32 C 2.564992 -0.000850 0.103924 0
M  V30 33 C 5.661518 1.551697 1.097708 0
M  V30 34 H 3.699348 1.311393 4.990603 0
M  V30 35 H 3.996732 2.521416 3.665705 0
M  V30 36 H 2.556497 1.407776 3.659312 0
M  V30 37 H 4.975544 -0.151554 3.993484 0
M  V30 38 H 3.888911 -0.249214 2.628317 0
M  V30 39 H 8.664355 1.949487 1.945497 0
M  V30 40 H 6.319590 2.932778 -2.299912 0
M  V30 41 H 2.653892 3.230396 0.049749 0
M  V30 42 H 2.408530 2.750839 1.718357 0
M  V30 43 H 0.822506 2.180272 -0.868004 0
M  V30 44 H 0.276941 2.918654 0.659398 0
M  V30 45 H -0.433490 0.085719 3.040811 0
M  V30 46 H -4.461124 -0.811502 2.085185 0
M  V30 47 H -4.485635 0.703398 -1.116301 0
M  V30 48 H -5.331989 -0.315794 0.049206 0
M  V30 49 H -3.360730 -1.521690 -1.969648 0
M  V30 50 H -5.141943 -1.435351 -2.018486 0
M  V30 51 H -3.482951 -2.659464 0.204951 0
M  V30 52 H -5.277121 -2.745614 0.033966 0
M  V30 53 H -5.515208 -3.263709 -2.807599 0
M  V30 54 H -6.319870 -4.247943 -1.541580 0
M  V30 55 H -5.900246 -5.321949 -3.859487 0
M  V30 56 H -4.186616 -5.592325 -3.288206 0
M  V30 57 H -5.569037 -6.322338 -2.427959 0
M  V30 58 H -4.191706 -6.007847 -0.962731 0
M  V30 59 H -4.901487 -4.983583 0.320364 0
M  V30 60 H -2.829906 -4.568203 1.313938 0
M  V30 61 H -1.923001 -4.727709 -0.303694 0
M  V30 62 H -2.527984 -6.142061 0.555215 0
M  V30 63 H -0.774787 0.347616 -1.769784 0
M  V30 64 H -2.497494 0.668664 -2.091611 0
M  V30 65 H -1.490253 1.892665 -1.336067 0
M  V30 66 H 0.955591 -1.199298 0.865789 0
M  V30 67 H 1.584247 -0.086716 2.078155 0
M  V30 68 H 3.240079 -0.869704 0.283997 0
M  V30 69 H 2.185790 0.035232 -0.938763 0
M  V30 END ATOM
M  V30 BEGIN BOND
M  V30 1 1 1 2
M  V30 2 1 2 3
M  V30 3 2 3 4
M  V30 4 1 4 5
M  V30 5 1 5 6
M  V30 6 2 6 7
M  V30 7 1 7 8
M  V30 8 2 8 9
M  V30 9 1 9 10
M  V30 10 1 10 11
M  V30 11 1 11 12
M  V30 12 1 12 13
M  V30 13 1 13 14
M  V30 14 1 14 15
M  V30 15 2 15 16
M  V30 16 1 16 17
M  V30 17 1 17 18
M  V30 18 2 17 19
M  V30 19 1 19 20
M  V30 20 1 20 21
M  V30 21 1 21 22
M  V30 22 1 22 23
M  V30 23 1 23 24
M  V30 24 1 24 25
M  V30 25 1 25 26
M  V30 26 1 24 27
M  V30 27 1 27 28
M  V30 28 2 20 29
M  V30 29 1 29 30
M  V30 30 1 14 31
M  V30 31 1 31 32
M  V30 32 2 10 33
M  V30 33 1 33 3
M  V30 34 1 33 6
M  V30 35 1 32 11
M  V30 36 1 29 15
M  V30 37 1 1 34
M  V30 38 1 1 35
M  V30 39 1 1 36
M  V30 40 1 2 37
M  V30 41 1 2 38
M  V30 42 1 5 39
M  V30 43 1 8 40
M  V30 44 1 12 41
M  V30 45 1 12 42
M  V30 46 1 13 43
M  V30 47 1 13 44
M  V30 48 1 16 45
M  V30 49 1 19 46
M  V30 50 1 21 47
M  V30 51 1 21 48
M  V30 52 1 22 49
M  V30 53 1 22 50
M  V30 54 1 23 51
M  V30 55 1 23 52
M  V30 56 1 25 53
M  V30 57 1 25 54
M  V30 58 1 26 55
M  V30 59 1 26 56
M  V30 60 1 26 57
M  V30 61 1 27 58
M  V30 62 1 27 59
M  V30 63 1 28 60
M  V30 64 1 28 61
M  V30 65 1 28 62
M  V30 66 1 30 63
M  V30 67 1 30 64
M  V30 68 1 30 65
M  V30 69 1 31 66
M  V30 70 1 31 67
M  V30 71 1 32 68
M  V30 72 1 32 69
M  V30 END BOND
M  V30 END CTAB
M  END
>  <Dataset>  (841) 
ChEMBL_Kinases

>  <Ligand_Instance>  (841) 
nan

>  <PDB_ID>  (841) 
nan

>  <Standardized_SMILES>  (841) 
CCc1n[nH]c2ncnc(N3CCN(c4cc(Cl)cc(CCCN(CC)CC)c4C)CC3)c12

>  <Name>  (841) 
nan

>  <Pocket>  (841) 
nan

>  <ATP_Site>  (841) 
nan

>  <Peripheral>  (841) 
nan

>  <Num_H_Atoms_ProtBoundConf>  (841) 
nan

>  <Num_Resolved_Atoms>  (841) 
nan

>  <Num_Not_Resolved_Atoms>  (841) 
nan

$$$$
CHEMBL2012597
     RDKit          3D

  0  0  0  0  0  0  0  0  0  0999 V3000
M  V30 BEGIN CTAB
M  V30 COUNTS 67 70 0 0 0
M  V30 BEGIN ATOM
M  V30 1 C 4.539358 2.841028 4.219252 0
M  V30 2 C 5.185604 1.618890 3.589151 0
M  V30 3 C 6.007117 2.000091 2.416960 0
M  V30 4 N 7.347416 2.257711 2.491005 0
M  V30 5 N 7.797247 2.626544 1.311792 0
M  V30 6 C 6.808307 2.637968 0.392637 0
M  V30 7 N 6.630463 2.892586 -0.909639 0
M  V30 8 C 5.426974 2.765645 -1.492519 0
M  V30 9 N 4.348316 2.368914 -0.756977 0
M  V30 10 C 4.463927 2.094079 0.580312 0
M  V30 11 N 3.191392 1.704376 1.076892 0
M  V30 12 C 2.157179 2.205884 1.961835 0
M  V30 13 C 0.779132 1.837020 1.432641 0
M  V30 14 N 0.609410 0.395351 1.430858 0
M  V30 15 C -0.548931 -0.416223 1.390943 0
M  V30 16 C -0.619306 -1.203196 2.539164 0
M  V30 17 C -1.678920 -2.085415 2.724526 0
M  V30 18 Cl -1.890931 -3.119312 4.098956 0
M  V30 19 C -2.630337 -2.145168 1.748396 0
M  V30 20 C -2.637437 -1.409238 0.590991 0
M  V30 21 O -3.417313 -1.268693 -0.504268 0
M  V30 22 C -4.598729 -1.882092 -0.898974 0
M  V30 23 C -4.407471 -3.353112 -1.082087 0
M  V30 24 N -5.602316 -4.036608 -1.493763 0
M  V30 25 C -6.056191 -3.734823 -2.811105 0
M  V30 26 C -5.109586 -4.269636 -3.837970 0
M  V30 27 C -5.434001 -5.455818 -1.344674 0
M  V30 28 C -5.347381 -5.849799 0.132635 0
M  V30 29 C -1.556816 -0.527395 0.430615 0
M  V30 30 C -1.259277 0.415736 -0.706438 0
M  V30 31 C 1.911837 -0.290900 1.488326 0
M  V30 32 C 2.804492 0.407165 0.497144 0
M  V30 33 C 5.700468 2.243553 1.101295 0
M  V30 34 H 3.623988 2.611121 4.770049 0
M  V30 35 H 5.232451 3.300111 4.983066 0
M  V30 36 H 4.434974 3.603744 3.419736 0
M  V30 37 H 5.850544 1.172342 4.346338 0
M  V30 38 H 4.453115 0.819394 3.341064 0
M  V30 39 H 8.786756 2.889259 1.062006 0
M  V30 40 H 5.368140 2.990830 -2.548250 0
M  V30 41 H 2.188689 3.300824 2.057370 0
M  V30 42 H 2.295945 1.763263 2.960167 0
M  V30 43 H 0.573824 2.247292 0.431862 0
M  V30 44 H 0.041375 2.257208 2.138205 0
M  V30 45 H 0.089476 -1.224894 3.368573 0
M  V30 46 H -3.478495 -2.785769 1.822177 0
M  V30 47 H -5.456059 -1.646848 -0.219838 0
M  V30 48 H -4.874017 -1.409073 -1.892505 0
M  V30 49 H -4.084478 -3.817140 -0.143004 0
M  V30 50 H -3.583551 -3.462922 -1.840754 0
M  V30 51 H -6.213317 -2.642684 -2.944007 0
M  V30 52 H -7.020671 -4.289808 -2.955425 0
M  V30 53 H -5.488011 -4.111559 -4.881758 0
M  V30 54 H -5.085058 -5.387212 -3.736208 0
M  V30 55 H -4.088119 -3.874509 -3.757733 0
M  V30 56 H -6.272564 -6.042622 -1.766781 0
M  V30 57 H -4.497147 -5.838680 -1.844887 0
M  V30 58 H -5.732395 -6.878808 0.313658 0
M  V30 59 H -4.299210 -5.841945 0.495796 0
M  V30 60 H -5.909120 -5.126185 0.761583 0
M  V30 61 H -1.504174 1.457981 -0.465190 0
M  V30 62 H -1.934467 0.071067 -1.544535 0
M  V30 63 H -0.231058 0.234861 -1.052959 0
M  V30 64 H 1.785686 -1.367828 1.231042 0
M  V30 65 H 2.248383 -0.205918 2.541936 0
M  V30 66 H 2.195723 0.670090 -0.400522 0
M  V30 67 H 3.679909 -0.200310 0.246592 0
M  V30 END ATOM
M  V30 BEGIN BOND
M  V30 1 1 1 2
M  V30 2 1 2 3
M  V30 3 2 3 4
M  V30 4 1 4 5
M  V30 5 1 5 6
M  V30 6 2 6 7
M  V30 7 1 7 8
M  V30 8 2 8 9
M  V30 9 1 9 10
M  V30 10 1 10 11
M  V30 11 1 11 12
M  V30 12 1 12 13
M  V30 13 1 13 14
M  V30 14 1 14 15
M  V30 15 2 15 16
M  V30 16 1 16 17
M  V30 17 1 17 18
M  V30 18 2 17 19
M  V30 19 1 19 20
M  V30 20 1 20 21
M  V30 21 1 21 22
M  V30 22 1 22 23
M  V30 23 1 23 24
M  V30 24 1 24 25
M  V30 25 1 25 26
M  V30 26 1 24 27
M  V30 27 1 27 28
M  V30 28 2 20 29
M  V30 29 1 29 30
M  V30 30 1 14 31
M  V30 31 1 31 32
M  V30 32 2 10 33
M  V30 33 1 33 3
M  V30 34 1 33 6
M  V30 35 1 32 11
M  V30 36 1 29 15
M  V30 37 1 1 34
M  V30 38 1 1 35
M  V30 39 1 1 36
M  V30 40 1 2 37
M  V30 41 1 2 38
M  V30 42 1 5 39
M  V30 43 1 8 40
M  V30 44 1 12 41
M  V30 45 1 12 42
M  V30 46 1 13 43
M  V30 47 1 13 44
M  V30 48 1 16 45
M  V30 49 1 19 46
M  V30 50 1 22 47
M  V30 51 1 22 48
M  V30 52 1 23 49
M  V30 53 1 23 50
M  V30 54 1 25 51
M  V30 55 1 25 52
M  V30 56 1 26 53
M  V30 57 1 26 54
M  V30 58 1 26 55
M  V30 59 1 27 56
M  V30 60 1 27 57
M  V30 61 1 28 58
M  V30 62 1 28 59
M  V30 63 1 28 60
M  V30 64 1 30 61
M  V30 65 1 30 62
M  V30 66 1 30 63
M  V30 67 1 31 64
M  V30 68 1 31 65
M  V30 69 1 32 66
M  V30 70 1 32 67
M  V30 END BOND
M  V30 END CTAB
M  END
>  <Dataset>  (842) 
ChEMBL_Kinases

>  <Ligand_Instance>  (842) 
nan

>  <PDB_ID>  (842) 
nan

>  <Standardized_SMILES>  (842) 
CCc1n[nH]c2ncnc(N3CCN(c4cc(Cl)cc(OCCN(CC)CC)c4C)CC3)c12

>  <Name>  (842) 
nan

>  <Pocket>  (842) 
nan

>  <ATP_Site>  (842) 
nan

>  <Peripheral>  (842) 
nan

>  <Num_H_Atoms_ProtBoundConf>  (842) 
nan

>  <Num_Resolved_Atoms>  (842) 
nan

>  <Num_Not_Resolved_Atoms>  (842) 
nan

$$$$
CHEMBL2012596
     RDKit          3D

  0  0  0  0  0  0  0  0  0  0999 V3000
M  V30 BEGIN CTAB
M  V30 COUNTS 43 46 0 0 0
M  V30 BEGIN ATOM
M  V30 1 C 2.496362 -1.261595 2.951321 0
M  V30 2 C 3.056762 -2.240797 2.001674 0
M  V30 3 C 3.934702 -3.200844 2.498819 0
M  V30 4 C 4.457164 -4.112987 1.616658 0
M  V30 5 C 4.150130 -4.115802 0.272404 0
M  V30 6 Cl 4.885121 -5.334934 -0.747314 0
M  V30 7 C 3.266048 -3.144318 -0.212012 0
M  V30 8 C 2.724440 -2.211529 0.658430 0
M  V30 9 N 1.827305 -1.234260 0.135999 0
M  V30 10 C 2.034869 0.196065 0.188604 0
M  V30 11 C 0.757891 0.877946 -0.220352 0
M  V30 12 N -0.404269 0.330892 0.458734 0
M  V30 13 C -1.512643 0.721840 1.284336 0
M  V30 14 N -1.344113 0.288027 2.562494 0
M  V30 15 C -2.274669 0.567028 3.492327 0
M  V30 16 N -3.376427 1.269122 3.187488 0
M  V30 17 C -3.570325 1.709537 1.935767 0
M  V30 18 N -4.519324 2.393713 1.302363 0
M  V30 19 N -4.193687 2.536414 0.031610 0
M  V30 20 C -2.990566 1.941787 -0.237142 0
M  V30 21 C -2.259217 1.907710 -1.519035 0
M  V30 22 F -3.144602 2.495500 -2.448953 0
M  V30 23 F -1.204009 2.810951 -1.539023 0
M  V30 24 F -1.975127 0.677405 -2.006392 0
M  V30 25 C -2.624752 1.431093 0.976125 0
M  V30 26 C -0.557438 -1.121720 0.265914 0
M  V30 27 C 0.595527 -1.720309 -0.505492 0
M  V30 28 H 2.366547 -1.796707 3.937583 0
M  V30 29 H 3.176577 -0.430874 3.178664 0
M  V30 30 H 1.468636 -0.965465 2.668450 0
M  V30 31 H 4.194744 -3.221080 3.559169 0
M  V30 32 H 5.133372 -4.839432 2.044582 0
M  V30 33 H 3.040090 -3.165561 -1.267317 0
M  V30 34 H 2.465074 0.569933 1.116817 0
M  V30 35 H 2.807871 0.402416 -0.603112 0
M  V30 36 H 0.853762 1.976739 0.000453 0
M  V30 37 H 0.629293 0.733244 -1.299713 0
M  V30 38 H -2.164303 0.234391 4.515135 0
M  V30 39 H -5.378435 2.746659 1.779336 0
M  V30 40 H -0.556294 -1.619049 1.258115 0
M  V30 41 H -1.467001 -1.360921 -0.322367 0
M  V30 42 H 0.619047 -1.291895 -1.541920 0
M  V30 43 H 0.550834 -2.807716 -0.520436 0
M  V30 END ATOM
M  V30 BEGIN BOND
M  V30 1 1 1 2
M  V30 2 2 2 3
M  V30 3 1 3 4
M  V30 4 2 4 5
M  V30 5 1 5 6
M  V30 6 1 5 7
M  V30 7 2 7 8
M  V30 8 1 8 9
M  V30 9 1 9 10
M  V30 10 1 10 11
M  V30 11 1 11 12
M  V30 12 1 12 13
M  V30 13 2 13 14
M  V30 14 1 14 15
M  V30 15 2 15 16
M  V30 16 1 16 17
M  V30 17 1 17 18
M  V30 18 1 18 19
M  V30 19 2 19 20
M  V30 20 1 20 21
M  V30 21 1 21 22
M  V30 22 1 21 23
M  V30 23 1 21 24
M  V30 24 1 20 25
M  V30 25 1 12 26
M  V30 26 1 26 27
M  V30 27 1 8 2
M  V30 28 1 27 9
M  V30 29 1 25 13
M  V30 30 2 25 17
M  V30 31 1 1 28
M  V30 32 1 1 29
M  V30 33 1 1 30
M  V30 34 1 3 31
M  V30 35 1 4 32
M  V30 36 1 7 33
M  V30 37 1 10 34
M  V30 38 1 10 35
M  V30 39 1 11 36
M  V30 40 1 11 37
M  V30 41 1 15 38
M  V30 42 1 18 39
M  V30 43 1 26 40
M  V30 44 1 26 41
M  V30 45 1 27 42
M  V30 46 1 27 43
M  V30 END BOND
M  V30 END CTAB
M  END
>  <Dataset>  (843) 
ChEMBL_Kinases

>  <Ligand_Instance>  (843) 
nan

>  <PDB_ID>  (843) 
nan

>  <Standardized_SMILES>  (843) 
Cc1ccc(Cl)cc1N1CCN(c2ncnc3[nH]nc(C(F)(F)F)c23)CC1

>  <Name>  (843) 
nan

>  <Pocket>  (843) 
nan

>  <ATP_Site>  (843) 
nan

>  <Peripheral>  (843) 
nan

>  <Num_H_Atoms_ProtBoundConf>  (843) 
nan

>  <Num_Resolved_Atoms>  (843) 
nan

>  <Num_Not_Resolved_Atoms>  (843) 
nan

$$$$
CHEMBL2012595
     RDKit          3D

  0  0  0  0  0  0  0  0  0  0999 V3000
M  V30 BEGIN CTAB
M  V30 COUNTS 40 43 0 0 0
M  V30 BEGIN ATOM
M  V30 1 C 0.689206 -4.514719 1.323561 0
M  V30 2 C 1.747311 -3.653896 0.788252 0
M  V30 3 C 2.953546 -4.171220 0.337112 0
M  V30 4 C 3.943617 -3.353852 -0.165363 0
M  V30 5 C 3.760370 -1.972973 -0.235483 0
M  V30 6 Cl 4.974580 -0.897460 -0.859446 0
M  V30 7 C 2.538689 -1.516359 0.228606 0
M  V30 8 C 1.510705 -2.292963 0.742699 0
M  V30 9 N 0.309956 -1.645486 1.177645 0
M  V30 10 C -0.986127 -1.935930 0.602098 0
M  V30 11 C -1.906061 -0.730549 0.661121 0
M  V30 12 N -1.142820 0.453482 1.096518 0
M  V30 13 C -0.789619 1.730333 0.576424 0
M  V30 14 N 0.564081 1.776498 0.411486 0
M  V30 15 C 1.106703 2.917116 -0.094298 0
M  V30 16 N 0.360288 3.982726 -0.430724 0
M  V30 17 C -0.966762 3.973988 -0.282944 0
M  V30 18 N -2.041307 4.780339 -0.478616 0
M  V30 19 N -3.174598 4.166319 -0.112376 0
M  V30 20 C -2.888871 2.929154 0.339520 0
M  V30 21 Br -4.156418 1.668275 0.982596 0
M  V30 22 C -1.531370 2.828578 0.227173 0
M  V30 23 C -0.615045 0.188606 2.435808 0
M  V30 24 C 0.582148 -0.710825 2.219664 0
M  V30 25 H 0.281127 -4.077760 2.252958 0
M  V30 26 H -0.083753 -4.731054 0.560124 0
M  V30 27 H 1.167600 -5.496608 1.598710 0
M  V30 28 H 3.076903 -5.261245 0.401541 0
M  V30 29 H 4.871530 -3.756804 -0.511713 0
M  V30 30 H 2.417138 -0.439605 0.164798 0
M  V30 31 H -1.417474 -2.816746 1.112946 0
M  V30 32 H -0.839450 -2.205251 -0.461798 0
M  V30 33 H -2.651339 -0.945461 1.448358 0
M  V30 34 H -2.438133 -0.554255 -0.279218 0
M  V30 35 H 2.166248 3.106472 -0.283613 0
M  V30 36 H -1.917511 5.758189 -0.874656 0
M  V30 37 H -1.371523 -0.328003 3.089933 0
M  V30 38 H -0.247886 1.108483 2.940297 0
M  V30 39 H 0.930524 -1.175901 3.162851 0
M  V30 40 H 1.417280 -0.032077 1.893275 0
M  V30 END ATOM
M  V30 BEGIN BOND
M  V30 1 1 1 2
M  V30 2 2 2 3
M  V30 3 1 3 4
M  V30 4 2 4 5
M  V30 5 1 5 6
M  V30 6 1 5 7
M  V30 7 2 7 8
M  V30 8 1 8 9
M  V30 9 1 9 10
M  V30 10 1 10 11
M  V30 11 1 11 12
M  V30 12 1 12 13
M  V30 13 2 13 14
M  V30 14 1 14 15
M  V30 15 2 15 16
M  V30 16 1 16 17
M  V30 17 1 17 18
M  V30 18 1 18 19
M  V30 19 2 19 20
M  V30 20 1 20 21
M  V30 21 1 20 22
M  V30 22 1 12 23
M  V30 23 1 23 24
M  V30 24 1 8 2
M  V30 25 1 24 9
M  V30 26 1 22 13
M  V30 27 2 22 17
M  V30 28 1 1 25
M  V30 29 1 1 26
M  V30 30 1 1 27
M  V30 31 1 3 28
M  V30 32 1 4 29
M  V30 33 1 7 30
M  V30 34 1 10 31
M  V30 35 1 10 32
M  V30 36 1 11 33
M  V30 37 1 11 34
M  V30 38 1 15 35
M  V30 39 1 18 36
M  V30 40 1 23 37
M  V30 41 1 23 38
M  V30 42 1 24 39
M  V30 43 1 24 40
M  V30 END BOND
M  V30 END CTAB
M  END
>  <Dataset>  (844) 
ChEMBL_Kinases

>  <Ligand_Instance>  (844) 
nan

>  <PDB_ID>  (844) 
nan

>  <Standardized_SMILES>  (844) 
Cc1ccc(Cl)cc1N1CCN(c2ncnc3[nH]nc(Br)c23)CC1

>  <Name>  (844) 
nan

>  <Pocket>  (844) 
nan

>  <ATP_Site>  (844) 
nan

>  <Peripheral>  (844) 
nan

>  <Num_H_Atoms_ProtBoundConf>  (844) 
nan

>  <Num_Resolved_Atoms>  (844) 
nan

>  <Num_Not_Resolved_Atoms>  (844) 
nan

$$$$
CHEMBL2012594
     RDKit          3D

  0  0  0  0  0  0  0  0  0  0999 V3000
M  V30 BEGIN CTAB
M  V30 COUNTS 49 52 0 0 0
M  V30 BEGIN ATOM
M  V30 1 C 1.974076 -3.214609 2.501210 0
M  V30 2 C 1.109589 -3.382901 1.294404 0
M  V30 3 C 1.032725 -2.091143 0.491435 0
M  V30 4 C 2.361961 -1.683845 0.029561 0
M  V30 5 N 3.363410 -2.579225 -0.133718 0
M  V30 6 N 4.436670 -1.968894 -0.583135 0
M  V30 7 C 4.229093 -0.642106 -0.749088 0
M  V30 8 N 4.875190 0.472479 -1.166902 0
M  V30 9 C 4.250922 1.662083 -1.193962 0
M  V30 10 N 2.946193 1.777609 -0.796999 0
M  V30 11 C 2.258400 0.687513 -0.366237 0
M  V30 12 N 0.971525 1.114402 0.044541 0
M  V30 13 C 0.747493 1.309133 1.463127 0
M  V30 14 C -0.650597 1.089703 1.923904 0
M  V30 15 N -1.582541 0.671449 0.891079 0
M  V30 16 C -2.486497 -0.391671 0.874422 0
M  V30 17 C -2.306645 -1.306287 -0.157429 0
M  V30 18 C -3.113245 -2.421612 -0.310436 0
M  V30 19 Cl -2.875016 -3.570997 -1.623282 0
M  V30 20 C -4.127369 -2.595042 0.623073 0
M  V30 21 C -4.327495 -1.691994 1.666573 0
M  V30 22 C -3.497823 -0.593324 1.781289 0
M  V30 23 C -3.744500 0.325195 2.893671 0
M  V30 24 C -1.417149 1.610306 -0.230030 0
M  V30 25 C -0.108908 1.382461 -0.917871 0
M  V30 26 C 2.919561 -0.489196 -0.356691 0
M  V30 27 H 1.961900 -4.142997 3.110664 0
M  V30 28 H 3.004483 -2.984846 2.232200 0
M  V30 29 H 1.534214 -2.391411 3.129437 0
M  V30 30 H 0.082003 -3.688347 1.585926 0
M  V30 31 H 1.539172 -4.127375 0.584865 0
M  V30 32 H 0.444972 -2.398932 -0.436181 0
M  V30 33 H 0.418939 -1.374052 1.001338 0
M  V30 34 H 5.386937 -2.364362 -0.814919 0
M  V30 35 H 4.853590 2.499695 -1.554758 0
M  V30 36 H 1.157585 2.301516 1.761091 0
M  V30 37 H 1.410308 0.576733 1.995290 0
M  V30 38 H -1.005296 2.071389 2.331461 0
M  V30 39 H -0.706455 0.338355 2.754248 0
M  V30 40 H -1.542881 -1.230837 -0.919991 0
M  V30 41 H -4.771787 -3.453012 0.529587 0
M  V30 42 H -5.126061 -1.879393 2.359193 0
M  V30 43 H -2.938155 0.980887 3.186046 0
M  V30 44 H -4.024347 -0.303860 3.791361 0
M  V30 45 H -4.659878 0.937424 2.686805 0
M  V30 46 H -1.463544 2.678156 0.124979 0
M  V30 47 H -2.225553 1.519918 -0.966358 0
M  V30 48 H -0.129479 0.549604 -1.614030 0
M  V30 49 H 0.153211 2.298805 -1.505165 0
M  V30 END ATOM
M  V30 BEGIN BOND
M  V30 1 1 1 2
M  V30 2 1 2 3
M  V30 3 1 3 4
M  V30 4 2 4 5
M  V30 5 1 5 6
M  V30 6 1 6 7
M  V30 7 2 7 8
M  V30 8 1 8 9
M  V30 9 2 9 10
M  V30 10 1 10 11
M  V30 11 1 11 12
M  V30 12 1 12 13
M  V30 13 1 13 14
M  V30 14 1 14 15
M  V30 15 1 15 16
M  V30 16 2 16 17
M  V30 17 1 17 18
M  V30 18 1 18 19
M  V30 19 2 18 20
M  V30 20 1 20 21
M  V30 21 2 21 22
M  V30 22 1 22 23
M  V30 23 1 15 24
M  V30 24 1 24 25
M  V30 25 2 11 26
M  V30 26 1 26 4
M  V30 27 1 26 7
M  V30 28 1 25 12
M  V30 29 1 22 16
M  V30 30 1 1 27
M  V30 31 1 1 28
M  V30 32 1 1 29
M  V30 33 1 2 30
M  V30 34 1 2 31
M  V30 35 1 3 32
M  V30 36 1 3 33
M  V30 37 1 6 34
M  V30 38 1 9 35
M  V30 39 1 13 36
M  V30 40 1 13 37
M  V30 41 1 14 38
M  V30 42 1 14 39
M  V30 43 1 17 40
M  V30 44 1 20 41
M  V30 45 1 21 42
M  V30 46 1 23 43
M  V30 47 1 23 44
M  V30 48 1 23 45
M  V30 49 1 24 46
M  V30 50 1 24 47
M  V30 51 1 25 48
M  V30 52 1 25 49
M  V30 END BOND
M  V30 END CTAB
M  END
>  <Dataset>  (845) 
ChEMBL_Kinases

>  <Ligand_Instance>  (845) 
nan

>  <PDB_ID>  (845) 
nan

>  <Standardized_SMILES>  (845) 
CCCc1n[nH]c2ncnc(N3CCN(c4cc(Cl)ccc4C)CC3)c12

>  <Name>  (845) 
nan

>  <Pocket>  (845) 
nan

>  <ATP_Site>  (845) 
nan

>  <Peripheral>  (845) 
nan

>  <Num_H_Atoms_ProtBoundConf>  (845) 
nan

>  <Num_Resolved_Atoms>  (845) 
nan

>  <Num_Not_Resolved_Atoms>  (845) 
nan

$$$$
CHEMBL2012593
     RDKit          3D

  0  0  0  0  0  0  0  0  0  0999 V3000
M  V30 BEGIN CTAB
M  V30 COUNTS 49 52 0 0 0
M  V30 BEGIN ATOM
M  V30 1 C 0.841000 -4.157508 0.821187 0
M  V30 2 C 1.797241 -3.611771 -0.145013 0
M  V30 3 C 3.035185 -4.229172 -0.167857 0
M  V30 4 C 4.019828 -3.797880 -1.024016 0
M  V30 5 C 3.693462 -2.727975 -1.842242 0
M  V30 6 Cl 5.019646 -2.241116 -2.911577 0
M  V30 7 C 2.454383 -2.130127 -1.801558 0
M  V30 8 C 1.465355 -2.549698 -0.954155 0
M  V30 9 N 0.222556 -1.887786 -1.023985 0
M  V30 10 C 0.107933 -0.592400 -1.667516 0
M  V30 11 C -0.705590 0.357101 -0.771881 0
M  V30 12 N -0.676113 -0.132118 0.596808 0
M  V30 13 C -0.142977 0.131915 1.886026 0
M  V30 14 N 0.808505 -0.823761 2.050394 0
M  V30 15 C 1.541241 -0.845420 3.203118 0
M  V30 16 N 1.320771 0.069871 4.162793 0
M  V30 17 C 0.387756 1.023411 4.026722 0
M  V30 18 N -0.102857 2.033772 4.725244 0
M  V30 19 N -1.051497 2.620984 4.058279 0
M  V30 20 C -1.267280 2.029921 2.834890 0
M  V30 21 C -2.246700 2.430497 1.780659 0
M  V30 22 C -3.324472 1.438588 1.517872 0
M  V30 23 C -1.700150 3.181213 0.627630 0
M  V30 24 C -0.346021 1.040338 2.864034 0
M  V30 25 C -1.504943 -1.328175 0.523912 0
M  V30 26 C -1.112322 -2.229369 -0.600041 0
M  V30 27 H 1.390744 -4.727293 1.647564 0
M  V30 28 H 0.231591 -3.450531 1.371362 0
M  V30 29 H 0.171351 -4.957770 0.413758 0
M  V30 30 H 3.263048 -5.070967 0.489422 0
M  V30 31 H 4.975138 -4.303493 -1.015188 0
M  V30 32 H 2.450062 -1.343995 -2.524219 0
M  V30 33 H -0.536575 -0.731487 -2.578352 0
M  V30 34 H 1.037714 -0.137993 -1.986725 0
M  V30 35 H -0.116178 1.317015 -0.778026 0
M  V30 36 H -1.696062 0.570669 -1.155722 0
M  V30 37 H 2.330620 -1.523357 3.503886 0
M  V30 38 H 0.231000 2.317721 5.684383 0
M  V30 39 H -2.827078 3.255790 2.353416 0
M  V30 40 H -3.362805 1.276389 0.402150 0
M  V30 41 H -4.355434 1.762837 1.769166 0
M  V30 42 H -3.190042 0.488616 2.081554 0
M  V30 43 H -1.979488 4.277568 0.594543 0
M  V30 44 H -2.169710 2.799747 -0.317099 0
M  V30 45 H -0.591590 3.212654 0.587131 0
M  V30 46 H -1.552061 -1.867713 1.505910 0
M  V30 47 H -2.551006 -0.979731 0.301310 0
M  V30 48 H -1.273544 -3.304930 -0.390790 0
M  V30 49 H -1.820733 -2.060534 -1.483565 0
M  V30 END ATOM
M  V30 BEGIN BOND
M  V30 1 1 1 2
M  V30 2 2 2 3
M  V30 3 1 3 4
M  V30 4 2 4 5
M  V30 5 1 5 6
M  V30 6 1 5 7
M  V30 7 2 7 8
M  V30 8 1 8 9
M  V30 9 1 9 10
M  V30 10 1 10 11
M  V30 11 1 11 12
M  V30 12 1 12 13
M  V30 13 2 13 14
M  V30 14 1 14 15
M  V30 15 2 15 16
M  V30 16 1 16 17
M  V30 17 1 17 18
M  V30 18 1 18 19
M  V30 19 2 19 20
M  V30 20 1 20 21
M  V30 21 1 21 22
M  V30 22 1 21 23
M  V30 23 1 20 24
M  V30 24 1 12 25
M  V30 25 1 25 26
M  V30 26 1 8 2
M  V30 27 1 26 9
M  V30 28 1 24 13
M  V30 29 2 24 17
M  V30 30 1 1 27
M  V30 31 1 1 28
M  V30 32 1 1 29
M  V30 33 1 3 30
M  V30 34 1 4 31
M  V30 35 1 7 32
M  V30 36 1 10 33
M  V30 37 1 10 34
M  V30 38 1 11 35
M  V30 39 1 11 36
M  V30 40 1 15 37
M  V30 41 1 18 38
M  V30 42 1 21 39
M  V30 43 1 22 40
M  V30 44 1 22 41
M  V30 45 1 22 42
M  V30 46 1 23 43
M  V30 47 1 23 44
M  V30 48 1 23 45
M  V30 49 1 25 46
M  V30 50 1 25 47
M  V30 51 1 26 48
M  V30 52 1 26 49
M  V30 END BOND
M  V30 END CTAB
M  END
>  <Dataset>  (846) 
ChEMBL_Kinases

>  <Ligand_Instance>  (846) 
nan

>  <PDB_ID>  (846) 
nan

>  <Standardized_SMILES>  (846) 
Cc1ccc(Cl)cc1N1CCN(c2ncnc3[nH]nc(C(C)C)c23)CC1

>  <Name>  (846) 
nan

>  <Pocket>  (846) 
nan

>  <ATP_Site>  (846) 
nan

>  <Peripheral>  (846) 
nan

>  <Num_H_Atoms_ProtBoundConf>  (846) 
nan

>  <Num_Resolved_Atoms>  (846) 
nan

>  <Num_Not_Resolved_Atoms>  (846) 
nan

$$$$
CHEMBL2012592
     RDKit          3D

  0  0  0  0  0  0  0  0  0  0999 V3000
M  V30 BEGIN CTAB
M  V30 COUNTS 46 49 0 0 0
M  V30 BEGIN ATOM
M  V30 1 C 0.116891 -4.039353 1.316948 0
M  V30 2 C 0.388293 -2.724620 0.568266 0
M  V30 3 C 1.438327 -3.041641 -0.438699 0
M  V30 4 N 2.105430 -4.195305 -0.628201 0
M  V30 5 N 2.953817 -4.104900 -1.636418 0
M  V30 6 C 2.912022 -2.881651 -2.192012 0
M  V30 7 N 3.532470 -2.258529 -3.229071 0
M  V30 8 C 3.200241 -0.972189 -3.508894 0
M  V30 9 N 2.275781 -0.284145 -2.796807 0
M  V30 10 C 1.655379 -0.915501 -1.753930 0
M  V30 11 N 0.747811 -0.084906 -1.037078 0
M  V30 12 C 1.502497 0.477151 0.073019 0
M  V30 13 C 0.651812 1.386282 0.928026 0
M  V30 14 N -0.654091 0.797653 1.139049 0
M  V30 15 C -1.116390 0.712692 2.476478 0
M  V30 16 C -1.370302 -0.442406 3.180434 0
M  V30 17 C -1.809572 -0.483221 4.478814 0
M  V30 18 Cl -2.086712 -2.039976 5.246155 0
M  V30 19 C -2.020297 0.701515 5.150851 0
M  V30 20 C -1.767597 1.873935 4.451221 0
M  V30 21 C -1.326412 1.893433 3.146629 0
M  V30 22 C -1.092546 3.202683 2.490756 0
M  V30 23 C -1.408045 0.340441 0.019091 0
M  V30 24 C -0.653006 0.213946 -1.265277 0
M  V30 25 C 1.960482 -2.220001 -1.435236 0
M  V30 26 H -0.946296 -3.969829 1.692028 0
M  V30 27 H 0.122260 -4.817102 0.527820 0
M  V30 28 H 0.839448 -4.181156 2.126855 0
M  V30 29 H 0.655783 -1.960972 1.292457 0
M  V30 30 H -0.583402 -2.532860 0.022054 0
M  V30 31 H 3.606505 -4.843091 -2.015811 0
M  V30 32 H 3.766625 -0.590870 -4.359862 0
M  V30 33 H 2.101818 -0.231390 0.636421 0
M  V30 34 H 2.241530 1.182092 -0.421830 0
M  V30 35 H 0.492090 2.384728 0.462426 0
M  V30 36 H 1.207790 1.538390 1.871258 0
M  V30 37 H -1.209408 -1.374485 2.661418 0
M  V30 38 H -2.364899 0.668751 6.170387 0
M  V30 39 H -1.938450 2.816153 4.989685 0
M  V30 40 H -1.668753 3.989450 3.048487 0
M  V30 41 H -1.531370 3.250309 1.456045 0
M  V30 42 H -0.036322 3.528103 2.506152 0
M  V30 43 H -1.924540 -0.599274 0.329973 0
M  V30 44 H -2.261417 1.080142 -0.093206 0
M  V30 45 H -0.702553 1.214867 -1.790500 0
M  V30 46 H -1.114426 -0.509808 -1.968468 0
M  V30 END ATOM
M  V30 BEGIN BOND
M  V30 1 1 1 2
M  V30 2 1 2 3
M  V30 3 2 3 4
M  V30 4 1 4 5
M  V30 5 1 5 6
M  V30 6 2 6 7
M  V30 7 1 7 8
M  V30 8 2 8 9
M  V30 9 1 9 10
M  V30 10 1 10 11
M  V30 11 1 11 12
M  V30 12 1 12 13
M  V30 13 1 13 14
M  V30 14 1 14 15
M  V30 15 2 15 16
M  V30 16 1 16 17
M  V30 17 1 17 18
M  V30 18 2 17 19
M  V30 19 1 19 20
M  V30 20 2 20 21
M  V30 21 1 21 22
M  V30 22 1 14 23
M  V30 23 1 23 24
M  V30 24 2 10 25
M  V30 25 1 25 3
M  V30 26 1 25 6
M  V30 27 1 24 11
M  V30 28 1 21 15
M  V30 29 1 1 26
M  V30 30 1 1 27
M  V30 31 1 1 28
M  V30 32 1 2 29
M  V30 33 1 2 30
M  V30 34 1 5 31
M  V30 35 1 8 32
M  V30 36 1 12 33
M  V30 37 1 12 34
M  V30 38 1 13 35
M  V30 39 1 13 36
M  V30 40 1 16 37
M  V30 41 1 19 38
M  V30 42 1 20 39
M  V30 43 1 22 40
M  V30 44 1 22 41
M  V30 45 1 22 42
M  V30 46 1 23 43
M  V30 47 1 23 44
M  V30 48 1 24 45
M  V30 49 1 24 46
M  V30 END BOND
M  V30 END CTAB
M  END
>  <Dataset>  (847) 
ChEMBL_Kinases

>  <Ligand_Instance>  (847) 
nan

>  <PDB_ID>  (847) 
nan

>  <Standardized_SMILES>  (847) 
CCc1n[nH]c2ncnc(N3CCN(c4cc(Cl)ccc4C)CC3)c12

>  <Name>  (847) 
nan

>  <Pocket>  (847) 
nan

>  <ATP_Site>  (847) 
nan

>  <Peripheral>  (847) 
nan

>  <Num_H_Atoms_ProtBoundConf>  (847) 
nan

>  <Num_Resolved_Atoms>  (847) 
nan

>  <Num_Not_Resolved_Atoms>  (847) 
nan

$$$$
CHEMBL2012591
     RDKit          3D

  0  0  0  0  0  0  0  0  0  0999 V3000
M  V30 BEGIN CTAB
M  V30 COUNTS 43 46 0 0 0
M  V30 BEGIN ATOM
M  V30 1 C -0.548941 -3.889020 -1.540910 0
M  V30 2 C 0.304695 -3.860867 -0.317719 0
M  V30 3 C 0.607327 -5.048813 0.329370 0
M  V30 4 C 1.394431 -5.063440 1.464455 0
M  V30 5 C 1.877204 -3.863794 1.945313 0
M  V30 6 Cl 2.879289 -3.836417 3.382221 0
M  V30 7 C 1.558818 -2.698082 1.279520 0
M  V30 8 C 0.767805 -2.641313 0.131302 0
M  V30 9 N 0.482332 -1.407847 -0.499238 0
M  V30 10 C -0.781232 -0.767390 -0.751635 0
M  V30 11 C -0.781665 0.721488 -0.556246 0
M  V30 12 N 0.406162 1.199327 0.123451 0
M  V30 13 C 0.526668 2.214806 1.115159 0
M  V30 14 N 1.224151 3.297246 0.659029 0
M  V30 15 C 1.424458 4.376505 1.460339 0
M  V30 16 N 0.956835 4.448981 2.734955 0
M  V30 17 C 0.270788 3.381734 3.181914 0
M  V30 18 N -0.345341 3.046438 4.351008 0
M  V30 19 N -0.887203 1.842266 4.274020 0
M  V30 20 C -0.662790 1.300008 3.040561 0
M  V30 21 C -1.086467 -0.019563 2.548546 0
M  V30 22 C 0.048543 2.277864 2.406835 0
M  V30 23 C 1.717628 0.645954 -0.163357 0
M  V30 24 C 1.618823 -0.615477 -0.993042 0
M  V30 25 H -0.611366 -4.952441 -1.909126 0
M  V30 26 H -1.575869 -3.647575 -1.226118 0
M  V30 27 H -0.157380 -3.265881 -2.356501 0
M  V30 28 H 0.216536 -5.997365 -0.063884 0
M  V30 29 H 1.598003 -6.011796 1.926329 0
M  V30 30 H 1.950016 -1.771078 1.677205 0
M  V30 31 H -1.595450 -1.169911 -0.112830 0
M  V30 32 H -0.999979 -0.965969 -1.842310 0
M  V30 33 H -0.758273 1.255627 -1.557416 0
M  V30 34 H -1.709042 1.106821 -0.088439 0
M  V30 35 H 1.980416 5.233210 1.089067 0
M  V30 36 H -0.387727 3.662139 5.207792 0
M  V30 37 H -1.328249 -0.627228 3.472337 0
M  V30 38 H -0.267473 -0.588696 2.070092 0
M  V30 39 H -2.033376 -0.020716 1.980289 0
M  V30 40 H 2.258970 1.401627 -0.769278 0
M  V30 41 H 2.338849 0.490591 0.743759 0
M  V30 42 H 1.502248 -0.390954 -2.074147 0
M  V30 43 H 2.581791 -1.160378 -0.883882 0
M  V30 END ATOM
M  V30 BEGIN BOND
M  V30 1 1 1 2
M  V30 2 2 2 3
M  V30 3 1 3 4
M  V30 4 2 4 5
M  V30 5 1 5 6
M  V30 6 1 5 7
M  V30 7 2 7 8
M  V30 8 1 8 9
M  V30 9 1 9 10
M  V30 10 1 10 11
M  V30 11 1 11 12
M  V30 12 1 12 13
M  V30 13 2 13 14
M  V30 14 1 14 15
M  V30 15 2 15 16
M  V30 16 1 16 17
M  V30 17 1 17 18
M  V30 18 1 18 19
M  V30 19 2 19 20
M  V30 20 1 20 21
M  V30 21 1 20 22
M  V30 22 1 12 23
M  V30 23 1 23 24
M  V30 24 1 8 2
M  V30 25 1 24 9
M  V30 26 1 22 13
M  V30 27 2 22 17
M  V30 28 1 1 25
M  V30 29 1 1 26
M  V30 30 1 1 27
M  V30 31 1 3 28
M  V30 32 1 4 29
M  V30 33 1 7 30
M  V30 34 1 10 31
M  V30 35 1 10 32
M  V30 36 1 11 33
M  V30 37 1 11 34
M  V30 38 1 15 35
M  V30 39 1 18 36
M  V30 40 1 21 37
M  V30 41 1 21 38
M  V30 42 1 21 39
M  V30 43 1 23 40
M  V30 44 1 23 41
M  V30 45 1 24 42
M  V30 46 1 24 43
M  V30 END BOND
M  V30 END CTAB
M  END
>  <Dataset>  (848) 
ChEMBL_Kinases

>  <Ligand_Instance>  (848) 
nan

>  <PDB_ID>  (848) 
nan

>  <Standardized_SMILES>  (848) 
Cc1ccc(Cl)cc1N1CCN(c2ncnc3[nH]nc(C)c23)CC1

>  <Name>  (848) 
nan

>  <Pocket>  (848) 
nan

>  <ATP_Site>  (848) 
nan

>  <Peripheral>  (848) 
nan

>  <Num_H_Atoms_ProtBoundConf>  (848) 
nan

>  <Num_Resolved_Atoms>  (848) 
nan

>  <Num_Not_Resolved_Atoms>  (848) 
nan

$$$$
CHEMBL199291
     RDKit          3D

  0  0  0  0  0  0  0  0  0  0999 V3000
M  V30 BEGIN CTAB
M  V30 COUNTS 64 68 0 0 0
M  V30 BEGIN ATOM
M  V30 1 C 1.840080 -0.413977 5.370601 0
M  V30 2 C 1.657696 -1.722392 4.612648 0
M  V30 3 C 2.601675 -2.708689 5.320044 0
M  V30 4 C 0.260574 -2.231056 4.990279 0
M  V30 5 N 1.902499 -1.584373 3.263529 0
M  V30 6 C 1.742999 -2.689964 2.393442 0
M  V30 7 C 0.653061 -2.366692 1.362128 0
M  V30 8 C 0.562675 -0.878370 1.273776 0
M  V30 9 C -0.296230 -0.359278 0.211857 0
M  V30 10 C -0.239560 -0.848070 -1.080106 0
M  V30 11 C -1.024271 -0.386893 -2.110875 0
M  V30 12 C -1.927929 0.618457 -1.876625 0
M  V30 13 C -2.731632 1.120575 -2.852435 0
M  V30 14 C -2.604720 0.567381 -4.124760 0
M  V30 15 C -1.695082 -0.443988 -4.355070 0
M  V30 16 O -1.614915 -0.910994 -5.512101 0
M  V30 17 N -0.924302 -0.903770 -3.355234 0
M  V30 18 C -0.003709 -1.948682 -3.643294 0
M  V30 19 C -0.542757 -3.199219 -3.441846 0
M  V30 20 Cl -2.177277 -3.554166 -2.890491 0
M  V30 21 C 0.194462 -4.363647 -3.666569 0
M  V30 22 C 1.514100 -4.243185 -4.108224 0
M  V30 23 C 2.035990 -2.982397 -4.304311 0
M  V30 24 C 1.296323 -1.834691 -4.078211 0
M  V30 25 Cl 1.880339 -0.196054 -4.300809 0
M  V30 26 C -1.981019 1.102922 -0.586592 0
M  V30 27 C -2.885907 2.174565 -0.197234 0
M  V30 28 C -4.255590 2.261221 -0.285607 0
M  V30 29 C -4.970663 3.350780 0.136968 0
M  V30 30 C -4.299773 4.436090 0.686202 0
M  V30 31 F -5.001184 5.516699 1.105098 0
M  V30 32 C -2.922851 4.362236 0.781561 0
M  V30 33 C -2.200531 3.245226 0.347617 0
M  V30 34 Cl -0.459821 3.335511 0.549407 0
M  V30 35 N -1.203984 0.640255 0.418241 0
M  V30 36 C 1.973929 -0.289395 1.262179 0
M  V30 37 C 2.487102 -0.429694 2.704992 0
M  V30 38 H 1.131381 0.362821 5.000382 0
M  V30 39 H 1.464783 -0.627806 6.415462 0
M  V30 40 H 2.875910 -0.090325 5.459090 0
M  V30 41 H 3.632972 -2.346557 5.308779 0
M  V30 42 H 2.454769 -3.686389 4.833184 0
M  V30 43 H 2.171657 -2.815553 6.356870 0
M  V30 44 H -0.418535 -1.364044 4.884769 0
M  V30 45 H -0.089229 -2.985890 4.254405 0
M  V30 46 H 0.258947 -2.647660 6.016656 0
M  V30 47 H 2.688773 -2.784477 1.807909 0
M  V30 48 H 1.579831 -3.628703 2.910710 0
M  V30 49 H -0.280039 -2.826685 1.685857 0
M  V30 50 H 0.954597 -2.735298 0.355661 0
M  V30 51 H 0.125996 -0.493369 2.241592 0
M  V30 52 H 0.446404 -1.629215 -1.311045 0
M  V30 53 H -3.427858 1.911705 -2.642503 0
M  V30 54 H -3.274759 1.004593 -4.881433 0
M  V30 55 H -0.118371 -5.379740 -3.544103 0
M  V30 56 H 2.163659 -5.099224 -4.310014 0
M  V30 57 H 3.045483 -2.802137 -4.643542 0
M  V30 58 H -4.707934 1.376127 -0.718612 0
M  V30 59 H -6.046365 3.326864 0.026346 0
M  V30 60 H -2.437593 5.245517 1.222764 0
M  V30 61 H 1.881382 0.759110 0.947674 0
M  V30 62 H 2.636501 -0.811074 0.547246 0
M  V30 63 H 3.585863 -0.556279 2.644339 0
M  V30 64 H 2.272440 0.496022 3.245098 0
M  V30 END ATOM
M  V30 BEGIN BOND
M  V30 1 1 1 2
M  V30 2 1 2 3
M  V30 3 1 2 4
M  V30 4 1 2 5
M  V30 5 1 5 6
M  V30 6 1 6 7
M  V30 7 1 7 8
M  V30 8 1 8 9
M  V30 9 2 9 10
M  V30 10 1 10 11
M  V30 11 2 11 12
M  V30 12 1 12 13
M  V30 13 2 13 14
M  V30 14 1 14 15
M  V30 15 2 15 16
M  V30 16 1 15 17
M  V30 17 1 17 18
M  V30 18 2 18 19
M  V30 19 1 19 20
M  V30 20 1 19 21
M  V30 21 2 21 22
M  V30 22 1 22 23
M  V30 23 2 23 24
M  V30 24 1 24 25
M  V30 25 1 12 26
M  V30 26 1 26 27
M  V30 27 2 27 28
M  V30 28 1 28 29
M  V30 29 2 29 30
M  V30 30 1 30 31
M  V30 31 1 30 32
M  V30 32 2 32 33
M  V30 33 1 33 34
M  V30 34 2 26 35
M  V30 35 1 8 36
M  V30 36 1 36 37
M  V30 37 1 37 5
M  V30 38 1 35 9
M  V30 39 1 17 11
M  V30 40 1 24 18
M  V30 41 1 33 27
M  V30 42 1 1 38
M  V30 43 1 1 39
M  V30 44 1 1 40
M  V30 45 1 3 41
M  V30 46 1 3 42
M  V30 47 1 3 43
M  V30 48 1 4 44
M  V30 49 1 4 45
M  V30 50 1 4 46
M  V30 51 1 6 47
M  V30 52 1 6 48
M  V30 53 1 7 49
M  V30 54 1 7 50
M  V30 55 1 8 51
M  V30 56 1 10 52
M  V30 57 1 13 53
M  V30 58 1 14 54
M  V30 59 1 21 55
M  V30 60 1 22 56
M  V30 61 1 23 57
M  V30 62 1 28 58
M  V30 63 1 29 59
M  V30 64 1 32 60
M  V30 65 1 36 61
M  V30 66 1 36 62
M  V30 67 1 37 63
M  V30 68 1 37 64
M  V30 END BOND
M  V30 END CTAB
M  END
>  <Dataset>  (849) 
ChEMBL_Kinases

>  <Ligand_Instance>  (849) 
nan

>  <PDB_ID>  (849) 
nan

>  <Standardized_SMILES>  (849) 
CC(C)(C)N1CCC(c2cc3c(ccc(=O)n3-c3c(Cl)cccc3Cl)c(-c3ccc(F)cc3Cl)n2)CC1

>  <Name>  (849) 
nan

>  <Pocket>  (849) 
nan

>  <ATP_Site>  (849) 
nan

>  <Peripheral>  (849) 
nan

>  <Num_H_Atoms_ProtBoundConf>  (849) 
nan

>  <Num_Resolved_Atoms>  (849) 
nan

>  <Num_Not_Resolved_Atoms>  (849) 
nan

$$$$
CHEMBL200820
     RDKit          3D

  0  0  0  0  0  0  0  0  0  0999 V3000
M  V30 BEGIN CTAB
M  V30 COUNTS 53 56 0 0 0
M  V30 BEGIN ATOM
M  V30 1 C 0.606349 0.737960 6.276892 0
M  V30 2 O 0.055253 0.306033 5.063626 0
M  V30 3 C 0.520198 0.795060 3.863568 0
M  V30 4 C 1.557483 1.729077 3.949301 0
M  V30 5 C 2.120856 2.299734 2.834639 0
M  V30 6 C 1.621295 1.914956 1.612506 0
M  V30 7 C 2.218515 2.519088 0.458977 0
M  V30 8 C 2.712556 3.014087 -0.522732 0
M  V30 9 C 3.302628 3.599357 -1.730236 0
M  V30 10 C 2.307967 4.474469 -2.467029 0
M  V30 11 C 3.657665 2.472210 -2.674792 0
M  V30 12 N 4.499996 4.310845 -1.399001 0
M  V30 13 C 0.601294 0.994172 1.583570 0
M  V30 14 C -0.003371 0.389075 2.628600 0
M  V30 15 C -1.101203 -0.540352 2.597027 0
M  V30 16 N -1.801436 -0.824879 3.690183 0
M  V30 17 N -2.741521 -1.721829 3.446053 0
M  V30 18 C -2.709790 -2.090781 2.130061 0
M  V30 19 N -3.410275 -2.950833 1.357245 0
M  V30 20 C -3.109765 -3.091003 0.073754 0
M  V30 21 N -3.833420 -3.997768 -0.782490 0
M  V30 22 C -3.385570 -5.345199 -0.918057 0
M  V30 23 C -3.069258 -5.651644 -2.225370 0
M  V30 24 C -2.612790 -6.930910 -2.538394 0
M  V30 25 C -2.469259 -7.901789 -1.567900 0
M  V30 26 F -2.023413 -9.159881 -1.857634 0
M  V30 27 C -2.794537 -7.564063 -0.266003 0
M  V30 28 C -3.249873 -6.299308 0.067508 0
M  V30 29 F -3.588564 -5.886899 1.308583 0
M  V30 30 C -2.074768 -2.357039 -0.485481 0
M  V30 31 C -1.380773 -1.490894 0.323111 0
M  V30 32 C -1.676468 -1.333749 1.640424 0
M  V30 33 H 1.676760 0.449895 6.342232 0
M  V30 34 H 0.536985 1.861604 6.370465 0
M  V30 35 H 0.117260 0.289687 7.155642 0
M  V30 36 H 1.952395 2.033261 4.911832 0
M  V30 37 H 2.914357 3.010486 2.960029 0
M  V30 38 H 1.297363 3.984930 -2.377737 0
M  V30 39 H 2.205392 5.465363 -2.001550 0
M  V30 40 H 2.525015 4.491214 -3.547985 0
M  V30 41 H 4.666973 2.050067 -2.461031 0
M  V30 42 H 2.852402 1.715369 -2.616305 0
M  V30 43 H 3.730769 2.889596 -3.700291 0
M  V30 44 H 4.485600 4.765657 -0.462309 0
M  V30 45 H 4.755547 4.998818 -2.164365 0
M  V30 46 H 0.314592 0.821720 0.568168 0
M  V30 47 H -1.900153 -0.604714 4.683603 0
M  V30 48 H -4.674816 -3.643676 -1.286926 0
M  V30 49 H -3.123160 -5.014579 -3.102240 0
M  V30 50 H -2.343917 -7.245508 -3.547385 0
M  V30 51 H -2.703953 -8.288196 0.556142 0
M  V30 52 H -1.848891 -2.492654 -1.543764 0
M  V30 53 H -0.596458 -0.969627 -0.139131 0
M  V30 END ATOM
M  V30 BEGIN BOND
M  V30 1 1 1 2
M  V30 2 1 2 3
M  V30 3 2 3 4
M  V30 4 1 4 5
M  V30 5 2 5 6
M  V30 6 1 6 7
M  V30 7 3 7 8
M  V30 8 1 8 9
M  V30 9 1 9 10
M  V30 10 1 9 11
M  V30 11 1 9 12
M  V30 12 1 6 13
M  V30 13 2 13 14
M  V30 14 1 14 15
M  V30 15 1 15 16
M  V30 16 1 16 17
M  V30 17 2 17 18
M  V30 18 1 18 19
M  V30 19 2 19 20
M  V30 20 1 20 21
M  V30 21 1 21 22
M  V30 22 2 22 23
M  V30 23 1 23 24
M  V30 24 2 24 25
M  V30 25 1 25 26
M  V30 26 1 25 27
M  V30 27 2 27 28
M  V30 28 1 28 29
M  V30 29 1 20 30
M  V30 30 2 30 31
M  V30 31 1 31 32
M  V30 32 1 14 3
M  V30 33 2 32 15
M  V30 34 1 32 18
M  V30 35 1 28 22
M  V30 36 1 1 33
M  V30 37 1 1 34
M  V30 38 1 1 35
M  V30 39 1 4 36
M  V30 40 1 5 37
M  V30 41 1 10 38
M  V30 42 1 10 39
M  V30 43 1 10 40
M  V30 44 1 11 41
M  V30 45 1 11 42
M  V30 46 1 11 43
M  V30 47 1 12 44
M  V30 48 1 12 45
M  V30 49 1 13 46
M  V30 50 1 16 47
M  V30 51 1 21 48
M  V30 52 1 23 49
M  V30 53 1 24 50
M  V30 54 1 27 51
M  V30 55 1 30 52
M  V30 56 1 31 53
M  V30 END BOND
M  V30 END CTAB
M  END
>  <Dataset>  (850) 
ChEMBL_Kinases

>  <Ligand_Instance>  (850) 
nan

>  <PDB_ID>  (850) 
nan

>  <Standardized_SMILES>  (850) 
COc1ccc(C#CC(C)(C)N)cc1-c1[nH]nc2nc(Nc3ccc(F)cc3F)ccc12

>  <Name>  (850) 
nan

>  <Pocket>  (850) 
nan

>  <ATP_Site>  (850) 
nan

>  <Peripheral>  (850) 
nan

>  <Num_H_Atoms_ProtBoundConf>  (850) 
nan

>  <Num_Resolved_Atoms>  (850) 
nan

>  <Num_Not_Resolved_Atoms>  (850) 
nan

$$$$
CHEMBL200847
     RDKit          3D

  0  0  0  0  0  0  0  0  0  0999 V3000
M  V30 BEGIN CTAB
M  V30 COUNTS 59 62 0 0 0
M  V30 BEGIN ATOM
M  V30 1 C 9.085413 1.135291 4.038839 0
M  V30 2 O 8.234694 1.887164 3.225127 0
M  V30 3 C 6.903049 1.714691 2.982903 0
M  V30 4 O 7.254498 0.822661 3.764249 0
M  V30 5 C 5.485151 1.613475 2.662478 0
M  V30 6 C 5.216103 2.053374 1.213452 0
M  V30 7 C 3.732241 1.932453 0.967937 0
M  V30 8 C 2.801807 2.855628 1.406021 0
M  V30 9 C 3.042367 4.131559 2.163647 0
M  V30 10 N 1.608856 2.385800 1.012157 0
M  V30 11 C 1.666634 1.245944 0.360541 0
M  V30 12 C 0.691788 0.335460 -0.222711 0
M  V30 13 C -0.396121 -0.151508 0.347572 0
M  V30 14 C -0.784686 0.164128 1.697873 0
M  V30 15 O -0.227767 0.886801 2.559585 0
M  V30 16 N -2.000258 -0.489912 2.020918 0
M  V30 17 C -2.363072 -1.219132 0.851111 0
M  V30 18 C -3.455083 -2.051904 0.561139 0
M  V30 19 C -3.623631 -2.676045 -0.659033 0
M  V30 20 C -4.818774 -3.505551 -0.767937 0
M  V30 21 C -5.259303 -4.146388 0.400879 0
M  V30 22 C -6.390334 -4.953043 0.405393 0
M  V30 23 C -7.087180 -5.124248 -0.755379 0
M  V30 24 O -8.226463 -5.936376 -0.748894 0
M  V30 25 C -6.656543 -4.497331 -1.900371 0
M  V30 26 O -7.422839 -4.728322 -3.024909 0
M  V30 27 C -7.127925 -4.171493 -4.268924 0
M  V30 28 C -5.530458 -3.682540 -1.947163 0
M  V30 29 C -2.671434 -2.469427 -1.638740 0
M  V30 30 C -1.570437 -1.649452 -1.392981 0
M  V30 31 C -1.433417 -1.040714 -0.160406 0
M  V30 32 C 3.031886 0.927929 0.315529 0
M  V30 33 C 3.673587 -0.280296 -0.315974 0
M  V30 34 H 9.237287 0.090700 3.675273 0
M  V30 35 H 10.082763 1.681974 4.003084 0
M  V30 36 H 8.773371 1.094258 5.109004 0
M  V30 37 H 4.843476 2.218997 3.359548 0
M  V30 38 H 5.116059 0.569162 2.769663 0
M  V30 39 H 5.575761 3.067385 1.049201 0
M  V30 40 H 5.725999 1.305324 0.577817 0
M  V30 41 H 4.111045 4.266812 2.370233 0
M  V30 42 H 2.738525 5.012402 1.525502 0
M  V30 43 H 2.476775 4.082609 3.102698 0
M  V30 44 H 0.739793 2.912492 1.205963 0
M  V30 45 H 0.870462 0.006960 -1.259346 0
M  V30 46 H -2.547926 -0.467862 2.919481 0
M  V30 47 H -4.156221 -2.164679 1.368596 0
M  V30 48 H -4.783369 -4.084057 1.378741 0
M  V30 49 H -6.741202 -5.456079 1.311228 0
M  V30 50 H -8.178488 -6.942814 -0.760646 0
M  V30 51 H -7.978448 -4.413697 -4.948806 0
M  V30 52 H -6.996700 -3.073429 -4.157068 0
M  V30 53 H -6.203166 -4.624646 -4.662102 0
M  V30 54 H -5.205658 -3.203107 -2.836867 0
M  V30 55 H -2.841113 -2.981494 -2.590277 0
M  V30 56 H -0.835057 -1.498938 -2.171487 0
M  V30 57 H 4.681617 -0.382676 0.090768 0
M  V30 58 H 3.737225 -0.166146 -1.426660 0
M  V30 59 H 3.043710 -1.183064 -0.147920 0
M  V30 END ATOM
M  V30 BEGIN BOND
M  V30 1 1 1 2
M  V30 2 1 2 3
M  V30 3 2 3 4
M  V30 4 1 3 5
M  V30 5 1 5 6
M  V30 6 1 6 7
M  V30 7 2 7 8
M  V30 8 1 8 9
M  V30 9 1 8 10
M  V30 10 1 10 11
M  V30 11 1 11 12
M  V30 12 2 12 13
M  V30 13 1 13 14
M  V30 14 2 14 15
M  V30 15 1 14 16
M  V30 16 1 16 17
M  V30 17 2 17 18
M  V30 18 1 18 19
M  V30 19 1 19 20
M  V30 20 2 20 21
M  V30 21 1 21 22
M  V30 22 2 22 23
M  V30 23 1 23 24
M  V30 24 1 23 25
M  V30 25 1 25 26
M  V30 26 1 26 27
M  V30 27 2 25 28
M  V30 28 2 19 29
M  V30 29 1 29 30
M  V30 30 2 30 31
M  V30 31 2 11 32
M  V30 32 1 32 33
M  V30 33 1 32 7
M  V30 34 1 31 13
M  V30 35 1 31 17
M  V30 36 1 28 20
M  V30 37 1 1 34
M  V30 38 1 1 35
M  V30 39 1 1 36
M  V30 40 1 5 37
M  V30 41 1 5 38
M  V30 42 1 6 39
M  V30 43 1 6 40
M  V30 44 1 9 41
M  V30 45 1 9 42
M  V30 46 1 9 43
M  V30 47 1 10 44
M  V30 48 1 12 45
M  V30 49 1 16 46
M  V30 50 1 18 47
M  V30 51 1 21 48
M  V30 52 1 22 49
M  V30 53 1 24 50
M  V30 54 1 27 51
M  V30 55 1 27 52
M  V30 56 1 27 53
M  V30 57 1 28 54
M  V30 58 1 29 55
M  V30 59 1 30 56
M  V30 60 1 33 57
M  V30 61 1 33 58
M  V30 62 1 33 59
M  V30 END BOND
M  V30 END CTAB
M  END
>  <Dataset>  (851) 
ChEMBL_Kinases

>  <Ligand_Instance>  (851) 
nan

>  <PDB_ID>  (851) 
nan

>  <Standardized_SMILES>  (851) 
COC(=O)CCc1c(C)[nH]c(/C=C2\C(=O)Nc3cc(-c4ccc(O)c(OC)c4)ccc32)c1C

>  <Name>  (851) 
nan

>  <Pocket>  (851) 
nan

>  <ATP_Site>  (851) 
nan

>  <Peripheral>  (851) 
nan

>  <Num_H_Atoms_ProtBoundConf>  (851) 
nan

>  <Num_Resolved_Atoms>  (851) 
nan

>  <Num_Not_Resolved_Atoms>  (851) 
nan

$$$$
CHEMBL200860
     RDKit          3D

  0  0  0  0  0  0  0  0  0  0999 V3000
M  V30 BEGIN CTAB
M  V30 COUNTS 41 44 0 0 0
M  V30 BEGIN ATOM
M  V30 1 O 2.386072 -5.297817 3.082667 0
M  V30 2 C 2.647184 -4.696931 4.178681 0
M  V30 3 O 2.529463 -5.540382 5.268303 0
M  V30 4 C 3.039923 -3.278978 4.405040 0
M  V30 5 C 3.110625 -2.541441 3.117934 0
M  V30 6 C 2.003942 -1.892271 2.617092 0
M  V30 7 C 2.111572 -1.220908 1.421212 0
M  V30 8 C 3.256422 -1.140044 0.664423 0
M  V30 9 N 3.380376 -0.452906 -0.567901 0
M  V30 10 C 2.388625 0.271468 -1.273800 0
M  V30 11 N 2.699562 0.861810 -2.441400 0
M  V30 12 C 1.818072 1.562619 -3.168642 0
M  V30 13 C 0.519000 1.708654 -2.732316 0
M  V30 14 C 0.173110 1.115139 -1.540849 0
M  V30 15 C -1.198505 1.238054 -1.032626 0
M  V30 16 C -1.840635 0.800456 0.052256 0
M  V30 17 C -3.165369 1.100451 0.230036 0
M  V30 18 C -3.983456 0.733828 1.283403 0
M  V30 19 C -5.291078 1.137048 1.274013 0
M  V30 20 C -5.896752 1.893380 0.294875 0
M  V30 21 C -5.098662 2.266363 -0.758880 0
M  V30 22 C -3.767382 1.854036 -0.746312 0
M  V30 23 S -2.400313 2.136779 -1.944317 0
M  V30 24 N 1.126439 0.441215 -0.897254 0
M  V30 25 C 4.341077 -1.801157 1.197522 0
M  V30 26 C 4.278382 -2.485119 2.390381 0
M  V30 27 H 2.032432 -6.419142 5.258916 0
M  V30 28 H 4.048691 -3.233090 4.895014 0
M  V30 29 H 2.343887 -2.820462 5.130060 0
M  V30 30 H 1.074889 -1.928681 3.181448 0
M  V30 31 H 1.215205 -0.745144 1.098929 0
M  V30 32 H 4.341558 -0.487740 -1.016652 0
M  V30 33 H 2.174572 1.993213 -4.088620 0
M  V30 34 H -0.171913 2.277714 -3.336320 0
M  V30 35 H -1.228477 0.219181 0.728748 0
M  V30 36 H -3.644769 0.135232 2.132056 0
M  V30 37 H -5.941042 0.844443 2.112312 0
M  V30 38 H -6.921868 2.224755 0.260775 0
M  V30 39 H -5.402381 2.862224 -1.620468 0
M  V30 40 H 5.283084 -1.798874 0.683414 0
M  V30 41 H 5.181272 -2.993028 2.761930 0
M  V30 END ATOM
M  V30 BEGIN BOND
M  V30 1 2 1 2
M  V30 2 1 2 3
M  V30 3 1 2 4
M  V30 4 1 4 5
M  V30 5 2 5 6
M  V30 6 1 6 7
M  V30 7 2 7 8
M  V30 8 1 8 9
M  V30 9 1 9 10
M  V30 10 2 10 11
M  V30 11 1 11 12
M  V30 12 2 12 13
M  V30 13 1 13 14
M  V30 14 1 14 15
M  V30 15 2 15 16
M  V30 16 1 16 17
M  V30 17 2 17 18
M  V30 18 1 18 19
M  V30 19 2 19 20
M  V30 20 1 20 21
M  V30 21 2 21 22
M  V30 22 1 22 23
M  V30 23 2 14 24
M  V30 24 1 8 25
M  V30 25 2 25 26
M  V30 26 1 26 5
M  V30 27 1 24 10
M  V30 28 1 23 15
M  V30 29 1 22 17
M  V30 30 1 3 27
M  V30 31 1 4 28
M  V30 32 1 4 29
M  V30 33 1 6 30
M  V30 34 1 7 31
M  V30 35 1 9 32
M  V30 36 1 12 33
M  V30 37 1 13 34
M  V30 38 1 16 35
M  V30 39 1 18 36
M  V30 40 1 19 37
M  V30 41 1 20 38
M  V30 42 1 21 39
M  V30 43 1 25 40
M  V30 44 1 26 41
M  V30 END BOND
M  V30 END CTAB
M  END
>  <Dataset>  (852) 
ChEMBL_Kinases

>  <Ligand_Instance>  (852) 
nan

>  <PDB_ID>  (852) 
nan

>  <Standardized_SMILES>  (852) 
O=C(O)Cc1ccc(Nc2nccc(-c3cc4ccccc4s3)n2)cc1

>  <Name>  (852) 
nan

>  <Pocket>  (852) 
nan

>  <ATP_Site>  (852) 
nan

>  <Peripheral>  (852) 
nan

>  <Num_H_Atoms_ProtBoundConf>  (852) 
nan

>  <Num_Resolved_Atoms>  (852) 
nan

>  <Num_Not_Resolved_Atoms>  (852) 
nan

$$$$
CHEMBL201136
     RDKit          3D

  0  0  0  0  0  0  0  0  0  0999 V3000
M  V30 BEGIN CTAB
M  V30 COUNTS 39 40 0 0 0
M  V30 BEGIN ATOM
M  V30 1 C 2.302563 -5.910618 1.926777 0
M  V30 2 O 1.493582 -4.879402 2.408290 0
M  V30 3 C 1.480676 -3.602143 1.863624 0
M  V30 4 N 2.296671 -3.360428 0.816357 0
M  V30 5 C 2.332375 -2.149482 0.245362 0
M  V30 6 C 1.547037 -1.134190 0.707273 0
M  V30 7 C 1.584842 0.197495 0.123370 0
M  V30 8 O 0.965418 1.214222 0.469784 0
M  V30 9 N 2.406148 0.488912 -0.998051 0
M  V30 10 O 2.295664 1.793891 -1.389883 0
M  V30 11 C 1.283427 1.953545 -2.329059 0
M  V30 12 C 1.173350 3.418396 -2.756477 0
M  V30 13 O 2.380693 3.815248 -3.313658 0
M  V30 14 C 0.691903 -1.308590 1.768791 0
M  V30 15 N -0.199128 -0.376410 2.347348 0
M  V30 16 C -1.589100 -0.077761 2.322099 0
M  V30 17 C -2.071279 -0.171092 3.616346 0
M  V30 18 C -3.418201 0.062495 3.921161 0
M  V30 19 C -4.247913 0.395009 2.845839 0
M  V30 20 Br -6.111087 0.739902 3.122779 0
M  V30 21 C -3.777357 0.490279 1.554160 0
M  V30 22 C -2.458269 0.253715 1.306915 0
M  V30 23 F -1.876431 0.304627 0.109836 0
M  V30 24 C 0.677229 -2.572840 2.339598 0
M  V30 25 Cl -0.329393 -3.025003 3.698812 0
M  V30 26 H 2.476567 -6.674726 2.710702 0
M  V30 27 H 3.275317 -5.539717 1.541415 0
M  V30 28 H 1.723023 -6.427198 1.128174 0
M  V30 29 H 3.004367 -2.041705 -0.576963 0
M  V30 30 H 3.026621 -0.227343 -1.467383 0
M  V30 31 H 1.356921 1.288334 -3.192266 0
M  V30 32 H 0.314285 1.716141 -1.821005 0
M  V30 33 H 0.371139 3.468309 -3.529024 0
M  V30 34 H 0.881430 4.032230 -1.887007 0
M  V30 35 H 2.665906 4.685762 -2.938111 0
M  V30 36 H 0.475220 0.178134 2.921188 0
M  V30 37 H -1.544528 -0.418963 4.547577 0
M  V30 38 H -3.880746 0.015507 4.877660 0
M  V30 39 H -4.391976 0.744654 0.703760 0
M  V30 END ATOM
M  V30 BEGIN BOND
M  V30 1 1 1 2
M  V30 2 1 2 3
M  V30 3 2 3 4
M  V30 4 1 4 5
M  V30 5 2 5 6
M  V30 6 1 6 7
M  V30 7 2 7 8
M  V30 8 1 7 9
M  V30 9 1 9 10
M  V30 10 1 10 11
M  V30 11 1 11 12
M  V30 12 1 12 13
M  V30 13 1 6 14
M  V30 14 1 14 15
M  V30 15 1 15 16
M  V30 16 2 16 17
M  V30 17 1 17 18
M  V30 18 2 18 19
M  V30 19 1 19 20
M  V30 20 1 19 21
M  V30 21 2 21 22
M  V30 22 1 22 23
M  V30 23 2 14 24
M  V30 24 1 24 25
M  V30 25 1 24 3
M  V30 26 1 22 16
M  V30 27 1 1 26
M  V30 28 1 1 27
M  V30 29 1 1 28
M  V30 30 1 5 29
M  V30 31 1 9 30
M  V30 32 1 11 31
M  V30 33 1 11 32
M  V30 34 1 12 33
M  V30 35 1 12 34
M  V30 36 1 13 35
M  V30 37 1 15 36
M  V30 38 1 17 37
M  V30 39 1 18 38
M  V30 40 1 21 39
M  V30 END BOND
M  V30 END CTAB
M  END
>  <Dataset>  (853) 
ChEMBL_Kinases

>  <Ligand_Instance>  (853) 
nan

>  <PDB_ID>  (853) 
nan

>  <Standardized_SMILES>  (853) 
COc1ncc(C(=O)NOCCO)c(Nc2ccc(Br)cc2F)c1Cl

>  <Name>  (853) 
nan

>  <Pocket>  (853) 
nan

>  <ATP_Site>  (853) 
nan

>  <Peripheral>  (853) 
nan

>  <Num_H_Atoms_ProtBoundConf>  (853) 
nan

>  <Num_Resolved_Atoms>  (853) 
nan

>  <Num_Not_Resolved_Atoms>  (853) 
nan

$$$$
CHEMBL201156
     RDKit          3D

  0  0  0  0  0  0  0  0  0  0999 V3000
M  V30 BEGIN CTAB
M  V30 COUNTS 35 36 0 0 0
M  V30 BEGIN ATOM
M  V30 1 C 0.121141 -4.403045 2.625503 0
M  V30 2 O 1.156390 -3.584734 3.083410 0
M  V30 3 N 1.727509 -2.919393 2.036560 0
M  V30 4 C 1.085603 -1.674087 1.804350 0
M  V30 5 O 0.151375 -1.497907 2.622815 0
M  V30 6 C 1.501744 -0.770795 0.745801 0
M  V30 7 C 2.586250 -1.068004 -0.044805 0
M  V30 8 N 2.937267 -0.164120 -1.001633 0
M  V30 9 C 4.075462 -0.430214 -1.863502 0
M  V30 10 C 2.279150 1.011948 -1.219750 0
M  V30 11 O 2.658829 1.796108 -2.118464 0
M  V30 12 C 1.171568 1.335566 -0.427110 0
M  V30 13 F 0.532519 2.491145 -0.648428 0
M  V30 14 C 0.811820 0.405259 0.555588 0
M  V30 15 N -0.337255 0.807867 1.286523 0
M  V30 16 C -1.730208 0.803570 0.999681 0
M  V30 17 C -2.179093 2.127388 1.094631 0
M  V30 18 C -3.517702 2.459447 0.861132 0
M  V30 19 C -4.413172 1.465172 0.531123 0
M  V30 20 Br -6.251753 1.832468 0.197896 0
M  V30 21 C -3.956781 0.169313 0.441621 0
M  V30 22 C -2.642030 -0.169781 0.668966 0
M  V30 23 F -2.074280 -1.383816 0.607377 0
M  V30 24 H -0.841709 -3.835273 2.723970 0
M  V30 25 H 0.056277 -5.366164 3.140510 0
M  V30 26 H 0.252981 -4.596456 1.529531 0
M  V30 27 H 2.528925 -3.255321 1.464736 0
M  V30 28 H 3.173059 -1.968961 0.046358 0
M  V30 29 H 4.199525 -1.500267 -2.087452 0
M  V30 30 H 3.931539 0.068975 -2.857939 0
M  V30 31 H 5.023626 -0.037280 -1.434026 0
M  V30 32 H 0.021729 1.169651 2.219707 0
M  V30 33 H -1.620409 3.042468 1.342647 0
M  V30 34 H -3.939374 3.451766 0.914416 0
M  V30 35 H -4.586360 -0.683945 0.187551 0
M  V30 END ATOM
M  V30 BEGIN BOND
M  V30 1 1 1 2
M  V30 2 1 2 3
M  V30 3 1 3 4
M  V30 4 2 4 5
M  V30 5 1 4 6
M  V30 6 2 6 7
M  V30 7 1 7 8
M  V30 8 1 8 9
M  V30 9 1 8 10
M  V30 10 2 10 11
M  V30 11 1 10 12
M  V30 12 1 12 13
M  V30 13 2 12 14
M  V30 14 1 14 15
M  V30 15 1 15 16
M  V30 16 2 16 17
M  V30 17 1 17 18
M  V30 18 2 18 19
M  V30 19 1 19 20
M  V30 20 1 19 21
M  V30 21 2 21 22
M  V30 22 1 22 23
M  V30 23 1 14 6
M  V30 24 1 22 16
M  V30 25 1 1 24
M  V30 26 1 1 25
M  V30 27 1 1 26
M  V30 28 1 3 27
M  V30 29 1 7 28
M  V30 30 1 9 29
M  V30 31 1 9 30
M  V30 32 1 9 31
M  V30 33 1 15 32
M  V30 34 1 17 33
M  V30 35 1 18 34
M  V30 36 1 21 35
M  V30 END BOND
M  V30 END CTAB
M  END
>  <Dataset>  (854) 
ChEMBL_Kinases

>  <Ligand_Instance>  (854) 
nan

>  <PDB_ID>  (854) 
nan

>  <Standardized_SMILES>  (854) 
CONC(=O)c1cn(C)c(=O)c(F)c1Nc1ccc(Br)cc1F

>  <Name>  (854) 
nan

>  <Pocket>  (854) 
nan

>  <ATP_Site>  (854) 
nan

>  <Peripheral>  (854) 
nan

>  <Num_H_Atoms_ProtBoundConf>  (854) 
nan

>  <Num_Resolved_Atoms>  (854) 
nan

>  <Num_Not_Resolved_Atoms>  (854) 
nan

$$$$
CHEMBL2012558
     RDKit          3D

  0  0  0  0  0  0  0  0  0  0999 V3000
M  V30 BEGIN CTAB
M  V30 COUNTS 39 41 0 0 0
M  V30 BEGIN ATOM
M  V30 1 C -1.771151 -1.263899 4.897620 0
M  V30 2 O -1.314359 -2.410041 4.210436 0
M  V30 3 C -0.811202 -2.382907 2.918049 0
M  V30 4 C -0.382060 -3.541600 2.306433 0
M  V30 5 C 0.112924 -3.481740 1.020769 0
M  V30 6 C 0.186058 -2.285860 0.337586 0
M  V30 7 C 0.619244 -1.951055 -0.927234 0
M  V30 8 C 1.123327 -2.802887 -1.890953 0
M  V30 9 C 1.475402 -2.212414 -3.086252 0
M  V30 10 N 1.319468 -0.897760 -3.252747 0
M  V30 11 C 0.821134 -0.055916 -2.300952 0
M  V30 12 C 0.655613 1.388133 -2.590030 0
M  V30 13 C 0.448967 -0.590551 -1.073064 0
M  V30 14 N -0.070802 -0.046971 0.044760 0
M  V30 15 C -0.385854 1.307024 0.332436 0
M  V30 16 C 0.597069 2.185103 0.969548 0
M  V30 17 C 1.155795 1.885853 2.293926 0
M  V30 18 N 1.893867 0.701198 2.490279 0
M  V30 19 C -0.227856 -1.106152 0.902646 0
M  V30 20 C -0.721273 -1.210236 2.202209 0
M  V30 21 H -0.928765 -0.736483 5.426923 0
M  V30 22 H -2.494251 -1.579960 5.676816 0
M  V30 23 H -2.264879 -0.516723 4.254521 0
M  V30 24 H -0.431769 -4.488505 2.826489 0
M  V30 25 H 0.451222 -4.404827 0.542628 0
M  V30 26 H 1.235802 -3.864840 -1.721912 0
M  V30 27 H 1.878655 -2.839255 -3.879965 0
M  V30 28 H 1.103081 1.542615 -3.624606 0
M  V30 29 H -0.401604 1.666756 -2.777660 0
M  V30 30 H 1.240632 2.067003 -1.982269 0
M  V30 31 H -0.927150 1.850769 -0.502234 0
M  V30 32 H -1.257997 1.260647 1.078920 0
M  V30 33 H 1.484431 2.298038 0.275577 0
M  V30 34 H 0.222498 3.254245 1.005946 0
M  V30 35 H 1.803190 2.733355 2.658206 0
M  V30 36 H 0.338822 1.873204 3.080452 0
M  V30 37 H 1.623420 0.086257 3.281122 0
M  V30 38 H 2.235937 0.182565 1.683400 0
M  V30 39 H -1.048622 -0.252988 2.638292 0
M  V30 END ATOM
M  V30 BEGIN BOND
M  V30 1 1 1 2
M  V30 2 1 2 3
M  V30 3 2 3 4
M  V30 4 1 4 5
M  V30 5 2 5 6
M  V30 6 1 6 7
M  V30 7 2 7 8
M  V30 8 1 8 9
M  V30 9 2 9 10
M  V30 10 1 10 11
M  V30 11 1 11 12
M  V30 12 2 11 13
M  V30 13 1 13 14
M  V30 14 1 14 15
M  V30 15 1 15 16
M  V30 16 1 16 17
M  V30 17 1 17 18
M  V30 18 1 14 19
M  V30 19 2 19 20
M  V30 20 1 20 3
M  V30 21 1 19 6
M  V30 22 1 13 7
M  V30 23 1 1 21
M  V30 24 1 1 22
M  V30 25 1 1 23
M  V30 26 1 4 24
M  V30 27 1 5 25
M  V30 28 1 8 26
M  V30 29 1 9 27
M  V30 30 1 12 28
M  V30 31 1 12 29
M  V30 32 1 12 30
M  V30 33 1 15 31
M  V30 34 1 15 32
M  V30 35 1 16 33
M  V30 36 1 16 34
M  V30 37 1 17 35
M  V30 38 1 17 36
M  V30 39 1 18 37
M  V30 40 1 18 38
M  V30 41 1 20 39
M  V30 END BOND
M  V30 END CTAB
M  END
>  <Dataset>  (855) 
ChEMBL_Kinases

>  <Ligand_Instance>  (855) 
nan

>  <PDB_ID>  (855) 
nan

>  <Standardized_SMILES>  (855) 
COc1ccc2c3ccnc(C)c3n(CCCN)c2c1

>  <Name>  (855) 
nan

>  <Pocket>  (855) 
nan

>  <ATP_Site>  (855) 
nan

>  <Peripheral>  (855) 
nan

>  <Num_H_Atoms_ProtBoundConf>  (855) 
nan

>  <Num_Resolved_Atoms>  (855) 
nan

>  <Num_Not_Resolved_Atoms>  (855) 
nan

$$$$
CHEMBL2012567
     RDKit          3D

  0  0  0  0  0  0  0  0  0  0999 V3000
M  V30 BEGIN CTAB
M  V30 COUNTS 42 44 0 0 0
M  V30 BEGIN ATOM
M  V30 1 C 0.564542 -4.763979 -2.976016 0
M  V30 2 O 0.364220 -3.465811 -2.447567 0
M  V30 3 C 0.250425 -3.220891 -1.084310 0
M  V30 4 C 0.330859 -4.260214 -0.178181 0
M  V30 5 C 0.208881 -3.942715 1.164318 0
M  V30 6 C 0.015056 -2.621767 1.535508 0
M  V30 7 C -0.065293 -1.585355 0.634392 0
M  V30 8 C 0.057053 -1.908963 -0.701279 0
M  V30 9 C -0.056151 -0.719605 -1.390879 0
M  V30 10 C -0.008288 -0.491176 -2.750127 0
M  V30 11 C -0.162634 0.831418 -3.125270 0
M  V30 12 N -0.341994 1.786071 -2.220260 0
M  V30 13 C -0.391897 1.576192 -0.871786 0
M  V30 14 C -0.609684 2.683811 0.081912 0
M  V30 15 C -0.239045 0.253481 -0.459173 0
M  V30 16 N -0.247405 -0.251792 0.787267 0
M  V30 17 C -0.381159 0.367129 2.084382 0
M  V30 18 C 0.962498 0.720630 2.713069 0
M  V30 19 C 0.713537 1.367033 4.052746 0
M  V30 20 C 1.963406 1.758106 4.764750 0
M  V30 21 N 2.840994 0.648529 5.039371 0
M  V30 22 H -0.336531 -5.413783 -2.797632 0
M  V30 23 H 0.739537 -4.654779 -4.068395 0
M  V30 24 H 1.409950 -5.288506 -2.476469 0
M  V30 25 H 0.485172 -5.251941 -0.602712 0
M  V30 26 H 0.274217 -4.768116 1.859598 0
M  V30 27 H -0.066006 -2.487458 2.593171 0
M  V30 28 H 0.139203 -1.292620 -3.460082 0
M  V30 29 H -0.133102 1.068177 -4.181498 0
M  V30 30 H 0.141146 2.811675 0.852398 0
M  V30 31 H -1.672660 2.736661 0.427017 0
M  V30 32 H -0.523098 3.632494 -0.535971 0
M  V30 33 H -0.831162 -0.391886 2.799936 0
M  V30 34 H -1.067249 1.206827 2.141205 0
M  V30 35 H 1.555560 1.424862 2.106723 0
M  V30 36 H 1.600827 -0.186980 2.801019 0
M  V30 37 H 0.072310 0.706332 4.635826 0
M  V30 38 H 0.176203 2.331423 3.813770 0
M  V30 39 H 1.644557 2.143913 5.768401 0
M  V30 40 H 2.466779 2.602845 4.279668 0
M  V30 41 H 2.308869 -0.225606 4.912563 0
M  V30 42 H 3.712453 0.743786 4.510310 0
M  V30 END ATOM
M  V30 BEGIN BOND
M  V30 1 1 1 2
M  V30 2 1 2 3
M  V30 3 2 3 4
M  V30 4 1 4 5
M  V30 5 2 5 6
M  V30 6 1 6 7
M  V30 7 2 7 8
M  V30 8 1 8 9
M  V30 9 2 9 10
M  V30 10 1 10 11
M  V30 11 2 11 12
M  V30 12 1 12 13
M  V30 13 1 13 14
M  V30 14 2 13 15
M  V30 15 1 15 16
M  V30 16 1 16 17
M  V30 17 1 17 18
M  V30 18 1 18 19
M  V30 19 1 19 20
M  V30 20 1 20 21
M  V30 21 1 8 3
M  V30 22 1 15 9
M  V30 23 1 16 7
M  V30 24 1 1 22
M  V30 25 1 1 23
M  V30 26 1 1 24
M  V30 27 1 4 25
M  V30 28 1 5 26
M  V30 29 1 6 27
M  V30 30 1 10 28
M  V30 31 1 11 29
M  V30 32 1 14 30
M  V30 33 1 14 31
M  V30 34 1 14 32
M  V30 35 1 17 33
M  V30 36 1 17 34
M  V30 37 1 18 35
M  V30 38 1 18 36
M  V30 39 1 19 37
M  V30 40 1 19 38
M  V30 41 1 20 39
M  V30 42 1 20 40
M  V30 43 1 21 41
M  V30 44 1 21 42
M  V30 END BOND
M  V30 END CTAB
M  END
>  <Dataset>  (856) 
ChEMBL_Kinases

>  <Ligand_Instance>  (856) 
nan

>  <PDB_ID>  (856) 
nan

>  <Standardized_SMILES>  (856) 
COc1cccc2c1c1ccnc(C)c1n2CCCCN

>  <Name>  (856) 
nan

>  <Pocket>  (856) 
nan

>  <ATP_Site>  (856) 
nan

>  <Peripheral>  (856) 
nan

>  <Num_H_Atoms_ProtBoundConf>  (856) 
nan

>  <Num_Resolved_Atoms>  (856) 
nan

>  <Num_Not_Resolved_Atoms>  (856) 
nan

$$$$
CHEMBL2012589
     RDKit          3D

  0  0  0  0  0  0  0  0  0  0999 V3000
M  V30 BEGIN CTAB
M  V30 COUNTS 40 43 0 0 0
M  V30 BEGIN ATOM
M  V30 1 C -1.509663 -4.132401 0.429044 0
M  V30 2 C -0.166573 -3.809820 0.933966 0
M  V30 3 C 0.700280 -4.815281 1.298423 0
M  V30 4 C 1.962623 -4.534901 1.773740 0
M  V30 5 C 2.346526 -3.214988 1.879075 0
M  V30 6 Cl 3.950857 -2.891259 2.484224 0
M  V30 7 C 1.462815 -2.218225 1.508429 0
M  V30 8 C 0.182252 -2.487787 1.025778 0
M  V30 9 N -0.657196 -1.377078 0.668480 0
M  V30 10 C -1.276688 -1.006332 -0.587701 0
M  V30 11 C -0.975905 0.436198 -0.955672 0
M  V30 12 N -0.859240 1.160961 0.278201 0
M  V30 13 C -0.083858 2.328210 0.451305 0
M  V30 14 N -0.629491 3.509612 0.837022 0
M  V30 15 C 0.116505 4.636804 1.004669 0
M  V30 16 N 1.456745 4.629631 0.790830 0
M  V30 17 C 2.045675 3.476170 0.405341 0
M  V30 18 N 3.346631 3.181228 0.124808 0
M  V30 19 N 3.406426 1.884536 -0.213254 0
M  V30 20 C 2.166736 1.336201 -0.156113 0
M  V30 21 C 1.287636 2.329878 0.234759 0
M  V30 22 C -1.582701 0.688501 1.472966 0
M  V30 23 C -0.835960 -0.571120 1.851500 0
M  V30 24 H -2.261587 -3.351887 0.544834 0
M  V30 25 H -1.810374 -5.087255 0.937593 0
M  V30 26 H -1.414285 -4.347420 -0.666113 0
M  V30 27 H 0.339493 -5.847093 1.192804 0
M  V30 28 H 2.626578 -5.346097 2.054186 0
M  V30 29 H 1.868729 -1.230091 1.632756 0
M  V30 30 H -2.364125 -1.184439 -0.480352 0
M  V30 31 H -0.911121 -1.677570 -1.392006 0
M  V30 32 H -0.140841 0.550429 -1.638130 0
M  V30 33 H -1.886296 0.819757 -1.465880 0
M  V30 34 H -0.367842 5.542729 1.310867 0
M  V30 35 H 4.112171 3.888845 0.183028 0
M  V30 36 H 1.910796 0.313945 -0.374688 0
M  V30 37 H -1.629689 1.443037 2.259448 0
M  V30 38 H -2.648265 0.462651 1.200151 0
M  V30 39 H -1.253402 -1.115839 2.698666 0
M  V30 40 H 0.179104 -0.220886 2.168843 0
M  V30 END ATOM
M  V30 BEGIN BOND
M  V30 1 1 1 2
M  V30 2 2 2 3
M  V30 3 1 3 4
M  V30 4 2 4 5
M  V30 5 1 5 6
M  V30 6 1 5 7
M  V30 7 2 7 8
M  V30 8 1 8 9
M  V30 9 1 9 10
M  V30 10 1 10 11
M  V30 11 1 11 12
M  V30 12 1 12 13
M  V30 13 2 13 14
M  V30 14 1 14 15
M  V30 15 2 15 16
M  V30 16 1 16 17
M  V30 17 1 17 18
M  V30 18 1 18 19
M  V30 19 2 19 20
M  V30 20 1 20 21
M  V30 21 1 12 22
M  V30 22 1 22 23
M  V30 23 1 8 2
M  V30 24 1 23 9
M  V30 25 1 21 13
M  V30 26 2 21 17
M  V30 27 1 1 24
M  V30 28 1 1 25
M  V30 29 1 1 26
M  V30 30 1 3 27
M  V30 31 1 4 28
M  V30 32 1 7 29
M  V30 33 1 10 30
M  V30 34 1 10 31
M  V30 35 1 11 32
M  V30 36 1 11 33
M  V30 37 1 15 34
M  V30 38 1 18 35
M  V30 39 1 20 36
M  V30 40 1 22 37
M  V30 41 1 22 38
M  V30 42 1 23 39
M  V30 43 1 23 40
M  V30 END BOND
M  V30 END CTAB
M  END
>  <Dataset>  (857) 
ChEMBL_Kinases

>  <Ligand_Instance>  (857) 
nan

>  <PDB_ID>  (857) 
nan

>  <Standardized_SMILES>  (857) 
Cc1ccc(Cl)cc1N1CCN(c2ncnc3[nH]ncc23)CC1

>  <Name>  (857) 
nan

>  <Pocket>  (857) 
nan

>  <ATP_Site>  (857) 
nan

>  <Peripheral>  (857) 
nan

>  <Num_H_Atoms_ProtBoundConf>  (857) 
nan

>  <Num_Resolved_Atoms>  (857) 
nan

>  <Num_Not_Resolved_Atoms>  (857) 
nan

$$$$
CHEMBL2012570
     RDKit          3D

  0  0  0  0  0  0  0  0  0  0999 V3000
M  V30 BEGIN CTAB
M  V30 COUNTS 41 44 0 0 0
M  V30 BEGIN ATOM
M  V30 1 C -2.309224 -3.118964 0.080243 0
M  V30 2 C -0.859371 -3.157375 -0.114999 0
M  V30 3 N -0.204388 -4.330590 -0.333051 0
M  V30 4 C 1.111341 -4.440096 -0.537908 0
M  V30 5 C 1.873294 -3.306466 -0.532533 0
M  V30 6 C 1.223410 -2.119150 -0.313482 0
M  V30 7 C 1.802600 -0.865081 -0.277812 0
M  V30 8 C 3.084704 -0.389944 -0.432815 0
M  V30 9 C 3.376725 0.955162 -0.356540 0
M  V30 10 C 2.356907 1.852451 -0.118221 0
M  V30 11 C 1.083166 1.354493 0.033690 0
M  V30 12 C 0.755389 -0.006990 -0.038268 0
M  V30 13 N -0.451386 -0.649120 0.080201 0
M  V30 14 C -1.719889 -0.094792 0.332714 0
M  V30 15 C -2.279706 0.025119 1.687767 0
M  V30 16 C -1.623083 0.787123 2.753436 0
M  V30 17 C -0.294476 0.348977 3.256891 0
M  V30 18 N -0.392837 -1.033006 3.774483 0
M  V30 19 C -0.131434 -1.965825 -0.097541 0
M  V30 20 O 2.895628 3.129715 -0.086421 0
M  V30 21 C 4.321424 3.022008 0.038568 0
M  V30 22 O 4.533391 1.716297 -0.466371 0
M  V30 23 H -2.875727 -2.578589 -0.728091 0
M  V30 24 H -2.681318 -2.997852 1.086435 0
M  V30 25 H -2.648603 -4.187918 -0.153953 0
M  V30 26 H 1.559036 -5.401473 -0.703348 0
M  V30 27 H 2.938615 -3.372178 -0.696381 0
M  V30 28 H 3.882965 -1.095923 -0.619699 0
M  V30 29 H 0.264008 2.041644 0.222096 0
M  V30 30 H -1.599355 1.019144 0.017158 0
M  V30 31 H -2.496558 -0.355001 -0.439930 0
M  V30 32 H -2.530067 -0.987487 2.154983 0
M  V30 33 H -3.351983 0.449661 1.633863 0
M  V30 34 H -2.301390 0.759003 3.670958 0
M  V30 35 H -1.568110 1.892280 2.559183 0
M  V30 36 H 0.585988 0.538409 2.682527 0
M  V30 37 H -0.117313 0.941693 4.230814 0
M  V30 38 H -1.362315 -1.113037 4.171052 0
M  V30 39 H 0.236547 -1.175021 4.597360 0
M  V30 40 H 4.833258 3.793482 -0.563778 0
M  V30 41 H 4.632976 3.019168 1.101801 0
M  V30 END ATOM
M  V30 BEGIN BOND
M  V30 1 1 1 2
M  V30 2 2 2 3
M  V30 3 1 3 4
M  V30 4 2 4 5
M  V30 5 1 5 6
M  V30 6 1 6 7
M  V30 7 2 7 8
M  V30 8 1 8 9
M  V30 9 2 9 10
M  V30 10 1 10 11
M  V30 11 2 11 12
M  V30 12 1 12 13
M  V30 13 1 13 14
M  V30 14 1 14 15
M  V30 15 1 15 16
M  V30 16 1 16 17
M  V30 17 1 17 18
M  V30 18 1 13 19
M  V30 19 1 10 20
M  V30 20 1 20 21
M  V30 21 1 21 22
M  V30 22 1 19 2
M  V30 23 2 19 6
M  V30 24 1 12 7
M  V30 25 1 22 9
M  V30 26 1 1 23
M  V30 27 1 1 24
M  V30 28 1 1 25
M  V30 29 1 4 26
M  V30 30 1 5 27
M  V30 31 1 8 28
M  V30 32 1 11 29
M  V30 33 1 14 30
M  V30 34 1 14 31
M  V30 35 1 15 32
M  V30 36 1 15 33
M  V30 37 1 16 34
M  V30 38 1 16 35
M  V30 39 1 17 36
M  V30 40 1 17 37
M  V30 41 1 18 38
M  V30 42 1 18 39
M  V30 43 1 21 40
M  V30 44 1 21 41
M  V30 END BOND
M  V30 END CTAB
M  END
>  <Dataset>  (858) 
ChEMBL_Kinases

>  <Ligand_Instance>  (858) 
nan

>  <PDB_ID>  (858) 
nan

>  <Standardized_SMILES>  (858) 
Cc1nccc2c3cc4c(cc3n(CCCCN)c12)OCO4

>  <Name>  (858) 
nan

>  <Pocket>  (858) 
nan

>  <ATP_Site>  (858) 
nan

>  <Peripheral>  (858) 
nan

>  <Num_H_Atoms_ProtBoundConf>  (858) 
nan

>  <Num_Resolved_Atoms>  (858) 
nan

>  <Num_Not_Resolved_Atoms>  (858) 
nan

$$$$
CHEMBL2012571
     RDKit          3D

  0  0  0  0  0  0  0  0  0  0999 V3000
M  V30 BEGIN CTAB
M  V30 COUNTS 42 44 0 0 0
M  V30 BEGIN ATOM
M  V30 1 C -1.247321 -5.577606 2.164926 0
M  V30 2 O -1.315418 -4.175928 2.259236 0
M  V30 3 C -0.752278 -3.326489 1.326748 0
M  V30 4 C -0.099161 -3.910415 0.264509 0
M  V30 5 C 0.464373 -3.073241 -0.669679 0
M  V30 6 C 0.380760 -1.715881 -0.549660 0
M  V30 7 C 0.830880 -0.668991 -1.355371 0
M  V30 8 C 1.521442 -0.795929 -2.539580 0
M  V30 9 C 1.865253 0.349889 -3.210926 0
M  V30 10 N 1.493647 1.503993 -2.649144 0
M  V30 11 C 0.816900 1.634140 -1.490166 0
M  V30 12 C 0.432421 2.981030 -1.022066 0
M  V30 13 C 0.438274 0.503373 -0.755010 0
M  V30 14 N -0.239206 0.291675 0.401821 0
M  V30 15 C -0.794621 1.224840 1.270934 0
M  V30 16 C 0.080829 1.811736 2.317399 0
M  V30 17 C 0.774590 1.044882 3.339819 0
M  V30 18 C 1.780870 0.029801 3.065113 0
M  V30 19 N 2.943480 0.451784 2.324439 0
M  V30 20 C -0.256704 -1.068540 0.489319 0
M  V30 21 C -0.817987 -1.955014 1.417530 0
M  V30 22 Cl -1.689662 -1.363624 2.774729 0
M  V30 23 H -1.482783 -5.967769 1.146682 0
M  V30 24 H -1.981542 -6.020497 2.866199 0
M  V30 25 H -0.197238 -5.914145 2.375197 0
M  V30 26 H -0.015807 -4.965081 0.141844 0
M  V30 27 H 0.972185 -3.525430 -1.496272 0
M  V30 28 H 1.806002 -1.736063 -2.967459 0
M  V30 29 H 2.407744 0.293003 -4.142554 0
M  V30 30 H -0.658374 3.199560 -1.062902 0
M  V30 31 H 1.004417 3.407499 -0.212909 0
M  V30 32 H 0.751065 3.672063 -1.887400 0
M  V30 33 H -1.699905 0.878937 1.843280 0
M  V30 34 H -1.248245 2.120957 0.770820 0
M  V30 35 H -0.551789 2.573048 2.947032 0
M  V30 36 H 0.739051 2.565844 1.801596 0
M  V30 37 H 0.016339 0.604005 4.056230 0
M  V30 38 H 1.285739 1.796840 4.062727 0
M  V30 39 H 2.255442 -0.225648 4.091033 0
M  V30 40 H 1.384661 -0.947131 2.784655 0
M  V30 41 H 2.809000 0.524536 1.302668 0
M  V30 42 H 3.657569 -0.322555 2.436324 0
M  V30 END ATOM
M  V30 BEGIN BOND
M  V30 1 1 1 2
M  V30 2 1 2 3
M  V30 3 2 3 4
M  V30 4 1 4 5
M  V30 5 2 5 6
M  V30 6 1 6 7
M  V30 7 2 7 8
M  V30 8 1 8 9
M  V30 9 2 9 10
M  V30 10 1 10 11
M  V30 11 1 11 12
M  V30 12 2 11 13
M  V30 13 1 13 14
M  V30 14 1 14 15
M  V30 15 1 15 16
M  V30 16 1 16 17
M  V30 17 1 17 18
M  V30 18 1 18 19
M  V30 19 1 14 20
M  V30 20 2 20 21
M  V30 21 1 21 22
M  V30 22 1 21 3
M  V30 23 1 20 6
M  V30 24 1 13 7
M  V30 25 1 1 23
M  V30 26 1 1 24
M  V30 27 1 1 25
M  V30 28 1 4 26
M  V30 29 1 5 27
M  V30 30 1 8 28
M  V30 31 1 9 29
M  V30 32 1 12 30
M  V30 33 1 12 31
M  V30 34 1 12 32
M  V30 35 1 15 33
M  V30 36 1 15 34
M  V30 37 1 16 35
M  V30 38 1 16 36
M  V30 39 1 17 37
M  V30 40 1 17 38
M  V30 41 1 18 39
M  V30 42 1 18 40
M  V30 43 1 19 41
M  V30 44 1 19 42
M  V30 END BOND
M  V30 END CTAB
M  END
>  <Dataset>  (859) 
ChEMBL_Kinases

>  <Ligand_Instance>  (859) 
nan

>  <PDB_ID>  (859) 
nan

>  <Standardized_SMILES>  (859) 
COc1ccc2c3ccnc(C)c3n(CCCCN)c2c1Cl

>  <Name>  (859) 
nan

>  <Pocket>  (859) 
nan

>  <ATP_Site>  (859) 
nan

>  <Peripheral>  (859) 
nan

>  <Num_H_Atoms_ProtBoundConf>  (859) 
nan

>  <Num_Resolved_Atoms>  (859) 
nan

>  <Num_Not_Resolved_Atoms>  (859) 
nan

$$$$
CHEMBL2012575
     RDKit          3D

  0  0  0  0  0  0  0  0  0  0999 V3000
M  V30 BEGIN CTAB
M  V30 COUNTS 39 41 0 0 0
M  V30 BEGIN ATOM
M  V30 1 N -0.708603 -4.534792 1.637959 0
M  V30 2 C -0.412115 -3.963589 0.333857 0
M  V30 3 C -0.889967 -2.505494 0.409850 0
M  V30 4 C -0.642935 -1.792380 -0.878621 0
M  V30 5 C -1.059064 -0.311547 -0.710685 0
M  V30 6 N -0.225278 0.220466 0.326688 0
M  V30 7 C 1.075672 0.426778 -0.048286 0
M  V30 8 C 1.861568 0.295804 -1.171385 0
M  V30 9 C 3.195296 0.596636 -1.276386 0
M  V30 10 O 3.907368 0.436574 -2.434139 0
M  V30 11 C 3.842127 1.081840 -0.161587 0
M  V30 12 C 3.123986 1.242751 1.001790 0
M  V30 13 C 1.774115 0.917451 1.035341 0
M  V30 14 C 0.857386 1.011006 2.090806 0
M  V30 15 C 1.067030 1.471184 3.372498 0
M  V30 16 C -0.076172 1.462566 4.138342 0
M  V30 17 N -1.248752 1.045736 3.650341 0
M  V30 18 C -1.468295 0.592332 2.396681 0
M  V30 19 C -2.836259 0.283143 1.943553 0
M  V30 20 F -3.307710 1.126917 0.943864 0
M  V30 21 F -3.650594 0.769954 3.023481 0
M  V30 22 F -3.223322 -0.997013 1.885429 0
M  V30 23 C -0.346917 0.575648 1.595372 0
M  V30 24 H -0.021931 -4.117532 2.334918 0
M  V30 25 H -1.631708 -4.133623 1.929164 0
M  V30 26 H -1.019813 -4.455462 -0.443092 0
M  V30 27 H 0.667203 -3.983344 0.182841 0
M  V30 28 H -0.567228 -1.996556 1.314422 0
M  V30 29 H -2.018889 -2.663850 0.515550 0
M  V30 30 H 0.423520 -1.904456 -1.109207 0
M  V30 31 H -1.249138 -2.237093 -1.701084 0
M  V30 32 H -2.113554 -0.437699 -0.501141 0
M  V30 33 H -0.856136 0.126099 -1.713737 0
M  V30 34 H 1.422448 -0.063673 -2.088212 0
M  V30 35 H 4.516268 1.209169 -2.741574 0
M  V30 36 H 4.890229 1.342237 -0.159929 0
M  V30 37 H 3.633489 1.620940 1.865193 0
M  V30 38 H 1.982362 1.810246 3.789316 0
M  V30 39 H -0.078723 1.791822 5.167919 0
M  V30 END ATOM
M  V30 BEGIN BOND
M  V30 1 1 1 2
M  V30 2 1 2 3
M  V30 3 1 3 4
M  V30 4 1 4 5
M  V30 5 1 5 6
M  V30 6 1 6 7
M  V30 7 2 7 8
M  V30 8 1 8 9
M  V30 9 1 9 10
M  V30 10 2 9 11
M  V30 11 1 11 12
M  V30 12 2 12 13
M  V30 13 1 13 14
M  V30 14 2 14 15
M  V30 15 1 15 16
M  V30 16 2 16 17
M  V30 17 1 17 18
M  V30 18 1 18 19
M  V30 19 1 19 20
M  V30 20 1 19 21
M  V30 21 1 19 22
M  V30 22 2 18 23
M  V30 23 1 23 6
M  V30 24 1 13 7
M  V30 25 1 23 14
M  V30 26 1 1 24
M  V30 27 1 1 25
M  V30 28 1 2 26
M  V30 29 1 2 27
M  V30 30 1 3 28
M  V30 31 1 3 29
M  V30 32 1 4 30
M  V30 33 1 4 31
M  V30 34 1 5 32
M  V30 35 1 5 33
M  V30 36 1 8 34
M  V30 37 1 10 35
M  V30 38 1 11 36
M  V30 39 1 12 37
M  V30 40 1 15 38
M  V30 41 1 16 39
M  V30 END BOND
M  V30 END CTAB
M  END
>  <Dataset>  (860) 
ChEMBL_Kinases

>  <Ligand_Instance>  (860) 
nan

>  <PDB_ID>  (860) 
nan

>  <Standardized_SMILES>  (860) 
NCCCCn1c2cc(O)ccc2c2ccnc(C(F)(F)F)c21

>  <Name>  (860) 
nan

>  <Pocket>  (860) 
nan

>  <ATP_Site>  (860) 
nan

>  <Peripheral>  (860) 
nan

>  <Num_H_Atoms_ProtBoundConf>  (860) 
nan

>  <Num_Resolved_Atoms>  (860) 
nan

>  <Num_Not_Resolved_Atoms>  (860) 
nan

$$$$
CHEMBL2012582
     RDKit          3D

  0  0  0  0  0  0  0  0  0  0999 V3000
M  V30 BEGIN CTAB
M  V30 COUNTS 80 85 0 0 0
M  V30 BEGIN ATOM
M  V30 1 C -2.096360 -3.739934 5.318836 0
M  V30 2 O -1.224985 -3.642810 4.224997 0
M  V30 3 C -1.286938 -2.609628 3.342996 0
M  V30 4 C -2.171948 -1.577422 3.405949 0
M  V30 5 C -2.225403 -0.522974 2.494558 0
M  V30 6 C -3.182240 0.557143 2.579226 0
M  V30 7 O -4.319808 0.019857 2.558160 0
M  V30 8 N -2.910957 1.960655 2.669055 0
M  V30 9 C -1.683768 2.675862 2.704866 0
M  V30 10 C -1.475905 3.475582 1.468880 0
M  V30 11 C -2.764694 3.798520 0.763346 0
M  V30 12 N -2.907225 2.980881 -0.377630 0
M  V30 13 C -1.942195 3.182918 -1.404768 0
M  V30 14 C -1.661808 1.817647 -2.036864 0
M  V30 15 N -2.826730 1.031627 -2.167255 0
M  V30 16 C -2.706047 -0.373919 -2.081751 0
M  V30 17 C -4.086243 1.623875 -1.956363 0
M  V30 18 C -4.181810 2.664975 -0.875183 0
M  V30 19 C -3.946222 3.943906 1.666562 0
M  V30 20 C -4.010583 2.888666 2.738905 0
M  V30 21 C -1.299050 -0.553019 1.460253 0
M  V30 22 C -0.402821 -1.599647 1.397462 0
M  V30 23 C -0.351905 -2.646790 2.304724 0
M  V30 24 N 0.601257 -3.689883 2.165818 0
M  V30 25 C 1.628036 -3.879614 1.198330 0
M  V30 26 N 2.385941 -4.978950 1.304793 0
M  V30 27 C 3.389470 -5.305227 0.487616 0
M  V30 28 C 3.628325 -4.426830 -0.517156 0
M  V30 29 C 2.884161 -3.291421 -0.669223 0
M  V30 30 N 1.895326 -3.036440 0.192004 0
M  V30 31 N 2.969283 -2.239975 -1.648371 0
M  V30 32 C 1.776008 -1.491124 -1.932224 0
M  V30 33 C 4.162247 -1.881075 -2.366034 0
M  V30 34 C 4.063267 -0.580144 -2.843568 0
M  V30 35 C 5.120957 -0.072815 -3.554676 0
M  V30 36 C 6.217747 -0.885360 -3.751984 0
M  V30 37 C 6.374125 -2.185000 -3.302520 0
M  V30 38 C 5.268506 -2.654552 -2.583614 0
M  V30 39 C 5.567398 -4.034387 -2.171988 0
M  V30 40 O 6.625689 -4.588154 -2.536171 0
M  V30 41 N 4.709257 -4.841738 -1.348027 0
M  V30 42 C 4.946715 -6.280748 -1.337852 0
M  V30 43 H -1.628194 -3.308954 6.243834 0
M  V30 44 H -3.063657 -3.237139 5.163752 0
M  V30 45 H -2.362672 -4.806014 5.546081 0
M  V30 46 H -2.905896 -1.508269 4.190945 0
M  V30 47 H -0.834903 1.954165 2.803735 0
M  V30 48 H -1.665467 3.373733 3.573504 0
M  V30 49 H -0.864956 2.847456 0.754006 0
M  V30 50 H -0.838560 4.375372 1.629371 0
M  V30 51 H -2.587689 4.846753 0.346060 0
M  V30 52 H -2.358327 3.795597 -2.254375 0
M  V30 53 H -1.011495 3.679603 -1.108823 0
M  V30 54 H -1.077122 1.975352 -2.984637 0
M  V30 55 H -0.941756 1.332485 -1.345425 0
M  V30 56 H -2.441485 -0.821311 -3.085291 0
M  V30 57 H -3.727106 -0.801994 -1.876602 0
M  V30 58 H -2.030946 -0.779863 -1.321694 0
M  V30 59 H -4.808318 0.785383 -1.715853 0
M  V30 60 H -4.490782 2.002678 -2.944630 0
M  V30 61 H -4.903345 2.328371 -0.095962 0
M  V30 62 H -4.671048 3.568395 -1.351016 0
M  V30 63 H -4.893382 3.959551 1.097904 0
M  V30 64 H -3.916639 4.926558 2.188877 0
M  V30 65 H -4.031352 3.325678 3.765049 0
M  V30 66 H -4.951206 2.315133 2.633275 0
M  V30 67 H -1.342840 0.265436 0.756438 0
M  V30 68 H 0.249821 -1.496336 0.553158 0
M  V30 69 H 0.509550 -4.426525 2.910501 0
M  V30 70 H 3.987524 -6.174594 0.570750 0
M  V30 71 H 0.904266 -2.143085 -1.661819 0
M  V30 72 H 1.644146 -0.581007 -1.328288 0
M  V30 73 H 1.634448 -1.307706 -3.025737 0
M  V30 74 H 3.174824 -0.036349 -2.636635 0
M  V30 75 H 5.101268 0.927705 -3.948826 0
M  V30 76 H 7.046828 -0.458670 -4.320153 0
M  V30 77 H 7.254727 -2.752438 -3.494523 0
M  V30 78 H 3.996561 -6.862632 -1.357321 0
M  V30 79 H 5.642084 -6.615806 -0.566370 0
M  V30 80 H 5.426446 -6.507793 -2.323561 0
M  V30 END ATOM
M  V30 BEGIN BOND
M  V30 1 1 1 2
M  V30 2 1 2 3
M  V30 3 2 3 4
M  V30 4 1 4 5
M  V30 5 1 5 6
M  V30 6 2 6 7
M  V30 7 1 6 8
M  V30 8 1 8 9
M  V30 9 1 9 10
M  V30 10 1 10 11
M  V30 11 1 11 12
M  V30 12 1 12 13
M  V30 13 1 13 14
M  V30 14 1 14 15
M  V30 15 1 15 16
M  V30 16 1 15 17
M  V30 17 1 17 18
M  V30 18 1 11 19
M  V30 19 1 19 20
M  V30 20 2 5 21
M  V30 21 1 21 22
M  V30 22 2 22 23
M  V30 23 1 23 24
M  V30 24 1 24 25
M  V30 25 2 25 26
M  V30 26 1 26 27
M  V30 27 2 27 28
M  V30 28 1 28 29
M  V30 29 2 29 30
M  V30 30 1 29 31
M  V30 31 1 31 32
M  V30 32 1 31 33
M  V30 33 2 33 34
M  V30 34 1 34 35
M  V30 35 2 35 36
M  V30 36 1 36 37
M  V30 37 2 37 38
M  V30 38 1 38 39
M  V30 39 2 39 40
M  V30 40 1 39 41
M  V30 41 1 41 42
M  V30 42 1 23 3
M  V30 43 1 30 25
M  V30 44 1 38 33
M  V30 45 1 20 8
M  V30 46 1 41 28
M  V30 47 1 18 12
M  V30 48 1 1 43
M  V30 49 1 1 44
M  V30 50 1 1 45
M  V30 51 1 4 46
M  V30 52 1 9 47
M  V30 53 1 9 48
M  V30 54 1 10 49
M  V30 55 1 10 50
M  V30 56 1 11 51
M  V30 57 1 13 52
M  V30 58 1 13 53
M  V30 59 1 14 54
M  V30 60 1 14 55
M  V30 61 1 16 56
M  V30 62 1 16 57
M  V30 63 1 16 58
M  V30 64 1 17 59
M  V30 65 1 17 60
M  V30 66 1 18 61
M  V30 67 1 18 62
M  V30 68 1 19 63
M  V30 69 1 19 64
M  V30 70 1 20 65
M  V30 71 1 20 66
M  V30 72 1 21 67
M  V30 73 1 22 68
M  V30 74 1 24 69
M  V30 75 1 27 70
M  V30 76 1 32 71
M  V30 77 1 32 72
M  V30 78 1 32 73
M  V30 79 1 34 74
M  V30 80 1 35 75
M  V30 81 1 36 76
M  V30 82 1 37 77
M  V30 83 1 42 78
M  V30 84 1 42 79
M  V30 85 1 42 80
M  V30 END BOND
M  V30 END CTAB
M  END
>  <Dataset>  (861) 
ChEMBL_Kinases

>  <Ligand_Instance>  (861) 
nan

>  <PDB_ID>  (861) 
nan

>  <Standardized_SMILES>  (861) 
COc1cc(C(=O)N2CCC(N3CCN(C)CC3)CC2)ccc1Nc1ncc2c(n1)N(C)c1ccccc1C(=O)N2C

>  <Name>  (861) 
nan

>  <Pocket>  (861) 
nan

>  <ATP_Site>  (861) 
nan

>  <Peripheral>  (861) 
nan

>  <Num_H_Atoms_ProtBoundConf>  (861) 
nan

>  <Num_Resolved_Atoms>  (861) 
nan

>  <Num_Not_Resolved_Atoms>  (861) 
nan

$$$$
CHEMBL2012583
     RDKit          3D

  0  0  0  0  0  0  0  0  0  0999 V3000
M  V30 BEGIN CTAB
M  V30 COUNTS 38 40 0 0 0
M  V30 BEGIN ATOM
M  V30 1 N -1.478883 -5.595055 3.218768 0
M  V30 2 C -0.999264 -4.865457 2.070406 0
M  V30 3 N -0.991782 -5.486749 0.868668 0
M  V30 4 C -0.541624 -4.777226 -0.171670 0
M  V30 5 N -0.124659 -3.530025 -0.028949 0
M  V30 6 C -0.101338 -2.844398 1.132819 0
M  V30 7 N 0.346608 -1.499838 1.291511 0
M  V30 8 C -0.457941 -0.387938 1.760038 0
M  V30 9 C -0.710274 0.440186 0.517089 0
M  V30 10 N 0.568065 0.971255 0.112062 0
M  V30 11 C 0.679463 2.240459 -0.521855 0
M  V30 12 C -0.424262 3.007631 -0.803747 0
M  V30 13 C -0.330305 4.256066 -1.426132 0
M  V30 14 C 0.898606 4.764937 -1.782559 0
M  V30 15 C 2.025510 4.019690 -1.513548 0
M  V30 16 Cl 3.632358 4.601750 -1.938396 0
M  V30 17 C 1.883470 2.795571 -0.899371 0
M  V30 18 C 1.798888 0.255880 0.320782 0
M  V30 19 C 1.704820 -1.057357 0.998844 0
M  V30 20 C -0.563259 -3.554821 2.231286 0
M  V30 21 N -0.615719 -3.018053 3.526999 0 CHG=1 VAL=4
M  V30 22 O 0.529593 -2.919991 4.015796 0
M  V30 23 O -1.837146 -2.671031 4.104124 0 CHG=-1 VAL=1
M  V30 24 H -2.493288 -5.584470 3.504493 0
M  V30 25 H -1.076343 -6.225801 3.972872 0
M  V30 26 H -0.529582 -5.249151 -1.126250 0
M  V30 27 H 0.089325 0.253119 2.473758 0
M  V30 28 H -1.376914 -0.672516 2.284797 0
M  V30 29 H -1.473351 1.182497 0.757642 0
M  V30 30 H -1.017962 -0.274871 -0.277135 0
M  V30 31 H -1.430799 2.702036 -0.566775 0
M  V30 32 H -1.235621 4.843679 -1.637995 0
M  V30 33 H 1.035840 5.726042 -2.267815 0
M  V30 34 H 2.774702 2.188140 -0.676886 0
M  V30 35 H 2.284181 0.157550 -0.694947 0
M  V30 36 H 2.528578 0.885985 0.888220 0
M  V30 37 H 2.246687 -1.824834 0.386186 0
M  V30 38 H 2.258339 -1.074024 1.979051 0
M  V30 END ATOM
M  V30 BEGIN BOND
M  V30 1 1 1 2
M  V30 2 2 2 3
M  V30 3 1 3 4
M  V30 4 2 4 5
M  V30 5 1 5 6
M  V30 6 1 6 7
M  V30 7 1 7 8
M  V30 8 1 8 9
M  V30 9 1 9 10
M  V30 10 1 10 11
M  V30 11 2 11 12
M  V30 12 1 12 13
M  V30 13 2 13 14
M  V30 14 1 14 15
M  V30 15 1 15 16
M  V30 16 2 15 17
M  V30 17 1 10 18
M  V30 18 1 18 19
M  V30 19 2 6 20
M  V30 20 1 20 21
M  V30 21 2 21 22
M  V30 22 1 21 23
M  V30 23 1 20 2
M  V30 24 1 19 7
M  V30 25 1 17 11
M  V30 26 1 1 24
M  V30 27 1 1 25
M  V30 28 1 4 26
M  V30 29 1 8 27
M  V30 30 1 8 28
M  V30 31 1 9 29
M  V30 32 1 9 30
M  V30 33 1 12 31
M  V30 34 1 13 32
M  V30 35 1 14 33
M  V30 36 1 17 34
M  V30 37 1 18 35
M  V30 38 1 18 36
M  V30 39 1 19 37
M  V30 40 1 19 38
M  V30 END BOND
M  V30 END CTAB
M  END
>  <Dataset>  (862) 
ChEMBL_Kinases

>  <Ligand_Instance>  (862) 
nan

>  <PDB_ID>  (862) 
nan

>  <Standardized_SMILES>  (862) 
Nc1ncnc(N2CCN(c3cccc(Cl)c3)CC2)c1[N+](=O)[O-]

>  <Name>  (862) 
nan

>  <Pocket>  (862) 
nan

>  <ATP_Site>  (862) 
nan

>  <Peripheral>  (862) 
nan

>  <Num_H_Atoms_ProtBoundConf>  (862) 
nan

>  <Num_Resolved_Atoms>  (862) 
nan

>  <Num_Not_Resolved_Atoms>  (862) 
nan

$$$$
CHEMBL2012584
     RDKit          3D

  0  0  0  0  0  0  0  0  0  0999 V3000
M  V30 BEGIN CTAB
M  V30 COUNTS 41 43 0 0 0
M  V30 BEGIN ATOM
M  V30 1 C -1.466527 -3.899643 -0.535545 0
M  V30 2 C -0.034231 -4.165210 -0.369065 0
M  V30 3 C 0.522276 -5.434135 -0.430151 0
M  V30 4 C 1.899593 -5.552148 -0.231927 0
M  V30 5 C 2.722311 -4.473721 0.017110 0
M  V30 6 Cl 4.445444 -4.723128 0.243697 0
M  V30 7 C 2.129973 -3.205924 0.070214 0
M  V30 8 C 0.745803 -3.023874 -0.117876 0
M  V30 9 N 0.255432 -1.711710 -0.069271 0
M  V30 10 C -0.124958 -0.757787 -1.095881 0
M  V30 11 C 0.089835 0.654761 -0.703030 0
M  V30 12 N -0.107885 0.951127 0.709671 0
M  V30 13 C 0.455656 2.151470 1.155975 0
M  V30 14 N 1.375491 2.797673 0.419484 0
M  V30 15 C 1.960192 3.942539 0.866140 0
M  V30 16 N 1.704196 4.544045 2.045661 0
M  V30 17 C 0.773406 3.930742 2.841127 0
M  V30 18 N 0.469728 4.533265 4.083601 0
M  V30 19 C 0.198842 2.759304 2.344200 0
M  V30 20 N -0.759071 2.280931 3.255103 0 CHG=1 VAL=4
M  V30 21 O -1.887250 2.751508 3.591038 0
M  V30 22 O -1.694471 1.829138 4.129099 0 CHG=-1 VAL=1
M  V30 23 C -0.837800 -0.112769 1.315665 0
M  V30 24 C 0.117654 -1.329255 1.295219 0
M  V30 25 H -1.835931 -3.154376 0.227010 0
M  V30 26 H -1.642309 -3.510564 -1.576348 0
M  V30 27 H -2.095472 -4.803327 -0.439844 0
M  V30 28 H -0.112283 -6.308546 -0.628297 0
M  V30 29 H 2.257149 -6.592024 -0.296697 0
M  V30 30 H 2.823771 -2.364280 0.272498 0
M  V30 31 H -1.120093 -0.960192 -1.484034 0
M  V30 32 H 0.562207 -0.954865 -1.956661 0
M  V30 33 H -0.644524 1.301405 -1.279372 0
M  V30 34 H 1.090478 1.031204 -1.045496 0
M  V30 35 H 2.692192 4.464031 0.267582 0
M  V30 36 H 0.384879 5.597620 4.017447 0
M  V30 37 H 0.355855 3.936281 4.911179 0
M  V30 38 H -1.104436 -0.007451 2.363314 0
M  V30 39 H -1.730510 -0.427496 0.712416 0
M  V30 40 H 1.069640 -0.961398 1.713307 0
M  V30 41 H -0.351418 -2.119275 1.946821 0
M  V30 END ATOM
M  V30 BEGIN BOND
M  V30 1 1 1 2
M  V30 2 2 2 3
M  V30 3 1 3 4
M  V30 4 2 4 5
M  V30 5 1 5 6
M  V30 6 1 5 7
M  V30 7 2 7 8
M  V30 8 1 8 9
M  V30 9 1 9 10
M  V30 10 1 10 11
M  V30 11 1 11 12
M  V30 12 1 12 13
M  V30 13 2 13 14
M  V30 14 1 14 15
M  V30 15 2 15 16
M  V30 16 1 16 17
M  V30 17 1 17 18
M  V30 18 2 17 19
M  V30 19 1 19 20
M  V30 20 2 20 21
M  V30 21 1 20 22
M  V30 22 1 12 23
M  V30 23 1 23 24
M  V30 24 1 8 2
M  V30 25 1 24 9
M  V30 26 1 19 13
M  V30 27 1 1 25
M  V30 28 1 1 26
M  V30 29 1 1 27
M  V30 30 1 3 28
M  V30 31 1 4 29
M  V30 32 1 7 30
M  V30 33 1 10 31
M  V30 34 1 10 32
M  V30 35 1 11 33
M  V30 36 1 11 34
M  V30 37 1 15 35
M  V30 38 1 18 36
M  V30 39 1 18 37
M  V30 40 1 23 38
M  V30 41 1 23 39
M  V30 42 1 24 40
M  V30 43 1 24 41
M  V30 END BOND
M  V30 END CTAB
M  END
>  <Dataset>  (863) 
ChEMBL_Kinases

>  <Ligand_Instance>  (863) 
nan

>  <PDB_ID>  (863) 
nan

>  <Standardized_SMILES>  (863) 
Cc1ccc(Cl)cc1N1CCN(c2ncnc(N)c2[N+](=O)[O-])CC1

>  <Name>  (863) 
nan

>  <Pocket>  (863) 
nan

>  <ATP_Site>  (863) 
nan

>  <Peripheral>  (863) 
nan

>  <Num_H_Atoms_ProtBoundConf>  (863) 
nan

>  <Num_Resolved_Atoms>  (863) 
nan

>  <Num_Not_Resolved_Atoms>  (863) 
nan

$$$$
CHEMBL2012587
     RDKit          3D

  0  0  0  0  0  0  0  0  0  0999 V3000
M  V30 BEGIN CTAB
M  V30 COUNTS 38 41 0 0 0
M  V30 BEGIN ATOM
M  V30 1 Cl 0.389950 -1.649050 5.815976 0
M  V30 2 C 0.246530 -2.209002 4.169996 0
M  V30 3 C -0.667233 -3.214446 3.938747 0
M  V30 4 C -0.785335 -3.661880 2.637959 0
M  V30 5 C -0.020434 -3.115542 1.649585 0
M  V30 6 C 0.897594 -2.113823 1.848142 0
M  V30 7 N 1.676845 -1.560514 0.801187 0
M  V30 8 C 1.525250 -1.901168 -0.596918 0
M  V30 9 C 1.561302 -0.618923 -1.396136 0
M  V30 10 N 1.296529 0.502228 -0.593009 0
M  V30 11 C 0.221451 1.378947 -0.614413 0
M  V30 12 N 0.534699 2.689717 -0.851469 0
M  V30 13 C -0.431829 3.642948 -0.896406 0
M  V30 14 N -1.755399 3.409969 -0.718955 0
M  V30 15 C -2.088485 2.111424 -0.481667 0
M  V30 16 N -3.259118 1.491616 -0.260464 0
M  V30 17 C -3.053278 0.161022 -0.075737 0
M  V30 18 C -1.693947 -0.112089 -0.178377 0
M  V30 19 C -1.123148 1.127332 -0.431811 0
M  V30 20 C 2.344952 0.764218 0.424502 0
M  V30 21 C 2.728891 -0.586124 0.991055 0
M  V30 22 C 0.994539 -1.688077 3.149748 0
M  V30 23 H -1.273538 -3.647639 4.721847 0
M  V30 24 H -1.512509 -4.459446 2.463926 0
M  V30 25 H -0.197342 -3.542334 0.683174 0
M  V30 26 H 0.651930 -2.525708 -0.824963 0
M  V30 27 H 2.405950 -2.574557 -0.819404 0
M  V30 28 H 2.607271 -0.563561 -1.781357 0
M  V30 29 H 1.020345 -0.690204 -2.354046 0
M  V30 30 H -0.121397 4.660398 -1.087615 0
M  V30 31 H -4.177568 2.008950 -0.242828 0
M  V30 32 H -3.853806 -0.532197 0.117411 0
M  V30 33 H -1.204037 -1.067580 -0.082198 0
M  V30 34 H 2.033962 1.489020 1.166836 0
M  V30 35 H 3.210801 1.181069 -0.131630 0
M  V30 36 H 3.035892 -0.535801 2.033751 0
M  V30 37 H 3.641396 -0.957646 0.435715 0
M  V30 38 H 1.667042 -0.912680 3.452026 0
M  V30 END ATOM
M  V30 BEGIN BOND
M  V30 1 1 1 2
M  V30 2 2 2 3
M  V30 3 1 3 4
M  V30 4 2 4 5
M  V30 5 1 5 6
M  V30 6 1 6 7
M  V30 7 1 7 8
M  V30 8 1 8 9
M  V30 9 1 9 10
M  V30 10 1 10 11
M  V30 11 2 11 12
M  V30 12 1 12 13
M  V30 13 2 13 14
M  V30 14 1 14 15
M  V30 15 1 15 16
M  V30 16 1 16 17
M  V30 17 2 17 18
M  V30 18 1 18 19
M  V30 19 1 10 20
M  V30 20 1 20 21
M  V30 21 2 6 22
M  V30 22 1 22 2
M  V30 23 1 21 7
M  V30 24 1 19 11
M  V30 25 2 19 15
M  V30 26 1 3 23
M  V30 27 1 4 24
M  V30 28 1 5 25
M  V30 29 1 8 26
M  V30 30 1 8 27
M  V30 31 1 9 28
M  V30 32 1 9 29
M  V30 33 1 13 30
M  V30 34 1 16 31
M  V30 35 1 17 32
M  V30 36 1 18 33
M  V30 37 1 20 34
M  V30 38 1 20 35
M  V30 39 1 21 36
M  V30 40 1 21 37
M  V30 41 1 22 38
M  V30 END BOND
M  V30 END CTAB
M  END
>  <Dataset>  (864) 
ChEMBL_Kinases

>  <Ligand_Instance>  (864) 
nan

>  <PDB_ID>  (864) 
nan

>  <Standardized_SMILES>  (864) 
Clc1cccc(N2CCN(c3ncnc4[nH]ccc34)CC2)c1

>  <Name>  (864) 
nan

>  <Pocket>  (864) 
nan

>  <ATP_Site>  (864) 
nan

>  <Peripheral>  (864) 
nan

>  <Num_H_Atoms_ProtBoundConf>  (864) 
nan

>  <Num_Resolved_Atoms>  (864) 
nan

>  <Num_Not_Resolved_Atoms>  (864) 
nan

$$$$
CHEMBL2012588
     RDKit          3D

  0  0  0  0  0  0  0  0  0  0999 V3000
M  V30 BEGIN CTAB
M  V30 COUNTS 37 40 0 0 0
M  V30 BEGIN ATOM
M  V30 1 Cl -0.748534 -5.869630 3.040434 0
M  V30 2 C 0.417551 -4.716126 2.411549 0
M  V30 3 C 1.725251 -4.793928 2.831475 0
M  V30 4 C 2.647044 -3.899097 2.348325 0
M  V30 5 C 2.225666 -2.946890 1.452346 0
M  V30 6 C 0.932093 -2.804335 0.983145 0
M  V30 7 N 0.544780 -1.799506 0.052961 0
M  V30 8 C -0.856469 -1.791816 -0.325331 0
M  V30 9 C -1.244716 -0.594305 -1.153369 0
M  V30 10 N -0.253162 0.407830 -0.988773 0
M  V30 11 C -0.311232 1.703060 -0.445223 0
M  V30 12 N 0.027765 2.712527 -1.303549 0
M  V30 13 C 0.002887 4.004558 -0.871749 0
M  V30 14 N -0.344629 4.353968 0.381830 0
M  V30 15 C -0.680502 3.391587 1.242431 0
M  V30 16 N -1.069155 3.365372 2.531866 0
M  V30 17 N -1.281755 2.102122 2.900080 0
M  V30 18 C -1.037960 1.270722 1.862358 0
M  V30 19 C -0.664065 2.082483 0.834182 0
M  V30 20 C 1.046505 -0.018505 -1.484101 0
M  V30 21 C 1.612920 -0.904453 -0.400905 0
M  V30 22 C 0.062249 -3.736939 1.511425 0
M  V30 23 H 2.095690 -5.521150 3.529010 0
M  V30 24 H 3.703291 -3.917138 2.650735 0
M  V30 25 H 2.984576 -2.242854 1.081378 0
M  V30 26 H -1.030567 -2.749415 -0.846100 0
M  V30 27 H -1.452142 -1.828834 0.619293 0
M  V30 28 H -2.280735 -0.266809 -0.999750 0
M  V30 29 H -1.217297 -0.929689 -2.231493 0
M  V30 30 H 0.263722 4.833729 -1.517992 0
M  V30 31 H -1.192988 4.177827 3.164279 0
M  V30 32 H -1.127128 0.193654 1.869101 0
M  V30 33 H 0.973059 -0.630922 -2.417945 0
M  V30 34 H 1.705994 0.837876 -1.719035 0
M  V30 35 H 2.470095 -1.478353 -0.796842 0
M  V30 36 H 1.926569 -0.233406 0.432891 0
M  V30 37 H -0.977022 -3.719638 1.214033 0
M  V30 END ATOM
M  V30 BEGIN BOND
M  V30 1 1 1 2
M  V30 2 2 2 3
M  V30 3 1 3 4
M  V30 4 2 4 5
M  V30 5 1 5 6
M  V30 6 1 6 7
M  V30 7 1 7 8
M  V30 8 1 8 9
M  V30 9 1 9 10
M  V30 10 1 10 11
M  V30 11 2 11 12
M  V30 12 1 12 13
M  V30 13 2 13 14
M  V30 14 1 14 15
M  V30 15 1 15 16
M  V30 16 1 16 17
M  V30 17 2 17 18
M  V30 18 1 18 19
M  V30 19 1 10 20
M  V30 20 1 20 21
M  V30 21 2 6 22
M  V30 22 1 22 2
M  V30 23 1 21 7
M  V30 24 1 19 11
M  V30 25 2 19 15
M  V30 26 1 3 23
M  V30 27 1 4 24
M  V30 28 1 5 25
M  V30 29 1 8 26
M  V30 30 1 8 27
M  V30 31 1 9 28
M  V30 32 1 9 29
M  V30 33 1 13 30
M  V30 34 1 16 31
M  V30 35 1 18 32
M  V30 36 1 20 33
M  V30 37 1 20 34
M  V30 38 1 21 35
M  V30 39 1 21 36
M  V30 40 1 22 37
M  V30 END BOND
M  V30 END CTAB
M  END
>  <Dataset>  (865) 
ChEMBL_Kinases

>  <Ligand_Instance>  (865) 
nan

>  <PDB_ID>  (865) 
nan

>  <Standardized_SMILES>  (865) 
Clc1cccc(N2CCN(c3ncnc4[nH]ncc34)CC2)c1

>  <Name>  (865) 
nan

>  <Pocket>  (865) 
nan

>  <ATP_Site>  (865) 
nan

>  <Peripheral>  (865) 
nan

>  <Num_H_Atoms_ProtBoundConf>  (865) 
nan

>  <Num_Resolved_Atoms>  (865) 
nan

>  <Num_Not_Resolved_Atoms>  (865) 
nan

$$$$
CHEMBL2012568
     RDKit          3D

  0  0  0  0  0  0  0  0  0  0999 V3000
M  V30 BEGIN CTAB
M  V30 COUNTS 42 44 0 0 0
M  V30 BEGIN ATOM
M  V30 1 C 1.727789 -6.266477 0.932582 0
M  V30 2 O 2.232611 -5.290291 0.009577 0
M  V30 3 C 1.632920 -4.024853 0.061212 0
M  V30 4 C 0.618868 -3.795910 0.971809 0
M  V30 5 C 0.052614 -2.536958 0.992962 0
M  V30 6 C 0.481740 -1.543879 0.138013 0
M  V30 7 C 1.491108 -1.773884 -0.767472 0
M  V30 8 C 2.078158 -3.038866 -0.806721 0
M  V30 9 C 1.649269 -0.577335 -1.440584 0
M  V30 10 C 2.535911 -0.284184 -2.452457 0
M  V30 11 C 2.484453 0.990947 -2.954383 0
M  V30 12 N 1.632291 1.926807 -2.510372 0
M  V30 13 C 0.749729 1.642835 -1.506700 0
M  V30 14 C -0.199946 2.649906 -1.009158 0
M  V30 15 C 0.750200 0.358499 -0.949402 0
M  V30 16 N 0.029196 -0.256336 0.033861 0
M  V30 17 C -1.002755 0.336210 0.824338 0
M  V30 18 C -0.480759 0.953351 2.120173 0
M  V30 19 C -1.583311 1.562309 2.920025 0
M  V30 20 C -1.018703 2.161946 4.196105 0
M  V30 21 N -0.365931 1.165176 5.012921 0
M  V30 22 H 1.810868 -5.895198 1.976451 0
M  V30 23 H 0.642039 -6.345277 0.711878 0
M  V30 24 H 2.214738 -7.236815 0.800229 0
M  V30 25 H 0.259817 -4.545600 1.652164 0
M  V30 26 H -0.749226 -2.360531 1.714988 0
M  V30 27 H 2.867800 -3.201243 -1.522656 0
M  V30 28 H 3.230976 -1.014385 -2.829152 0
M  V30 29 H 3.170175 1.255596 -3.753243 0
M  V30 30 H -0.141939 2.895932 0.045946 0
M  V30 31 H 0.090457 3.629296 -1.505014 0
M  V30 32 H -1.229932 2.502591 -1.420500 0
M  V30 33 H -1.728793 0.961226 0.319404 0
M  V30 34 H -1.642588 -0.518420 1.212318 0
M  V30 35 H 0.389948 1.597487 1.985535 0
M  V30 36 H -0.095100 0.079773 2.724948 0
M  V30 37 H -2.295117 0.766070 3.234720 0
M  V30 38 H -2.114841 2.375812 2.398135 0
M  V30 39 H -1.848350 2.614334 4.760011 0
M  V30 40 H -0.286779 2.951767 3.977951 0
M  V30 41 H -0.832322 0.220125 4.940735 0
M  V30 42 H 0.657609 1.115900 4.790536 0
M  V30 END ATOM
M  V30 BEGIN BOND
M  V30 1 1 1 2
M  V30 2 1 2 3
M  V30 3 2 3 4
M  V30 4 1 4 5
M  V30 5 2 5 6
M  V30 6 1 6 7
M  V30 7 2 7 8
M  V30 8 1 7 9
M  V30 9 2 9 10
M  V30 10 1 10 11
M  V30 11 2 11 12
M  V30 12 1 12 13
M  V30 13 1 13 14
M  V30 14 2 13 15
M  V30 15 1 15 16
M  V30 16 1 16 17
M  V30 17 1 17 18
M  V30 18 1 18 19
M  V30 19 1 19 20
M  V30 20 1 20 21
M  V30 21 1 8 3
M  V30 22 1 15 9
M  V30 23 1 16 6
M  V30 24 1 1 22
M  V30 25 1 1 23
M  V30 26 1 1 24
M  V30 27 1 4 25
M  V30 28 1 5 26
M  V30 29 1 8 27
M  V30 30 1 10 28
M  V30 31 1 11 29
M  V30 32 1 14 30
M  V30 33 1 14 31
M  V30 34 1 14 32
M  V30 35 1 17 33
M  V30 36 1 17 34
M  V30 37 1 18 35
M  V30 38 1 18 36
M  V30 39 1 19 37
M  V30 40 1 19 38
M  V30 41 1 20 39
M  V30 42 1 20 40
M  V30 43 1 21 41
M  V30 44 1 21 42
M  V30 END BOND
M  V30 END CTAB
M  END
>  <Dataset>  (866) 
ChEMBL_Kinases

>  <Ligand_Instance>  (866) 
nan

>  <PDB_ID>  (866) 
nan

>  <Standardized_SMILES>  (866) 
COc1ccc2c(c1)c1ccnc(C)c1n2CCCCN

>  <Name>  (866) 
nan

>  <Pocket>  (866) 
nan

>  <ATP_Site>  (866) 
nan

>  <Peripheral>  (866) 
nan

>  <Num_H_Atoms_ProtBoundConf>  (866) 
nan

>  <Num_Resolved_Atoms>  (866) 
nan

>  <Num_Not_Resolved_Atoms>  (866) 
nan

$$$$
CHEMBL2022374
     RDKit          3D

  0  0  0  0  0  0  0  0  0  0999 V3000
M  V30 BEGIN CTAB
M  V30 COUNTS 67 72 0 0 0
M  V30 BEGIN ATOM
M  V30 1 C 2.621942 -3.800647 3.965553 0
M  V30 2 C 1.688332 -3.899840 2.814838 0
M  V30 3 C 0.390637 -3.439720 2.759486 0
M  V30 4 N -0.419425 -3.544917 1.718680 0
M  V30 5 C -1.665784 -3.155232 1.522958 0
M  V30 6 C -2.622017 -2.469563 2.334452 0
M  V30 7 C -2.658048 -1.961675 3.593223 0
M  V30 8 N -3.834429 -1.387518 3.870066 0
M  V30 9 N -4.637046 -1.489274 2.801655 0
M  V30 10 C -5.983306 -0.956962 2.767638 0
M  V30 11 C -5.823664 0.443536 2.231776 0
M  V30 12 O -4.596143 0.087210 2.178720 0
M  V30 13 N -6.571680 1.594096 1.923780 0
M  V30 14 C -5.623299 2.539057 1.438147 0
M  V30 15 C -5.059860 3.380853 2.371735 0
M  V30 16 C -4.134075 4.293088 1.873430 0
M  V30 17 F -3.486840 5.193949 2.661434 0
M  V30 18 C -3.857588 4.286648 0.520710 0
M  V30 19 C -4.426827 3.441825 -0.398996 0
M  V30 20 F -4.149825 3.443700 -1.713819 0
M  V30 21 C -5.360143 2.517611 0.084217 0
M  V30 22 C -3.906023 -2.137177 1.888115 0
M  V30 23 C -1.915841 -3.573579 0.209919 0
M  V30 24 N -0.822218 -4.175517 -0.287120 0
M  V30 25 C 0.148460 -4.171056 0.654460 0
M  V30 26 C 1.421813 -4.648099 0.642029 0
M  V30 27 N 1.984823 -5.300691 -0.511065 0
M  V30 28 C 2.438490 -4.194136 -1.280248 0
M  V30 29 C 3.524449 -3.394601 -1.349005 0
M  V30 30 C 3.539056 -2.419376 -2.287315 0
M  V30 31 C 4.682634 -1.450373 -2.459267 0
M  V30 32 N 4.429796 -0.284785 -1.643477 0
M  V30 33 C 3.186842 0.287226 -2.105200 0
M  V30 34 C 2.906777 1.641437 -1.501642 0
M  V30 35 C 4.064618 2.561668 -1.878567 0
M  V30 36 C 5.293839 1.982354 -1.247895 0
M  V30 37 C 5.549073 0.587683 -1.758939 0
M  V30 38 N 2.410017 -2.248469 -3.190999 0
M  V30 39 S 1.349155 -3.545973 -2.621233 0
M  V30 40 N 2.209449 -4.514336 1.734497 0
M  V30 41 H 2.756759 -4.790578 4.456356 0
M  V30 42 H 2.188208 -3.065836 4.663139 0
M  V30 43 H 3.625553 -3.430501 3.638361 0
M  V30 44 H 0.049771 -2.969125 3.642554 0
M  V30 45 H -1.871559 -1.989717 4.317947 0
M  V30 46 H -6.612690 -1.561184 2.093701 0
M  V30 47 H -6.409062 -0.944641 3.784145 0
M  V30 48 H -7.536455 1.294919 2.175932 0
M  V30 49 H -5.286577 3.370238 3.410306 0
M  V30 50 H -3.125293 5.011828 0.145486 0
M  V30 51 H -5.848432 1.820729 -0.580428 0
M  V30 52 H -4.373624 -2.333126 0.919620 0
M  V30 53 H -2.826116 -3.468321 -0.392725 0
M  V30 54 H 2.102750 -6.279835 -0.835116 0
M  V30 55 H 4.326086 -3.567024 -0.658758 0
M  V30 56 H 4.730216 -1.135302 -3.508507 0
M  V30 57 H 5.623642 -1.890107 -2.085876 0
M  V30 58 H 2.376849 -0.376005 -1.736260 0
M  V30 59 H 3.157375 0.366227 -3.192066 0
M  V30 60 H 2.004517 2.045854 -1.997935 0
M  V30 61 H 2.860489 1.623252 -0.397584 0
M  V30 62 H 3.901234 3.585656 -1.494517 0
M  V30 63 H 4.213259 2.624791 -2.967818 0
M  V30 64 H 6.159765 2.600493 -1.561479 0
M  V30 65 H 5.247951 2.026325 -0.139647 0
M  V30 66 H 5.913736 0.628274 -2.797300 0
M  V30 67 H 6.376291 0.184078 -1.123487 0
M  V30 END ATOM
M  V30 BEGIN BOND
M  V30 1 1 1 2
M  V30 2 2 2 3
M  V30 3 1 3 4
M  V30 4 1 4 5
M  V30 5 1 5 6
M  V30 6 1 6 7
M  V30 7 2 7 8
M  V30 8 1 8 9
M  V30 9 1 9 10
M  V30 10 1 10 11
M  V30 11 2 11 12
M  V30 12 1 11 13
M  V30 13 1 13 14
M  V30 14 2 14 15
M  V30 15 1 15 16
M  V30 16 1 16 17
M  V30 17 2 16 18
M  V30 18 1 18 19
M  V30 19 1 19 20
M  V30 20 2 19 21
M  V30 21 1 9 22
M  V30 22 2 5 23
M  V30 23 1 23 24
M  V30 24 2 24 25
M  V30 25 1 25 26
M  V30 26 1 26 27
M  V30 27 1 27 28
M  V30 28 2 28 29
M  V30 29 1 29 30
M  V30 30 1 30 31
M  V30 31 1 31 32
M  V30 32 1 32 33
M  V30 33 1 33 34
M  V30 34 1 34 35
M  V30 35 1 35 36
M  V30 36 1 36 37
M  V30 37 2 30 38
M  V30 38 1 38 39
M  V30 39 2 26 40
M  V30 40 1 40 2
M  V30 41 1 25 4
M  V30 42 1 39 28
M  V30 43 2 22 6
M  V30 44 1 37 32
M  V30 45 1 21 14
M  V30 46 1 1 41
M  V30 47 1 1 42
M  V30 48 1 1 43
M  V30 49 1 3 44
M  V30 50 1 7 45
M  V30 51 1 10 46
M  V30 52 1 10 47
M  V30 53 1 13 48
M  V30 54 1 15 49
M  V30 55 1 18 50
M  V30 56 1 21 51
M  V30 57 1 22 52
M  V30 58 1 23 53
M  V30 59 1 27 54
M  V30 60 1 29 55
M  V30 61 1 31 56
M  V30 62 1 31 57
M  V30 63 1 33 58
M  V30 64 1 33 59
M  V30 65 1 34 60
M  V30 66 1 34 61
M  V30 67 1 35 62
M  V30 68 1 35 63
M  V30 69 1 36 64
M  V30 70 1 36 65
M  V30 71 1 37 66
M  V30 72 1 37 67
M  V30 END BOND
M  V30 END CTAB
M  END
>  <Dataset>  (867) 
ChEMBL_Kinases

>  <Ligand_Instance>  (867) 
nan

>  <PDB_ID>  (867) 
nan

>  <Standardized_SMILES>  (867) 
Cc1cn2c(-c3cnn(CC(=O)Nc4cc(F)cc(F)c4)c3)cnc2c(Nc2cc(CN3CCCCC3)ns2)n1

>  <Name>  (867) 
nan

>  <Pocket>  (867) 
nan

>  <ATP_Site>  (867) 
nan

>  <Peripheral>  (867) 
nan

>  <Num_H_Atoms_ProtBoundConf>  (867) 
nan

>  <Num_Resolved_Atoms>  (867) 
nan

>  <Num_Not_Resolved_Atoms>  (867) 
nan

$$$$
CHEMBL2022373
     RDKit          3D

  0  0  0  0  0  0  0  0  0  0999 V3000
M  V30 BEGIN CTAB
M  V30 COUNTS 67 72 0 0 0
M  V30 BEGIN ATOM
M  V30 1 C 1.411840 -5.630649 4.135944 0
M  V30 2 C 1.102726 -4.925984 2.848197 0
M  V30 3 C -0.127434 -4.458550 2.463662 0
M  V30 4 N -0.350045 -3.835103 1.304039 0
M  V30 5 C -1.458783 -3.332182 0.756821 0
M  V30 6 C -2.824363 -3.264191 1.231960 0
M  V30 7 C -3.533427 -3.630885 2.332655 0
M  V30 8 N -4.824541 -3.303676 2.212498 0
M  V30 9 N -5.037865 -2.713072 1.046637 0
M  V30 10 C -6.319732 -2.223513 0.583294 0
M  V30 11 C -6.573671 -0.806878 0.945244 0
M  V30 12 O -7.672296 -0.225114 0.641374 0
M  V30 13 N -5.558958 -0.108893 1.640248 0
M  V30 14 C -5.389757 1.212375 2.158512 0
M  V30 15 C -4.833271 2.046057 1.209417 0
M  V30 16 C -4.560741 3.395167 1.461966 0
M  V30 17 C -4.893477 3.834995 2.745831 0
M  V30 18 C -5.448428 3.016970 3.702681 0
M  V30 19 F -5.770330 3.443602 4.944393 0
M  V30 20 C -5.702368 1.689340 3.413008 0
M  V30 21 F -6.244164 0.773169 4.250536 0
M  V30 22 C -3.840193 -2.687959 0.456203 0
M  V30 23 C -1.011288 -2.849482 -0.451357 0
M  V30 24 N 0.291476 -3.071588 -0.573628 0
M  V30 25 C 0.721969 -3.685970 0.515255 0
M  V30 26 C 1.997792 -4.111728 0.798240 0
M  V30 27 N 3.179549 -3.925385 0.042326 0
M  V30 28 C 3.623225 -2.941186 -0.886273 0
M  V30 29 C 3.107179 -1.756099 -1.260289 0
M  V30 30 C 3.845351 -1.095422 -2.203327 0
M  V30 31 C 3.494990 0.255958 -2.793886 0
M  V30 32 N 4.056173 1.289726 -1.976284 0
M  V30 33 C 3.714318 2.571769 -2.533402 0
M  V30 34 C 3.910304 3.679956 -1.492010 0
M  V30 35 C 4.810320 3.135317 -0.395374 0
M  V30 36 C 5.989762 2.424288 -1.032895 0
M  V30 37 C 5.484817 1.222271 -1.811615 0
M  V30 38 N 5.092556 -1.652071 -2.746556 0
M  V30 39 S 5.127004 -3.214698 -1.790711 0
M  V30 40 N 2.127412 -4.740815 2.007952 0
M  V30 41 H 0.578456 -6.199068 4.542357 0
M  V30 42 H 1.782127 -4.833771 4.820642 0
M  V30 43 H 2.273689 -6.308981 3.992746 0
M  V30 44 H -0.932907 -4.616918 3.150855 0
M  V30 45 H -3.126339 -4.118169 3.192881 0
M  V30 46 H -6.421065 -2.397590 -0.529629 0
M  V30 47 H -7.139612 -2.846470 1.014492 0
M  V30 48 H -4.656788 -0.604367 1.884537 0
M  V30 49 H -4.546636 1.771403 0.184437 0
M  V30 50 H -4.126808 4.070894 0.738976 0
M  V30 51 H -4.691507 4.893202 2.979003 0
M  V30 52 H -3.772633 -2.234866 -0.540434 0
M  V30 53 H -1.571130 -2.346441 -1.249452 0
M  V30 54 H 3.875394 -4.723158 0.223269 0
M  V30 55 H 2.221741 -1.286012 -0.897852 0
M  V30 56 H 2.386212 0.327483 -2.743618 0
M  V30 57 H 3.828576 0.251203 -3.831212 0
M  V30 58 H 4.421060 2.796327 -3.358721 0
M  V30 59 H 2.660751 2.594647 -2.871423 0
M  V30 60 H 4.428497 4.537198 -1.957771 0
M  V30 61 H 2.934446 3.952353 -1.016452 0
M  V30 62 H 4.248164 2.361298 0.158401 0
M  V30 63 H 5.173137 3.904794 0.285805 0
M  V30 64 H 6.589799 3.123829 -1.651538 0
M  V30 65 H 6.634028 2.102004 -0.193605 0
M  V30 66 H 6.003788 1.224559 -2.808483 0
M  V30 67 H 5.842692 0.304534 -1.314725 0
M  V30 END ATOM
M  V30 BEGIN BOND
M  V30 1 1 1 2
M  V30 2 2 2 3
M  V30 3 1 3 4
M  V30 4 1 4 5
M  V30 5 1 5 6
M  V30 6 1 6 7
M  V30 7 2 7 8
M  V30 8 1 8 9
M  V30 9 1 9 10
M  V30 10 1 10 11
M  V30 11 2 11 12
M  V30 12 1 11 13
M  V30 13 1 13 14
M  V30 14 2 14 15
M  V30 15 1 15 16
M  V30 16 2 16 17
M  V30 17 1 17 18
M  V30 18 1 18 19
M  V30 19 2 18 20
M  V30 20 1 20 21
M  V30 21 1 9 22
M  V30 22 2 5 23
M  V30 23 1 23 24
M  V30 24 2 24 25
M  V30 25 1 25 26
M  V30 26 1 26 27
M  V30 27 1 27 28
M  V30 28 2 28 29
M  V30 29 1 29 30
M  V30 30 1 30 31
M  V30 31 1 31 32
M  V30 32 1 32 33
M  V30 33 1 33 34
M  V30 34 1 34 35
M  V30 35 1 35 36
M  V30 36 1 36 37
M  V30 37 2 30 38
M  V30 38 1 38 39
M  V30 39 2 26 40
M  V30 40 1 40 2
M  V30 41 1 25 4
M  V30 42 1 39 28
M  V30 43 2 22 6
M  V30 44 1 37 32
M  V30 45 1 20 14
M  V30 46 1 1 41
M  V30 47 1 1 42
M  V30 48 1 1 43
M  V30 49 1 3 44
M  V30 50 1 7 45
M  V30 51 1 10 46
M  V30 52 1 10 47
M  V30 53 1 13 48
M  V30 54 1 15 49
M  V30 55 1 16 50
M  V30 56 1 17 51
M  V30 57 1 22 52
M  V30 58 1 23 53
M  V30 59 1 27 54
M  V30 60 1 29 55
M  V30 61 1 31 56
M  V30 62 1 31 57
M  V30 63 1 33 58
M  V30 64 1 33 59
M  V30 65 1 34 60
M  V30 66 1 34 61
M  V30 67 1 35 62
M  V30 68 1 35 63
M  V30 69 1 36 64
M  V30 70 1 36 65
M  V30 71 1 37 66
M  V30 72 1 37 67
M  V30 END BOND
M  V30 END CTAB
M  END
>  <Dataset>  (868) 
ChEMBL_Kinases

>  <Ligand_Instance>  (868) 
nan

>  <PDB_ID>  (868) 
nan

>  <Standardized_SMILES>  (868) 
Cc1cn2c(-c3cnn(CC(=O)Nc4cccc(F)c4F)c3)cnc2c(Nc2cc(CN3CCCCC3)ns2)n1

>  <Name>  (868) 
nan

>  <Pocket>  (868) 
nan

>  <ATP_Site>  (868) 
nan

>  <Peripheral>  (868) 
nan

>  <Num_H_Atoms_ProtBoundConf>  (868) 
nan

>  <Num_Resolved_Atoms>  (868) 
nan

>  <Num_Not_Resolved_Atoms>  (868) 
nan

$$$$
CHEMBL2022372
     RDKit          3D

  0  0  0  0  0  0  0  0  0  0999 V3000
M  V30 BEGIN CTAB
M  V30 COUNTS 67 72 0 0 0
M  V30 BEGIN ATOM
M  V30 1 C 3.295785 0.420003 5.134622 0
M  V30 2 C 2.153727 -0.405289 4.664265 0
M  V30 3 C 0.999574 0.136921 4.144559 0
M  V30 4 N -0.074259 -0.529083 3.698491 0
M  V30 5 C -1.235549 -0.119297 3.180072 0
M  V30 6 C -1.757898 1.203072 2.910904 0
M  V30 7 C -1.365690 2.509622 3.039638 0
M  V30 8 N -2.305973 3.351079 2.604914 0
M  V30 9 N -3.361932 2.649120 2.168964 0
M  V30 10 C -4.565622 3.244083 1.627779 0
M  V30 11 C -4.494676 3.440136 0.147555 0
M  V30 12 O -5.319349 3.921410 -0.701359 0
M  V30 13 N -3.315269 3.043955 -0.549205 0
M  V30 14 C -3.060394 3.149332 -1.948871 0
M  V30 15 C -3.441065 2.047266 -2.723593 0
M  V30 16 C -3.220281 2.091539 -4.078361 0
M  V30 17 C -2.630435 3.211049 -4.661315 0
M  V30 18 F -2.427233 3.223853 -5.993111 0
M  V30 19 C -2.251587 4.302144 -3.907434 0
M  V30 20 C -2.476863 4.251597 -2.541466 0
M  V30 21 C -3.031576 1.366305 2.353000 0
M  V30 22 C -1.882312 -1.320435 2.937074 0
M  V30 23 N -1.105073 -2.346419 3.308144 0
M  V30 24 C 0.037176 -1.865219 3.789770 0
M  V30 25 C 1.146912 -2.505902 4.293311 0
M  V30 26 N 1.141979 -3.937790 4.336791 0
M  V30 27 C 1.660035 -4.641345 3.176376 0
M  V30 28 C 2.131490 -4.051301 2.096591 0
M  V30 29 C 2.532777 -5.009067 1.206336 0
M  V30 30 C 3.119950 -4.814971 -0.144346 0
M  V30 31 N 2.161604 -4.778306 -1.209168 0
M  V30 32 C 1.194236 -3.737733 -1.095375 0
M  V30 33 C 0.871351 -3.209524 -2.475381 0
M  V30 34 C 2.114020 -2.465103 -2.952677 0
M  V30 35 C 3.338623 -3.319161 -2.822098 0
M  V30 36 C 2.897147 -4.719922 -2.448823 0
M  V30 37 N 2.444714 -6.506610 1.435406 0
M  V30 38 S 1.699196 -6.371733 3.121717 0
M  V30 39 N 2.207844 -1.768739 4.731484 0
M  V30 40 H 3.758158 -0.090505 6.007619 0
M  V30 41 H 4.069356 0.443270 4.351786 0
M  V30 42 H 2.983172 1.416102 5.471115 0
M  V30 43 H 1.010516 1.208904 4.115029 0
M  V30 44 H -0.419282 2.804270 3.440949 0
M  V30 45 H -4.756304 4.234802 2.114531 0
M  V30 46 H -5.442809 2.592294 1.817111 0
M  V30 47 H -2.470248 2.611098 -0.073872 0
M  V30 48 H -3.903321 1.144449 -2.344643 0
M  V30 49 H -3.501204 1.252416 -4.728131 0
M  V30 50 H -1.795459 5.171559 -4.346891 0
M  V30 51 H -2.195336 5.090760 -1.895084 0
M  V30 52 H -3.758221 0.619360 2.061312 0
M  V30 53 H -2.869997 -1.497494 2.512888 0
M  V30 54 H 0.766333 -4.415048 5.200647 0
M  V30 55 H 2.255342 -3.035195 1.795669 0
M  V30 56 H 3.930848 -5.501496 -0.410383 0
M  V30 57 H 3.612911 -3.793850 -0.151682 0
M  V30 58 H 0.283498 -4.107385 -0.579618 0
M  V30 59 H 1.539927 -2.878342 -0.493264 0
M  V30 60 H 0.634939 -4.004445 -3.182352 0
M  V30 61 H 0.065060 -2.450424 -2.453928 0
M  V30 62 H 2.015094 -2.115168 -3.995579 0
M  V30 63 H 2.290126 -1.555171 -2.328270 0
M  V30 64 H 3.822615 -3.400343 -3.811883 0
M  V30 65 H 4.102891 -2.922631 -2.132456 0
M  V30 66 H 2.324359 -5.140214 -3.307861 0
M  V30 67 H 3.832691 -5.321327 -2.403159 0
M  V30 END ATOM
M  V30 BEGIN BOND
M  V30 1 1 1 2
M  V30 2 2 2 3
M  V30 3 1 3 4
M  V30 4 1 4 5
M  V30 5 1 5 6
M  V30 6 1 6 7
M  V30 7 2 7 8
M  V30 8 1 8 9
M  V30 9 1 9 10
M  V30 10 1 10 11
M  V30 11 2 11 12
M  V30 12 1 11 13
M  V30 13 1 13 14
M  V30 14 2 14 15
M  V30 15 1 15 16
M  V30 16 2 16 17
M  V30 17 1 17 18
M  V30 18 1 17 19
M  V30 19 2 19 20
M  V30 20 1 9 21
M  V30 21 2 5 22
M  V30 22 1 22 23
M  V30 23 2 23 24
M  V30 24 1 24 25
M  V30 25 1 25 26
M  V30 26 1 26 27
M  V30 27 2 27 28
M  V30 28 1 28 29
M  V30 29 1 29 30
M  V30 30 1 30 31
M  V30 31 1 31 32
M  V30 32 1 32 33
M  V30 33 1 33 34
M  V30 34 1 34 35
M  V30 35 1 35 36
M  V30 36 2 29 37
M  V30 37 1 37 38
M  V30 38 2 25 39
M  V30 39 1 39 2
M  V30 40 1 24 4
M  V30 41 1 38 27
M  V30 42 2 21 6
M  V30 43 1 36 31
M  V30 44 1 20 14
M  V30 45 1 1 40
M  V30 46 1 1 41
M  V30 47 1 1 42
M  V30 48 1 3 43
M  V30 49 1 7 44
M  V30 50 1 10 45
M  V30 51 1 10 46
M  V30 52 1 13 47
M  V30 53 1 15 48
M  V30 54 1 16 49
M  V30 55 1 19 50
M  V30 56 1 20 51
M  V30 57 1 21 52
M  V30 58 1 22 53
M  V30 59 1 26 54
M  V30 60 1 28 55
M  V30 61 1 30 56
M  V30 62 1 30 57
M  V30 63 1 32 58
M  V30 64 1 32 59
M  V30 65 1 33 60
M  V30 66 1 33 61
M  V30 67 1 34 62
M  V30 68 1 34 63
M  V30 69 1 35 64
M  V30 70 1 35 65
M  V30 71 1 36 66
M  V30 72 1 36 67
M  V30 END BOND
M  V30 END CTAB
M  END
>  <Dataset>  (869) 
ChEMBL_Kinases

>  <Ligand_Instance>  (869) 
nan

>  <PDB_ID>  (869) 
nan

>  <Standardized_SMILES>  (869) 
Cc1cn2c(-c3cnn(CC(=O)Nc4ccc(F)cc4)c3)cnc2c(Nc2cc(CN3CCCCC3)ns2)n1

>  <Name>  (869) 
nan

>  <Pocket>  (869) 
nan

>  <ATP_Site>  (869) 
nan

>  <Peripheral>  (869) 
nan

>  <Num_H_Atoms_ProtBoundConf>  (869) 
nan

>  <Num_Resolved_Atoms>  (869) 
nan

>  <Num_Not_Resolved_Atoms>  (869) 
nan

$$$$
CHEMBL2022371
     RDKit          3D

  0  0  0  0  0  0  0  0  0  0999 V3000
M  V30 BEGIN CTAB
M  V30 COUNTS 67 72 0 0 0
M  V30 BEGIN ATOM
M  V30 1 C 3.713855 0.164970 4.479021 0
M  V30 2 C 2.460380 -0.592907 4.159180 0
M  V30 3 C 1.316725 0.039059 3.704568 0
M  V30 4 N 0.157666 -0.546907 3.392884 0
M  V30 5 C -0.977054 -0.026193 2.953735 0
M  V30 6 C -1.415819 1.318670 2.637119 0
M  V30 7 C -0.858448 2.550981 2.671459 0
M  V30 8 N -1.723768 3.502990 2.246233 0
M  V30 9 N -2.879044 2.897916 1.921901 0
M  V30 10 C -4.073735 3.573515 1.404474 0
M  V30 11 C -4.018571 3.607638 -0.074840 0
M  V30 12 O -2.957219 2.965542 0.297029 0
M  V30 13 N -4.414051 3.900062 -1.394876 0
M  V30 14 C -3.500731 3.397936 -2.342741 0
M  V30 15 C -2.401632 4.083313 -2.802650 0
M  V30 16 C -1.585672 3.483876 -3.732236 0
M  V30 17 C -1.939759 2.215813 -4.141068 0
M  V30 18 C -3.028859 1.483116 -3.714068 0
M  V30 19 F -3.301816 0.238949 -4.169665 0
M  V30 20 C -3.847048 2.111024 -2.766803 0
M  V30 21 C -2.702413 1.587718 2.153880 0
M  V30 22 C -1.784700 -1.163263 2.823942 0
M  V30 23 N -1.106305 -2.257638 3.181006 0
M  V30 24 C 0.127583 -1.876394 3.543491 0
M  V30 25 C 1.216686 -2.590093 3.989708 0
M  V30 26 N 1.229074 -3.990501 4.153342 0
M  V30 27 C 0.766963 -4.549112 2.867639 0
M  V30 28 C 1.709737 -4.824186 1.849560 0
M  V30 29 C 1.144886 -5.329882 0.732375 0
M  V30 30 C 1.918956 -5.720948 -0.503872 0
M  V30 31 N 2.045940 -4.604966 -1.343840 0
M  V30 32 C 0.909563 -3.967016 -1.867312 0
M  V30 33 C 0.924994 -2.520943 -1.348014 0
M  V30 34 C 2.201305 -1.875471 -1.868330 0
M  V30 35 C 3.363262 -2.622682 -1.250245 0
M  V30 36 C 3.324281 -4.086708 -1.633844 0
M  V30 37 N -0.268074 -5.565163 0.590461 0
M  V30 38 S -0.760814 -4.972397 2.280587 0
M  V30 39 N 2.381626 -1.947078 4.297178 0
M  V30 40 H 4.569368 -0.460829 4.149290 0
M  V30 41 H 3.753401 1.094849 3.856464 0
M  V30 42 H 3.787549 0.406348 5.558963 0
M  V30 43 H 1.429711 1.098645 3.612634 0
M  V30 44 H 0.112227 2.807451 2.977506 0
M  V30 45 H -4.957077 3.009804 1.769111 0
M  V30 46 H -4.058244 4.610629 1.783624 0
M  V30 47 H -5.282482 4.402424 -1.086490 0
M  V30 48 H -2.200011 5.084705 -2.420983 0
M  V30 49 H -0.707244 3.974015 -4.129821 0
M  V30 50 H -1.315325 1.705730 -4.878103 0
M  V30 51 H -4.697896 1.551725 -2.426973 0
M  V30 52 H -3.519706 0.907050 1.958012 0
M  V30 53 H -2.818407 -1.268754 2.491954 0
M  V30 54 H 1.525009 -4.418844 5.050986 0
M  V30 55 H 2.766494 -4.659622 1.924544 0
M  V30 56 H 1.508407 -6.647593 -0.966511 0
M  V30 57 H 2.956183 -6.012171 -0.171254 0
M  V30 58 H -0.011431 -4.410402 -1.442385 0
M  V30 59 H 0.843293 -3.969913 -2.979933 0
M  V30 60 H 0.021330 -1.962909 -1.619262 0
M  V30 61 H 1.069910 -2.641054 -0.241071 0
M  V30 62 H 2.254716 -1.932958 -2.977145 0
M  V30 63 H 2.237911 -0.822861 -1.547571 0
M  V30 64 H 4.315817 -2.205556 -1.693238 0
M  V30 65 H 3.366897 -2.458480 -0.161195 0
M  V30 66 H 3.628356 -4.169447 -2.697361 0
M  V30 67 H 4.064055 -4.604841 -0.965385 0
M  V30 END ATOM
M  V30 BEGIN BOND
M  V30 1 1 1 2
M  V30 2 2 2 3
M  V30 3 1 3 4
M  V30 4 1 4 5
M  V30 5 1 5 6
M  V30 6 1 6 7
M  V30 7 2 7 8
M  V30 8 1 8 9
M  V30 9 1 9 10
M  V30 10 1 10 11
M  V30 11 2 11 12
M  V30 12 1 11 13
M  V30 13 1 13 14
M  V30 14 2 14 15
M  V30 15 1 15 16
M  V30 16 2 16 17
M  V30 17 1 17 18
M  V30 18 1 18 19
M  V30 19 2 18 20
M  V30 20 1 9 21
M  V30 21 2 5 22
M  V30 22 1 22 23
M  V30 23 2 23 24
M  V30 24 1 24 25
M  V30 25 1 25 26
M  V30 26 1 26 27
M  V30 27 2 27 28
M  V30 28 1 28 29
M  V30 29 1 29 30
M  V30 30 1 30 31
M  V30 31 1 31 32
M  V30 32 1 32 33
M  V30 33 1 33 34
M  V30 34 1 34 35
M  V30 35 1 35 36
M  V30 36 2 29 37
M  V30 37 1 37 38
M  V30 38 2 25 39
M  V30 39 1 39 2
M  V30 40 1 24 4
M  V30 41 1 38 27
M  V30 42 2 21 6
M  V30 43 1 36 31
M  V30 44 1 20 14
M  V30 45 1 1 40
M  V30 46 1 1 41
M  V30 47 1 1 42
M  V30 48 1 3 43
M  V30 49 1 7 44
M  V30 50 1 10 45
M  V30 51 1 10 46
M  V30 52 1 13 47
M  V30 53 1 15 48
M  V30 54 1 16 49
M  V30 55 1 17 50
M  V30 56 1 20 51
M  V30 57 1 21 52
M  V30 58 1 22 53
M  V30 59 1 26 54
M  V30 60 1 28 55
M  V30 61 1 30 56
M  V30 62 1 30 57
M  V30 63 1 32 58
M  V30 64 1 32 59
M  V30 65 1 33 60
M  V30 66 1 33 61
M  V30 67 1 34 62
M  V30 68 1 34 63
M  V30 69 1 35 64
M  V30 70 1 35 65
M  V30 71 1 36 66
M  V30 72 1 36 67
M  V30 END BOND
M  V30 END CTAB
M  END
>  <Dataset>  (870) 
ChEMBL_Kinases

>  <Ligand_Instance>  (870) 
nan

>  <PDB_ID>  (870) 
nan

>  <Standardized_SMILES>  (870) 
Cc1cn2c(-c3cnn(CC(=O)Nc4cccc(F)c4)c3)cnc2c(Nc2cc(CN3CCCCC3)ns2)n1

>  <Name>  (870) 
nan

>  <Pocket>  (870) 
nan

>  <ATP_Site>  (870) 
nan

>  <Peripheral>  (870) 
nan

>  <Num_H_Atoms_ProtBoundConf>  (870) 
nan

>  <Num_Resolved_Atoms>  (870) 
nan

>  <Num_Not_Resolved_Atoms>  (870) 
nan

$$$$
CHEMBL2022370
     RDKit          3D

  0  0  0  0  0  0  0  0  0  0999 V3000
M  V30 BEGIN CTAB
M  V30 COUNTS 67 72 0 0 0
M  V30 BEGIN ATOM
M  V30 1 C 2.604666 -0.536163 6.030667 0
M  V30 2 C 1.527686 -1.171080 5.225016 0
M  V30 3 C 0.598909 -0.447293 4.513109 0
M  V30 4 N -0.388266 -0.938843 3.773023 0
M  V30 5 C -1.340915 -0.354764 3.042655 0
M  V30 6 C -1.650841 1.035571 2.784361 0
M  V30 7 C -1.165949 2.265853 3.135771 0
M  V30 8 N -1.890685 3.240589 2.561409 0
M  V30 9 N -2.851734 2.730046 1.831334 0
M  V30 10 C -3.825109 3.481958 1.065040 0
M  V30 11 C -3.310070 3.724107 -0.327074 0
M  V30 12 O -2.169229 3.193283 -0.413027 0
M  V30 13 N -3.986427 4.422159 -1.354388 0
M  V30 14 C -3.110932 4.397527 -2.498829 0
M  V30 15 C -2.138608 5.332501 -2.815124 0
M  V30 16 C -1.376358 5.182214 -3.938199 0
M  V30 17 C -1.589995 4.088275 -4.749203 0
M  V30 18 C -2.551863 3.134574 -4.464824 0
M  V30 19 C -3.316787 3.295471 -3.327563 0
M  V30 20 F -4.234222 2.318801 -3.123560 0
M  V30 21 C -2.717503 1.402832 1.957755 0
M  V30 22 C -2.038708 -1.448681 2.528475 0
M  V30 23 N -1.482756 -2.586614 2.965514 0
M  V30 24 C -0.445829 -2.281974 3.747483 0
M  V30 25 C 0.431679 -3.099352 4.421942 0
M  V30 26 N 0.296851 -4.515232 4.340164 0
M  V30 27 C 0.997443 -5.121510 3.219589 0
M  V30 28 C 1.730471 -4.472614 2.275711 0
M  V30 29 C 2.273889 -5.294511 1.342608 0
M  V30 30 C 3.122568 -4.946023 0.163292 0
M  V30 31 N 2.278428 -4.732666 -0.966956 0
M  V30 32 C 1.319114 -3.691596 -0.856860 0
M  V30 33 C 0.961107 -3.145187 -2.203716 0
M  V30 34 C 2.164260 -2.621103 -2.955992 0
M  V30 35 C 3.321546 -3.565126 -2.881746 0
M  V30 36 C 2.888388 -4.868675 -2.246861 0
M  V30 37 N 2.051208 -6.778339 1.399198 0
M  V30 38 S 0.996194 -6.844633 2.913006 0
M  V30 39 N 1.425841 -2.533161 5.166181 0
M  V30 40 H 2.920755 -1.291059 6.790076 0
M  V30 41 H 3.478253 -0.407027 5.346555 0
M  V30 42 H 2.275498 0.418885 6.475219 0
M  V30 43 H 0.725968 0.603814 4.595635 0
M  V30 44 H -0.325581 2.416000 3.779721 0
M  V30 45 H -4.751239 2.868235 0.987077 0
M  V30 46 H -4.033273 4.429905 1.578180 0
M  V30 47 H -4.926303 4.790078 -1.087219 0
M  V30 48 H -2.053889 6.149982 -2.111787 0
M  V30 49 H -0.620042 5.922662 -4.171399 0
M  V30 50 H -0.972367 3.985290 -5.640993 0
M  V30 51 H -2.681568 2.280686 -5.145627 0
M  V30 52 H -3.427739 0.755662 1.422700 0
M  V30 53 H -2.899255 -1.453759 1.876353 0
M  V30 54 H -0.240324 -5.092053 4.996905 0
M  V30 55 H 1.928175 -3.425067 2.177039 0
M  V30 56 H 3.882256 -5.692561 -0.087257 0
M  V30 57 H 3.702830 -4.021788 0.441365 0
M  V30 58 H 1.556099 -2.892128 -0.131364 0
M  V30 59 H 0.374089 -4.163122 -0.457253 0
M  V30 60 H 0.363798 -3.847641 -2.803914 0
M  V30 61 H 0.302728 -2.254718 -2.010630 0
M  V30 62 H 1.870484 -2.429816 -4.009630 0
M  V30 63 H 2.486014 -1.627607 -2.564604 0
M  V30 64 H 3.635694 -3.823397 -3.913524 0
M  V30 65 H 4.157338 -3.114757 -2.306818 0
M  V30 66 H 2.116954 -5.297611 -2.931782 0
M  V30 67 H 3.757950 -5.537926 -2.267631 0
M  V30 END ATOM
M  V30 BEGIN BOND
M  V30 1 1 1 2
M  V30 2 2 2 3
M  V30 3 1 3 4
M  V30 4 1 4 5
M  V30 5 1 5 6
M  V30 6 1 6 7
M  V30 7 2 7 8
M  V30 8 1 8 9
M  V30 9 1 9 10
M  V30 10 1 10 11
M  V30 11 2 11 12
M  V30 12 1 11 13
M  V30 13 1 13 14
M  V30 14 2 14 15
M  V30 15 1 15 16
M  V30 16 2 16 17
M  V30 17 1 17 18
M  V30 18 2 18 19
M  V30 19 1 19 20
M  V30 20 1 9 21
M  V30 21 2 5 22
M  V30 22 1 22 23
M  V30 23 2 23 24
M  V30 24 1 24 25
M  V30 25 1 25 26
M  V30 26 1 26 27
M  V30 27 2 27 28
M  V30 28 1 28 29
M  V30 29 1 29 30
M  V30 30 1 30 31
M  V30 31 1 31 32
M  V30 32 1 32 33
M  V30 33 1 33 34
M  V30 34 1 34 35
M  V30 35 1 35 36
M  V30 36 2 29 37
M  V30 37 1 37 38
M  V30 38 2 25 39
M  V30 39 1 39 2
M  V30 40 1 24 4
M  V30 41 1 38 27
M  V30 42 2 21 6
M  V30 43 1 36 31
M  V30 44 1 19 14
M  V30 45 1 1 40
M  V30 46 1 1 41
M  V30 47 1 1 42
M  V30 48 1 3 43
M  V30 49 1 7 44
M  V30 50 1 10 45
M  V30 51 1 10 46
M  V30 52 1 13 47
M  V30 53 1 15 48
M  V30 54 1 16 49
M  V30 55 1 17 50
M  V30 56 1 18 51
M  V30 57 1 21 52
M  V30 58 1 22 53
M  V30 59 1 26 54
M  V30 60 1 28 55
M  V30 61 1 30 56
M  V30 62 1 30 57
M  V30 63 1 32 58
M  V30 64 1 32 59
M  V30 65 1 33 60
M  V30 66 1 33 61
M  V30 67 1 34 62
M  V30 68 1 34 63
M  V30 69 1 35 64
M  V30 70 1 35 65
M  V30 71 1 36 66
M  V30 72 1 36 67
M  V30 END BOND
M  V30 END CTAB
M  END
>  <Dataset>  (871) 
ChEMBL_Kinases

>  <Ligand_Instance>  (871) 
nan

>  <PDB_ID>  (871) 
nan

>  <Standardized_SMILES>  (871) 
Cc1cn2c(-c3cnn(CC(=O)Nc4ccccc4F)c3)cnc2c(Nc2cc(CN3CCCCC3)ns2)n1

>  <Name>  (871) 
nan

>  <Pocket>  (871) 
nan

>  <ATP_Site>  (871) 
nan

>  <Peripheral>  (871) 
nan

>  <Num_H_Atoms_ProtBoundConf>  (871) 
nan

>  <Num_Resolved_Atoms>  (871) 
nan

>  <Num_Not_Resolved_Atoms>  (871) 
nan

$$$$
CHEMBL2022369
     RDKit          3D

  0  0  0  0  0  0  0  0  0  0999 V3000
M  V30 BEGIN CTAB
M  V30 COUNTS 70 75 0 0 0
M  V30 BEGIN ATOM
M  V30 1 C 5.679459 -0.157682 3.839103 0
M  V30 2 C 4.266096 -0.414447 3.471350 0
M  V30 3 C 3.639225 0.278296 2.448864 0
M  V30 4 N 2.369207 0.028978 2.097052 0
M  V30 5 C 1.583485 0.547280 1.157633 0
M  V30 6 C 1.781095 1.568595 0.153899 0
M  V30 7 C 2.795208 2.410746 -0.198142 0
M  V30 8 N 2.421671 3.153599 -1.248291 0
M  V30 9 N 1.203139 2.864595 -1.635495 0
M  V30 10 C 0.312703 3.375133 -2.665791 0
M  V30 11 C -0.578059 4.404457 -2.104225 0
M  V30 12 O -0.503166 5.667044 -1.905300 0
M  V30 13 N -1.875479 3.982145 -1.627458 0
M  V30 14 C -3.025765 4.605032 -1.020761 0
M  V30 15 C -4.134898 3.710179 -0.718766 0
M  V30 16 C -4.458463 2.937902 0.408447 0
M  V30 17 C -5.557823 2.183582 0.475685 0
M  V30 18 C -6.418855 2.185504 -0.663670 0
M  V30 19 S -5.496258 3.369488 -1.827526 0
M  V30 20 C 0.798902 1.894417 -0.786186 0
M  V30 21 C 0.412921 -0.161620 1.319215 0
M  V30 22 N 0.503230 -1.054034 2.304209 0
M  V30 23 C 1.745237 -0.941883 2.807343 0
M  V30 24 C 2.285354 -1.676917 3.832952 0
M  V30 25 N 1.498182 -2.690592 4.498196 0
M  V30 26 C 1.013078 -3.675953 3.470435 0
M  V30 27 C -0.208165 -3.802628 2.923088 0
M  V30 28 C -0.298279 -4.814060 2.007633 0
M  V30 29 C -1.445453 -5.304895 1.208863 0
M  V30 30 N -1.617715 -4.650476 -0.071784 0
M  V30 31 C -2.193181 -3.358494 0.026517 0
M  V30 32 C -1.414282 -2.349155 -0.749806 0
M  V30 33 C -1.448198 -2.857590 -2.206208 0
M  V30 34 C -0.573234 -4.091531 -2.201542 0
M  V30 35 C 0.823671 -3.571794 -2.606084 0
M  V30 36 C -0.440455 -4.768047 -0.893904 0
M  V30 37 N 0.847833 -5.632675 1.703825 0
M  V30 38 S 2.071178 -4.824590 2.850302 0
M  V30 39 N 3.573685 -1.358733 4.122414 0
M  V30 40 H 5.810463 0.554179 4.653887 0
M  V30 41 H 6.120112 -1.151283 4.168610 0
M  V30 42 H 6.309914 0.108124 2.948986 0
M  V30 43 H 4.174779 1.026779 1.922313 0
M  V30 44 H 3.750724 2.497530 0.266037 0
M  V30 45 H -0.322614 2.542495 -3.051759 0
M  V30 46 H 0.886505 3.777928 -3.526281 0
M  V30 47 H -2.075606 2.935671 -1.738185 0
M  V30 48 H -2.691327 5.057027 -0.072512 0
M  V30 49 H -3.367086 5.466996 -1.680628 0
M  V30 50 H -3.729076 3.011225 1.214692 0
M  V30 51 H -5.854407 1.576332 1.314212 0
M  V30 52 H -7.374182 1.608178 -0.752552 0
M  V30 53 H -0.201977 1.440046 -0.863802 0
M  V30 54 H -0.518600 -0.072360 0.766328 0
M  V30 55 H 1.268188 -2.767381 5.519170 0
M  V30 56 H -1.081682 -3.214642 3.121877 0
M  V30 57 H -1.449744 -6.376245 1.061192 0
M  V30 58 H -2.415306 -5.089305 1.761275 0
M  V30 59 H -2.507749 -3.037839 1.046136 0
M  V30 60 H -3.190370 -3.433641 -0.524480 0
M  V30 61 H -0.364269 -2.276706 -0.482854 0
M  V30 62 H -1.893797 -1.359105 -0.681897 0
M  V30 63 H -2.514095 -3.082914 -2.442359 0
M  V30 64 H -1.057228 -2.035742 -2.828486 0
M  V30 65 H -0.885254 -4.738833 -3.052061 0
M  V30 66 H 0.719040 -2.695024 -3.276519 0
M  V30 67 H 1.274053 -3.199993 -1.672793 0
M  V30 68 H 1.371336 -4.416297 -3.011339 0
M  V30 69 H -0.330284 -5.864545 -1.099789 0
M  V30 70 H 0.484479 -4.434155 -0.384002 0
M  V30 END ATOM
M  V30 BEGIN BOND
M  V30 1 1 1 2
M  V30 2 2 2 3
M  V30 3 1 3 4
M  V30 4 1 4 5
M  V30 5 1 5 6
M  V30 6 1 6 7
M  V30 7 2 7 8
M  V30 8 1 8 9
M  V30 9 1 9 10
M  V30 10 1 10 11
M  V30 11 2 11 12
M  V30 12 1 11 13
M  V30 13 1 13 14
M  V30 14 1 14 15
M  V30 15 2 15 16
M  V30 16 1 16 17
M  V30 17 2 17 18
M  V30 18 1 18 19
M  V30 19 1 9 20
M  V30 20 2 5 21
M  V30 21 1 21 22
M  V30 22 2 22 23
M  V30 23 1 23 24
M  V30 24 1 24 25
M  V30 25 1 25 26
M  V30 26 2 26 27
M  V30 27 1 27 28
M  V30 28 1 28 29
M  V30 29 1 29 30
M  V30 30 1 30 31
M  V30 31 1 31 32
M  V30 32 1 32 33
M  V30 33 1 33 34
M  V30 34 1 34 35
M  V30 35 1 34 36
M  V30 36 2 28 37
M  V30 37 1 37 38
M  V30 38 2 24 39
M  V30 39 1 39 2
M  V30 40 1 23 4
M  V30 41 1 38 26
M  V30 42 2 20 6
M  V30 43 1 36 30
M  V30 44 1 19 15
M  V30 45 1 1 40
M  V30 46 1 1 41
M  V30 47 1 1 42
M  V30 48 1 3 43
M  V30 49 1 7 44
M  V30 50 1 10 45
M  V30 51 1 10 46
M  V30 52 1 13 47
M  V30 53 1 14 48
M  V30 54 1 14 49
M  V30 55 1 16 50
M  V30 56 1 17 51
M  V30 57 1 18 52
M  V30 58 1 20 53
M  V30 59 1 21 54
M  V30 60 1 25 55
M  V30 61 1 27 56
M  V30 62 1 29 57
M  V30 63 1 29 58
M  V30 64 1 31 59
M  V30 65 1 31 60
M  V30 66 1 32 61
M  V30 67 1 32 62
M  V30 68 1 33 63
M  V30 69 1 33 64
M  V30 70 1 34 65
M  V30 71 1 35 66
M  V30 72 1 35 67
M  V30 73 1 35 68
M  V30 74 1 36 69
M  V30 75 1 36 70
M  V30 END BOND
M  V30 END CTAB
M  END
>  <Dataset>  (872) 
ChEMBL_Kinases

>  <Ligand_Instance>  (872) 
nan

>  <PDB_ID>  (872) 
nan

>  <Standardized_SMILES>  (872) 
Cc1cn2c(-c3cnn(CC(=O)NCc4cccs4)c3)cnc2c(Nc2cc(CN3CCCC(C)C3)ns2)n1

>  <Name>  (872) 
nan

>  <Pocket>  (872) 
nan

>  <ATP_Site>  (872) 
nan

>  <Peripheral>  (872) 
nan

>  <Num_H_Atoms_ProtBoundConf>  (872) 
nan

>  <Num_Resolved_Atoms>  (872) 
nan

>  <Num_Not_Resolved_Atoms>  (872) 
nan

$$$$
CHEMBL2022282
     RDKit          3D

  0  0  0  0  0  0  0  0  0  0999 V3000
M  V30 BEGIN CTAB
M  V30 COUNTS 24 25 0 0 0
M  V30 BEGIN ATOM
M  V30 1 O 1.880441 -0.640376 1.888575 0
M  V30 2 C 1.056376 0.072073 1.265600 0
M  V30 3 N 0.005083 -0.541101 0.547595 0
M  V30 4 C -0.296938 -1.915219 0.401678 0
M  V30 5 C 0.383708 -2.979530 0.936342 0
M  V30 6 C 0.043338 -4.304782 0.760163 0
M  V30 7 N -1.040781 -4.556744 0.003987 0
M  V30 8 C -1.755631 -3.561566 -0.551408 0
M  V30 9 C -1.394573 -2.244655 -0.360144 0
M  V30 10 C 1.287310 1.509204 1.357557 0
M  V30 11 C 0.311829 2.287599 1.946304 0
M  V30 12 N 0.523863 3.634746 2.033620 0
M  V30 13 C 1.651817 4.200924 1.560844 0
M  V30 14 C 2.639895 3.439624 0.968486 0
M  V30 15 C 2.459274 2.063862 0.861961 0
M  V30 16 Cl 3.613842 0.992436 0.143399 0
M  V30 17 H -0.586847 0.181605 0.089716 0
M  V30 18 H 1.244150 -2.792666 1.537008 0
M  V30 19 H 0.634268 -5.093494 1.217738 0
M  V30 20 H -2.626106 -3.743866 -1.159502 0
M  V30 21 H -1.996261 -1.454060 -0.825296 0
M  V30 22 H -0.624606 1.931577 2.354902 0
M  V30 23 H 1.866745 5.260162 1.605808 0
M  V30 24 H 3.571945 3.845995 0.569076 0
M  V30 END ATOM
M  V30 BEGIN BOND
M  V30 1 2 1 2
M  V30 2 1 2 3
M  V30 3 1 3 4
M  V30 4 2 4 5
M  V30 5 1 5 6
M  V30 6 2 6 7
M  V30 7 1 7 8
M  V30 8 2 8 9
M  V30 9 1 2 10
M  V30 10 2 10 11
M  V30 11 1 11 12
M  V30 12 2 12 13
M  V30 13 1 13 14
M  V30 14 2 14 15
M  V30 15 1 15 16
M  V30 16 1 9 4
M  V30 17 1 15 10
M  V30 18 1 3 17
M  V30 19 1 5 18
M  V30 20 1 6 19
M  V30 21 1 8 20
M  V30 22 1 9 21
M  V30 23 1 11 22
M  V30 24 1 13 23
M  V30 25 1 14 24
M  V30 END BOND
M  V30 END CTAB
M  END
>  <Dataset>  (873) 
ChEMBL_Kinases

>  <Ligand_Instance>  (873) 
nan

>  <PDB_ID>  (873) 
nan

>  <Standardized_SMILES>  (873) 
O=C(Nc1ccncc1)c1cnccc1Cl

>  <Name>  (873) 
nan

>  <Pocket>  (873) 
nan

>  <ATP_Site>  (873) 
nan

>  <Peripheral>  (873) 
nan

>  <Num_H_Atoms_ProtBoundConf>  (873) 
nan

>  <Num_Resolved_Atoms>  (873) 
nan

>  <Num_Not_Resolved_Atoms>  (873) 
nan

$$$$
CHEMBL2022123
     RDKit          3D

  0  0  0  0  0  0  0  0  0  0999 V3000
M  V30 BEGIN CTAB
M  V30 COUNTS 69 75 0 0 0
M  V30 BEGIN ATOM
M  V30 1 C 2.774129 -1.303009 3.386139 0
M  V30 2 C 1.483759 -1.746339 2.811868 0
M  V30 3 C 0.563185 -0.934790 2.182989 0
M  V30 4 N -0.608923 -1.276762 1.653268 0
M  V30 5 C -1.544180 -0.556012 1.025777 0
M  V30 6 C -1.638070 0.846140 0.686093 0
M  V30 7 C -0.847823 1.947674 0.871944 0
M  V30 8 N -1.415785 3.032219 0.343446 0
M  V30 9 N -2.578073 2.724534 -0.206090 0
M  V30 10 C -3.522584 3.601400 -0.890805 0
M  V30 11 C -4.440132 4.104390 0.186332 0
M  V30 12 N -4.370978 5.238510 0.931873 0
M  V30 13 C -5.441257 5.229830 1.784300 0
M  V30 14 C -5.811906 6.154186 2.736565 0
M  V30 15 C -6.964809 5.852526 3.450403 0
M  V30 16 C -7.724489 4.696380 3.242685 0
M  V30 17 C -7.242803 3.845447 2.253875 0
M  V30 18 C -6.119387 4.064281 1.505494 0
M  V30 19 N -5.513175 3.369066 0.527345 0
M  V30 20 C -2.707712 1.403941 0.003559 0
M  V30 21 C -2.513773 -1.501317 0.714941 0
M  V30 22 N -2.137379 -2.712319 1.150392 0
M  V30 23 C -0.947487 -2.573991 1.736590 0
M  V30 24 C -0.083916 -3.438083 2.346179 0
M  V30 25 N -0.307756 -4.822022 2.505436 0
M  V30 26 C 0.162366 -5.180280 1.079647 0
M  V30 27 C 1.429074 -5.105881 0.690557 0
M  V30 28 C 1.717484 -5.452207 -0.611372 0
M  V30 29 C 3.066917 -5.384609 -1.251299 0
M  V30 30 N 3.212940 -4.099853 -1.954152 0
M  V30 31 C 2.998619 -2.968039 -1.081296 0
M  V30 32 C 2.789633 -1.774799 -2.025447 0
M  V30 33 C 3.922586 -1.676808 -3.011067 0
M  V30 34 C 5.025249 -2.654591 -2.794744 0
M  V30 35 C 6.080749 -2.108574 -1.853402 0
M  V30 36 C 4.589412 -4.039112 -2.397250 0
M  V30 37 N 0.680272 -5.869451 -1.477475 0
M  V30 38 S -0.721649 -5.721854 -0.280328 0
M  V30 39 N 1.117384 -3.062759 2.884234 0
M  V30 40 H 2.824289 -1.512891 4.488945 0
M  V30 41 H 2.925544 -0.231865 3.252714 0
M  V30 42 H 3.579790 -1.879129 2.887830 0
M  V30 43 H 0.894286 0.070557 2.152509 0
M  V30 44 H 0.097889 1.992712 1.364202 0
M  V30 45 H -3.001103 4.456000 -1.365608 0
M  V30 46 H -4.065484 3.038117 -1.657095 0
M  V30 47 H -5.250205 7.058529 2.923746 0
M  V30 48 H -7.243701 6.593699 4.198419 0
M  V30 49 H -8.613604 4.507206 3.823671 0
M  V30 50 H -7.842492 2.955620 2.107408 0
M  V30 51 H -5.892844 2.461177 0.190930 0
M  V30 52 H -3.607468 0.878943 -0.361355 0
M  V30 53 H -3.461357 -1.401142 0.206411 0
M  V30 54 H -0.469628 -5.830167 2.618033 0
M  V30 55 H 2.218286 -4.790854 1.351682 0
M  V30 56 H 3.214385 -6.185803 -1.966245 0
M  V30 57 H 3.831064 -5.349638 -0.454902 0
M  V30 58 H 3.879893 -2.751784 -0.460378 0
M  V30 59 H 2.069026 -3.038544 -0.489859 0
M  V30 60 H 1.860888 -1.958261 -2.611461 0
M  V30 61 H 2.656099 -0.849598 -1.444991 0
M  V30 62 H 3.568485 -1.731206 -4.060944 0
M  V30 63 H 4.373778 -0.649272 -2.925563 0
M  V30 64 H 5.555231 -2.756946 -3.787814 0
M  V30 65 H 6.501244 -2.942485 -1.251788 0
M  V30 66 H 5.677720 -1.335106 -1.153551 0
M  V30 67 H 6.925705 -1.633848 -2.395122 0
M  V30 68 H 4.775960 -4.788892 -3.214555 0
M  V30 69 H 5.217447 -4.347968 -1.518147 0
M  V30 END ATOM
M  V30 BEGIN BOND
M  V30 1 1 1 2
M  V30 2 2 2 3
M  V30 3 1 3 4
M  V30 4 1 4 5
M  V30 5 1 5 6
M  V30 6 1 6 7
M  V30 7 2 7 8
M  V30 8 1 8 9
M  V30 9 1 9 10
M  V30 10 1 10 11
M  V30 11 2 11 12
M  V30 12 1 12 13
M  V30 13 2 13 14
M  V30 14 1 14 15
M  V30 15 2 15 16
M  V30 16 1 16 17
M  V30 17 2 17 18
M  V30 18 1 18 19
M  V30 19 1 9 20
M  V30 20 2 5 21
M  V30 21 1 21 22
M  V30 22 2 22 23
M  V30 23 1 23 24
M  V30 24 1 24 25
M  V30 25 1 25 26
M  V30 26 2 26 27
M  V30 27 1 27 28
M  V30 28 1 28 29
M  V30 29 1 29 30
M  V30 30 1 30 31
M  V30 31 1 31 32
M  V30 32 1 32 33
M  V30 33 1 33 34
M  V30 34 1 34 35
M  V30 35 1 34 36
M  V30 36 2 28 37
M  V30 37 1 37 38
M  V30 38 2 24 39
M  V30 39 1 39 2
M  V30 40 1 23 4
M  V30 41 1 38 26
M  V30 42 2 20 6
M  V30 43 1 36 30
M  V30 44 1 19 11
M  V30 45 1 18 13
M  V30 46 1 1 40
M  V30 47 1 1 41
M  V30 48 1 1 42
M  V30 49 1 3 43
M  V30 50 1 7 44
M  V30 51 1 10 45
M  V30 52 1 10 46
M  V30 53 1 14 47
M  V30 54 1 15 48
M  V30 55 1 16 49
M  V30 56 1 17 50
M  V30 57 1 19 51
M  V30 58 1 20 52
M  V30 59 1 21 53
M  V30 60 1 25 54
M  V30 61 1 27 55
M  V30 62 1 29 56
M  V30 63 1 29 57
M  V30 64 1 31 58
M  V30 65 1 31 59
M  V30 66 1 32 60
M  V30 67 1 32 61
M  V30 68 1 33 62
M  V30 69 1 33 63
M  V30 70 1 34 64
M  V30 71 1 35 65
M  V30 72 1 35 66
M  V30 73 1 35 67
M  V30 74 1 36 68
M  V30 75 1 36 69
M  V30 END BOND
M  V30 END CTAB
M  END
>  <Dataset>  (874) 
ChEMBL_Kinases

>  <Ligand_Instance>  (874) 
nan

>  <PDB_ID>  (874) 
nan

>  <Standardized_SMILES>  (874) 
Cc1cn2c(-c3cnn(Cc4nc5ccccc5[nH]4)c3)cnc2c(Nc2cc(CN3CCCC(C)C3)ns2)n1

>  <Name>  (874) 
nan

>  <Pocket>  (874) 
nan

>  <ATP_Site>  (874) 
nan

>  <Peripheral>  (874) 
nan

>  <Num_H_Atoms_ProtBoundConf>  (874) 
nan

>  <Num_Resolved_Atoms>  (874) 
nan

>  <Num_Not_Resolved_Atoms>  (874) 
nan

$$$$
CHEMBL2022121
     RDKit          3D

  0  0  0  0  0  0  0  0  0  0999 V3000
M  V30 BEGIN CTAB
M  V30 COUNTS 70 75 0 0 0
M  V30 BEGIN ATOM
M  V30 1 C 4.545294 1.182487 3.872534 0
M  V30 2 C 3.155132 0.651272 3.897283 0
M  V30 3 C 2.098063 1.298828 3.296231 0
M  V30 4 N 0.833140 0.900270 3.268794 0
M  V30 5 C -0.272202 1.428947 2.727293 0
M  V30 6 C -0.486227 2.642359 1.965737 0
M  V30 7 C 0.240831 3.688130 1.501064 0
M  V30 8 N -0.536792 4.559612 0.819369 0
M  V30 9 N -1.784332 4.123114 0.812304 0
M  V30 10 C -2.898057 4.794399 0.175433 0
M  V30 11 C -3.024081 4.319029 -1.226691 0
M  V30 12 O -2.061812 3.520545 -1.206874 0
M  V30 13 N -3.957173 4.688293 -2.223353 0
M  V30 14 C -3.668926 3.958534 -3.400723 0
M  V30 15 C -2.833183 4.298787 -4.447113 0
M  V30 16 C -2.668550 3.460563 -5.523091 0
M  V30 17 C -3.370228 2.271825 -5.512356 0
M  V30 18 C -4.213608 1.874646 -4.508141 0
M  V30 19 C -4.360530 2.747637 -3.427775 0
M  V30 20 C -1.764634 2.972584 1.498090 0
M  V30 21 C -1.234500 0.494074 3.078371 0
M  V30 22 N -0.691961 -0.508109 3.782034 0
M  V30 23 C 0.601533 -0.261671 3.905624 0
M  V30 24 C 1.599506 -0.975343 4.533338 0
M  V30 25 N 1.322545 -2.195806 5.196279 0
M  V30 26 C 1.391348 -3.475429 4.492267 0
M  V30 27 C 1.710196 -3.638805 3.191702 0
M  V30 28 C 1.703918 -4.945852 2.771581 0
M  V30 29 C 2.020910 -5.389707 1.365743 0
M  V30 30 N 0.796074 -5.423155 0.617760 0
M  V30 31 C 0.152917 -4.148609 0.553277 0
M  V30 32 C -0.835840 -4.162182 -0.603078 0
M  V30 33 C -0.028075 -4.184857 -1.882670 0
M  V30 34 C 1.144721 -5.111161 -1.762712 0
M  V30 35 C 1.352742 -5.835656 -3.057387 0
M  V30 36 C 0.905129 -6.100965 -0.637077 0
M  V30 37 N 1.385853 -6.002271 3.653887 0
M  V30 38 S 1.083401 -4.977265 5.183559 0
M  V30 39 N 2.875731 -0.525051 4.532672 0
M  V30 40 H 4.526336 2.276314 3.689141 0
M  V30 41 H 5.207982 0.654655 3.175394 0
M  V30 42 H 4.962061 1.039423 4.894876 0
M  V30 43 H 2.376684 2.213765 2.814668 0
M  V30 44 H 1.285918 3.807583 1.652788 0
M  V30 45 H -2.745406 5.868858 0.268921 0
M  V30 46 H -3.836414 4.532712 0.706024 0
M  V30 47 H -4.636298 5.407304 -1.862308 0
M  V30 48 H -2.345636 5.267860 -4.317206 0
M  V30 49 H -2.007312 3.766317 -6.315968 0
M  V30 50 H -3.261177 1.580300 -6.355508 0
M  V30 51 H -4.745713 0.918673 -4.552454 0
M  V30 52 H -5.043032 2.381743 -2.658362 0
M  V30 53 H -2.708299 2.427475 1.620303 0
M  V30 54 H -2.302816 0.496702 2.854927 0
M  V30 55 H 1.065812 -2.179841 6.202656 0
M  V30 56 H 1.951590 -2.833632 2.523082 0
M  V30 57 H 2.541690 -6.342523 1.353357 0
M  V30 58 H 2.702534 -4.604337 0.920283 0
M  V30 59 H 0.846504 -3.305307 0.377047 0
M  V30 60 H -0.466628 -4.028440 1.467194 0
M  V30 61 H -1.434858 -3.230716 -0.519473 0
M  V30 62 H -1.437781 -5.078643 -0.512906 0
M  V30 63 H 0.286201 -3.144872 -2.092944 0
M  V30 64 H -0.676901 -4.558744 -2.722866 0
M  V30 65 H 2.041454 -4.500899 -1.528840 0
M  V30 66 H 0.495741 -5.656672 -3.724262 0
M  V30 67 H 2.270340 -5.444097 -3.564932 0
M  V30 68 H 1.540150 -6.923883 -2.915226 0
M  V30 69 H -0.072829 -6.583267 -0.876118 0
M  V30 70 H 1.673599 -6.872172 -0.655969 0
M  V30 END ATOM
M  V30 BEGIN BOND
M  V30 1 1 1 2
M  V30 2 2 2 3
M  V30 3 1 3 4
M  V30 4 1 4 5
M  V30 5 1 5 6
M  V30 6 1 6 7
M  V30 7 2 7 8
M  V30 8 1 8 9
M  V30 9 1 9 10
M  V30 10 1 10 11
M  V30 11 2 11 12
M  V30 12 1 11 13
M  V30 13 1 13 14
M  V30 14 2 14 15
M  V30 15 1 15 16
M  V30 16 2 16 17
M  V30 17 1 17 18
M  V30 18 2 18 19
M  V30 19 1 9 20
M  V30 20 2 5 21
M  V30 21 1 21 22
M  V30 22 2 22 23
M  V30 23 1 23 24
M  V30 24 1 24 25
M  V30 25 1 25 26
M  V30 26 2 26 27
M  V30 27 1 27 28
M  V30 28 1 28 29
M  V30 29 1 29 30
M  V30 30 1 30 31
M  V30 31 1 31 32
M  V30 32 1 32 33
M  V30 33 1 33 34
M  V30 34 1 34 35
M  V30 35 1 34 36
M  V30 36 2 28 37
M  V30 37 1 37 38
M  V30 38 2 24 39
M  V30 39 1 39 2
M  V30 40 1 23 4
M  V30 41 1 38 26
M  V30 42 2 20 6
M  V30 43 1 36 30
M  V30 44 1 19 14
M  V30 45 1 1 40
M  V30 46 1 1 41
M  V30 47 1 1 42
M  V30 48 1 3 43
M  V30 49 1 7 44
M  V30 50 1 10 45
M  V30 51 1 10 46
M  V30 52 1 13 47
M  V30 53 1 15 48
M  V30 54 1 16 49
M  V30 55 1 17 50
M  V30 56 1 18 51
M  V30 57 1 19 52
M  V30 58 1 20 53
M  V30 59 1 21 54
M  V30 60 1 25 55
M  V30 61 1 27 56
M  V30 62 1 29 57
M  V30 63 1 29 58
M  V30 64 1 31 59
M  V30 65 1 31 60
M  V30 66 1 32 61
M  V30 67 1 32 62
M  V30 68 1 33 63
M  V30 69 1 33 64
M  V30 70 1 34 65
M  V30 71 1 35 66
M  V30 72 1 35 67
M  V30 73 1 35 68
M  V30 74 1 36 69
M  V30 75 1 36 70
M  V30 END BOND
M  V30 END CTAB
M  END
>  <Dataset>  (875) 
ChEMBL_Kinases

>  <Ligand_Instance>  (875) 
nan

>  <PDB_ID>  (875) 
nan

>  <Standardized_SMILES>  (875) 
Cc1cn2c(-c3cnn(CC(=O)Nc4ccccc4)c3)cnc2c(Nc2cc(CN3CCCC(C)C3)ns2)n1

>  <Name>  (875) 
nan

>  <Pocket>  (875) 
nan

>  <ATP_Site>  (875) 
nan

>  <Peripheral>  (875) 
nan

>  <Num_H_Atoms_ProtBoundConf>  (875) 
nan

>  <Num_Resolved_Atoms>  (875) 
nan

>  <Num_Not_Resolved_Atoms>  (875) 
nan

$$$$
CHEMBL2022120
     RDKit          3D

  0  0  0  0  0  0  0  0  0  0999 V3000
M  V30 BEGIN CTAB
M  V30 COUNTS 73 78 0 0 0
M  V30 BEGIN ATOM
M  V30 1 C 1.938897 -1.715185 6.800713 0
M  V30 2 C 1.954119 -1.956828 5.325191 0
M  V30 3 C 1.835026 -0.968084 4.375215 0
M  V30 4 N 1.843062 -1.133655 3.054457 0
M  V30 5 C 1.740226 -0.274653 2.043710 0
M  V30 6 C 1.550331 1.157834 1.981837 0
M  V30 7 C 1.411665 2.174376 2.884292 0
M  V30 8 N 1.254278 3.345329 2.255426 0
M  V30 9 N 1.281070 3.170050 0.952090 0
M  V30 10 C 1.097417 4.158425 -0.099464 0
M  V30 11 C -0.343777 4.169865 -0.543229 0
M  V30 12 O -0.489519 3.806142 -1.737738 0
M  V30 13 N -1.358020 4.565996 0.369702 0
M  V30 14 C -2.760907 4.570837 -0.073165 0
M  V30 15 C -3.311729 3.195654 -0.183961 0
M  V30 16 C -3.818772 2.466435 0.873020 0
M  V30 17 C -4.334262 1.196972 0.716841 0
M  V30 18 C -4.373725 0.578254 -0.516367 0
M  V30 19 C -3.879621 1.268538 -1.598264 0
M  V30 20 C -3.357196 2.558861 -1.429981 0
M  V30 21 C 1.461558 1.844539 0.774038 0
M  V30 22 C 1.834294 -1.107806 0.920586 0
M  V30 23 N 1.979655 -2.375934 1.324171 0
M  V30 24 C 1.986067 -2.410902 2.666219 0
M  V30 25 C 2.112710 -3.484487 3.509782 0
M  V30 26 N 2.216330 -4.843679 3.013422 0
M  V30 27 C 1.004135 -4.927942 2.119901 0
M  V30 28 C 1.056253 -4.991962 0.775338 0
M  V30 29 C -0.141816 -5.016722 0.158475 0
M  V30 30 C -0.298742 -5.114981 -1.349523 0
M  V30 31 N -0.088476 -3.862851 -1.971457 0
M  V30 32 C -0.934895 -2.832655 -1.506120 0
M  V30 33 C -0.680765 -1.503341 -2.188802 0
M  V30 34 C 0.489063 -1.545497 -3.129665 0
M  V30 35 C 0.537336 -2.739310 -4.045297 0
M  V30 36 C -0.179433 -2.495133 -5.348243 0
M  V30 37 C -0.058094 -3.973317 -3.393156 0
M  V30 38 N -1.345559 -4.980698 0.880038 0
M  V30 39 S -0.646011 -4.901773 2.601697 0
M  V30 40 N 2.094768 -3.233559 4.853992 0
M  V30 41 H 1.360871 -2.522417 7.273413 0
M  V30 42 H 1.515739 -0.718996 7.039320 0
M  V30 43 H 2.982530 -1.843560 7.191086 0
M  V30 44 H 1.727794 0.005108 4.776658 0
M  V30 45 H 1.424476 2.078030 3.950563 0
M  V30 46 H 1.324837 5.163774 0.308700 0
M  V30 47 H 1.806862 3.940423 -0.893949 0
M  V30 48 H -1.105265 4.853514 1.358384 0
M  V30 49 H -2.803511 5.021559 -1.107105 0
M  V30 50 H -3.415800 5.178284 0.569584 0
M  V30 51 H -3.807687 2.905754 1.851609 0
M  V30 52 H -4.731056 0.621312 1.542926 0
M  V30 53 H -4.758208 -0.415134 -0.730386 0
M  V30 54 H -3.895467 0.810229 -2.591210 0
M  V30 55 H -3.008704 3.015273 -2.320462 0
M  V30 56 H 1.519716 1.440716 -0.246948 0
M  V30 57 H 1.807048 -0.880129 -0.155433 0
M  V30 58 H 2.897765 -5.620017 3.162158 0
M  V30 59 H 1.994690 -5.018005 0.245740 0
M  V30 60 H -1.276150 -5.571972 -1.615643 0
M  V30 61 H 0.458081 -5.903541 -1.643816 0
M  V30 62 H -1.998001 -3.107690 -1.671537 0
M  V30 63 H -0.814329 -2.740105 -0.388543 0
M  V30 64 H -1.590353 -1.146021 -2.707998 0
M  V30 65 H -0.452460 -0.769979 -1.394615 0
M  V30 66 H 0.427796 -0.640994 -3.781455 0
M  V30 67 H 1.458794 -1.447099 -2.577430 0
M  V30 68 H 1.593700 -2.954966 -4.280521 0
M  V30 69 H -1.078154 -1.868499 -5.082765 0
M  V30 70 H 0.476264 -1.840977 -5.959524 0
M  V30 71 H -0.474005 -3.436868 -5.809037 0
M  V30 72 H 0.498181 -4.867303 -3.698847 0
M  V30 73 H -1.102203 -4.062479 -3.765510 0
M  V30 END ATOM
M  V30 BEGIN BOND
M  V30 1 1 1 2
M  V30 2 2 2 3
M  V30 3 1 3 4
M  V30 4 1 4 5
M  V30 5 1 5 6
M  V30 6 1 6 7
M  V30 7 2 7 8
M  V30 8 1 8 9
M  V30 9 1 9 10
M  V30 10 1 10 11
M  V30 11 2 11 12
M  V30 12 1 11 13
M  V30 13 1 13 14
M  V30 14 1 14 15
M  V30 15 2 15 16
M  V30 16 1 16 17
M  V30 17 2 17 18
M  V30 18 1 18 19
M  V30 19 2 19 20
M  V30 20 1 9 21
M  V30 21 2 5 22
M  V30 22 1 22 23
M  V30 23 2 23 24
M  V30 24 1 24 25
M  V30 25 1 25 26
M  V30 26 1 26 27
M  V30 27 2 27 28
M  V30 28 1 28 29
M  V30 29 1 29 30
M  V30 30 1 30 31
M  V30 31 1 31 32
M  V30 32 1 32 33
M  V30 33 1 33 34
M  V30 34 1 34 35
M  V30 35 1 35 36
M  V30 36 1 35 37
M  V30 37 2 29 38
M  V30 38 1 38 39
M  V30 39 2 25 40
M  V30 40 1 40 2
M  V30 41 1 24 4
M  V30 42 1 39 27
M  V30 43 2 21 6
M  V30 44 1 37 31
M  V30 45 1 20 15
M  V30 46 1 1 41
M  V30 47 1 1 42
M  V30 48 1 1 43
M  V30 49 1 3 44
M  V30 50 1 7 45
M  V30 51 1 10 46
M  V30 52 1 10 47
M  V30 53 1 13 48
M  V30 54 1 14 49
M  V30 55 1 14 50
M  V30 56 1 16 51
M  V30 57 1 17 52
M  V30 58 1 18 53
M  V30 59 1 19 54
M  V30 60 1 20 55
M  V30 61 1 21 56
M  V30 62 1 22 57
M  V30 63 1 26 58
M  V30 64 1 28 59
M  V30 65 1 30 60
M  V30 66 1 30 61
M  V30 67 1 32 62
M  V30 68 1 32 63
M  V30 69 1 33 64
M  V30 70 1 33 65
M  V30 71 1 34 66
M  V30 72 1 34 67
M  V30 73 1 35 68
M  V30 74 1 36 69
M  V30 75 1 36 70
M  V30 76 1 36 71
M  V30 77 1 37 72
M  V30 78 1 37 73
M  V30 END BOND
M  V30 END CTAB
M  END
>  <Dataset>  (876) 
ChEMBL_Kinases

>  <Ligand_Instance>  (876) 
nan

>  <PDB_ID>  (876) 
nan

>  <Standardized_SMILES>  (876) 
Cc1cn2c(-c3cnn(CC(=O)NCc4ccccc4)c3)cnc2c(Nc2cc(CN3CCCC(C)C3)ns2)n1

>  <Name>  (876) 
nan

>  <Pocket>  (876) 
nan

>  <ATP_Site>  (876) 
nan

>  <Peripheral>  (876) 
nan

>  <Num_H_Atoms_ProtBoundConf>  (876) 
nan

>  <Num_Resolved_Atoms>  (876) 
nan

>  <Num_Not_Resolved_Atoms>  (876) 
nan

$$$$
CHEMBL2018882
     RDKit          3D

  0  0  0  0  0  0  0  0  0  0999 V3000
M  V30 BEGIN CTAB
M  V30 COUNTS 51 54 0 0 0
M  V30 BEGIN ATOM
M  V30 1 C 4.263960 -5.510663 0.832140 0
M  V30 2 O 3.215685 -4.582506 0.766338 0
M  V30 3 C 3.454720 -3.228406 0.636261 0
M  V30 4 C 4.765951 -2.755266 0.567007 0
M  V30 5 C 5.037861 -1.413059 0.437395 0
M  V30 6 N 6.241717 -0.842355 0.361116 0
M  V30 7 C 6.381109 0.470287 0.236747 0
M  V30 8 N 5.299164 1.276137 0.183084 0
M  V30 9 C 4.019482 0.790128 0.252998 0
M  V30 10 O 3.165369 1.826118 0.173597 0
M  V30 11 C 1.829517 2.002459 0.183732 0
M  V30 12 C 1.094062 2.213587 1.359447 0
M  V30 13 C -0.268779 2.404591 1.470529 0
M  V30 14 C -0.974885 2.383074 0.283992 0
M  V30 15 N -2.382047 2.578464 0.380108 0
M  V30 16 C -3.150913 1.393685 0.543782 0
M  V30 17 O -2.547637 0.296033 0.589775 0
M  V30 18 N -4.587163 1.336705 0.664027 0
M  V30 19 C -5.183990 0.036477 0.823811 0
M  V30 20 C -5.619995 -0.816442 -0.171132 0
M  V30 21 C -6.168216 -2.029770 0.193781 0
M  V30 22 C -6.271697 -2.369336 1.530577 0
M  V30 23 C -5.842091 -1.532763 2.554876 0
M  V30 24 Br -6.007796 -2.049351 4.383351 0
M  V30 25 C -5.297870 -0.325723 2.163137 0
M  V30 26 C -0.362203 2.183766 -0.937325 0
M  V30 27 C 1.005553 2.001489 -0.951575 0
M  V30 28 C 3.950559 -0.577904 0.381118 0
M  V30 29 C 2.643722 -1.001726 0.445711 0
M  V30 30 C 2.369659 -2.345565 0.575512 0
M  V30 31 O 1.104292 -2.895171 0.650969 0
M  V30 32 C -0.083502 -2.169283 0.606809 0
M  V30 33 H 4.725737 -5.661952 -0.169408 0
M  V30 34 H 5.023684 -5.123178 1.563763 0
M  V30 35 H 3.959951 -6.492900 1.206281 0
M  V30 36 H 5.618372 -3.420380 0.612046 0
M  V30 37 H 7.413649 0.785825 0.187424 0
M  V30 38 H 1.707485 2.221077 2.274594 0
M  V30 39 H -0.680622 2.554641 2.457679 0
M  V30 40 H -2.915462 3.477539 0.345555 0
M  V30 41 H -5.086156 2.255776 0.625052 0
M  V30 42 H -5.484980 -0.438119 -1.173035 0
M  V30 43 H -6.500098 -2.675138 -0.607742 0
M  V30 44 H -6.701871 -3.321643 1.819332 0
M  V30 45 H -4.974460 0.298017 3.004234 0
M  V30 46 H -0.920522 2.168053 -1.862114 0
M  V30 47 H 1.530003 1.839727 -1.905520 0
M  V30 48 H 1.788134 -0.387208 0.405242 0
M  V30 49 H -0.449151 -2.031059 -0.450678 0
M  V30 50 H -0.875909 -2.753353 1.127970 0
M  V30 51 H -0.023679 -1.170143 1.092288 0
M  V30 END ATOM
M  V30 BEGIN BOND
M  V30 1 1 1 2
M  V30 2 1 2 3
M  V30 3 2 3 4
M  V30 4 1 4 5
M  V30 5 2 5 6
M  V30 6 1 6 7
M  V30 7 2 7 8
M  V30 8 1 8 9
M  V30 9 1 9 10
M  V30 10 1 10 11
M  V30 11 2 11 12
M  V30 12 1 12 13
M  V30 13 2 13 14
M  V30 14 1 14 15
M  V30 15 1 15 16
M  V30 16 2 16 17
M  V30 17 1 16 18
M  V30 18 1 18 19
M  V30 19 2 19 20
M  V30 20 1 20 21
M  V30 21 2 21 22
M  V30 22 1 22 23
M  V30 23 1 23 24
M  V30 24 2 23 25
M  V30 25 1 14 26
M  V30 26 2 26 27
M  V30 27 2 9 28
M  V30 28 1 28 29
M  V30 29 2 29 30
M  V30 30 1 30 31
M  V30 31 1 31 32
M  V30 32 1 30 3
M  V30 33 1 28 5
M  V30 34 1 27 11
M  V30 35 1 25 19
M  V30 36 1 1 33
M  V30 37 1 1 34
M  V30 38 1 1 35
M  V30 39 1 4 36
M  V30 40 1 7 37
M  V30 41 1 12 38
M  V30 42 1 13 39
M  V30 43 1 15 40
M  V30 44 1 18 41
M  V30 45 1 20 42
M  V30 46 1 21 43
M  V30 47 1 22 44
M  V30 48 1 25 45
M  V30 49 1 26 46
M  V30 50 1 27 47
M  V30 51 1 29 48
M  V30 52 1 32 49
M  V30 53 1 32 50
M  V30 54 1 32 51
M  V30 END BOND
M  V30 END CTAB
M  END
>  <Dataset>  (877) 
ChEMBL_Kinases

>  <Ligand_Instance>  (877) 
nan

>  <PDB_ID>  (877) 
nan

>  <Standardized_SMILES>  (877) 
COc1cc2ncnc(Oc3ccc(NC(=O)Nc4cccc(Br)c4)cc3)c2cc1OC

>  <Name>  (877) 
nan

>  <Pocket>  (877) 
nan

>  <ATP_Site>  (877) 
nan

>  <Peripheral>  (877) 
nan

>  <Num_H_Atoms_ProtBoundConf>  (877) 
nan

>  <Num_Resolved_Atoms>  (877) 
nan

>  <Num_Not_Resolved_Atoms>  (877) 
nan

$$$$
CHEMBL2017619
     RDKit          3D

  0  0  0  0  0  0  0  0  0  0999 V3000
M  V30 BEGIN CTAB
M  V30 COUNTS 59 63 0 0 0
M  V30 BEGIN ATOM
M  V30 1 O 1.416071 0.402844 4.786673 0
M  V30 2 C 1.158905 -0.251036 3.753528 0
M  V30 3 C 2.181175 -0.413722 2.694777 0
M  V30 4 C 3.107942 -1.339297 2.258288 0
M  V30 5 C 3.716057 -0.757855 1.170335 0
M  V30 6 C 3.136429 0.499417 0.985109 0
M  V30 7 C 3.527001 1.413801 -0.082800 0
M  V30 8 C 2.912764 2.643007 -0.201025 0
M  V30 9 C 3.252519 3.546394 -1.206413 0
M  V30 10 C 4.244048 3.227513 -2.142010 0
M  V30 11 Cl 4.691513 4.329462 -3.408529 0
M  V30 12 C 4.809683 1.983762 -1.957805 0
M  V30 13 C 4.518929 1.057594 -0.993670 0
M  V30 14 O 2.229099 0.657392 1.918155 0
M  V30 15 N -0.086714 -0.914561 3.427228 0
M  V30 16 C -1.268535 -0.906444 4.250592 0
M  V30 17 C -2.149377 0.219823 3.839937 0
M  V30 18 C -2.129235 1.520438 4.329303 0
M  V30 19 C -3.023937 2.432016 3.842416 0
M  V30 20 N -3.912147 2.071981 2.900990 0
M  V30 21 C -3.962024 0.824620 2.403763 0
M  V30 22 C -3.067809 -0.147343 2.868479 0
M  V30 23 C -0.283442 -1.677639 2.215052 0
M  V30 24 C -0.171901 -3.034337 2.018372 0
M  V30 25 C -0.374294 -3.554119 0.761629 0
M  V30 26 C -0.681290 -2.718529 -0.267189 0
M  V30 27 N -0.914059 -3.223353 -1.584980 0
M  V30 28 C -1.268261 -4.586419 -1.954141 0
M  V30 29 C -2.622270 -4.471739 -2.621813 0
M  V30 30 N -3.135280 -3.106099 -2.603398 0
M  V30 31 C -2.229116 -2.191599 -3.274205 0
M  V30 32 C -0.808973 -2.401420 -2.783909 0
M  V30 33 C -0.804288 -1.341304 -0.113148 0
M  V30 34 C -0.595973 -0.826216 1.171818 0
M  V30 35 H 3.143266 -2.247313 2.828084 0
M  V30 36 H 4.485448 -1.293229 0.647700 0
M  V30 37 H 2.136903 2.943096 0.500035 0
M  V30 38 H 2.785216 4.528656 -1.328583 0
M  V30 39 H 5.584853 1.738557 -2.695205 0
M  V30 40 H 5.025621 0.104768 -0.938033 0
M  V30 41 H -0.922702 -0.686568 5.302164 0
M  V30 42 H -1.803945 -1.874720 4.226927 0
M  V30 43 H -1.345579 1.617734 5.079692 0
M  V30 44 H -2.911809 3.407375 4.296702 0
M  V30 45 H -4.706675 0.578942 1.635243 0
M  V30 46 H -3.186962 -1.124939 2.410477 0
M  V30 47 H 0.076281 -3.563168 2.925983 0
M  V30 48 H -0.276861 -4.608777 0.659115 0
M  V30 49 H -1.262158 -5.299211 -1.115729 0
M  V30 50 H -0.529257 -4.922652 -2.710706 0
M  V30 51 H -3.333741 -5.094084 -2.062346 0
M  V30 52 H -2.582870 -4.858389 -3.673082 0
M  V30 53 H -4.060250 -3.084841 -3.037283 0
M  V30 54 H -2.280077 -2.272392 -4.381336 0
M  V30 55 H -2.503222 -1.149829 -3.013782 0
M  V30 56 H -0.275359 -2.941509 -3.607091 0
M  V30 57 H -0.244858 -1.464187 -2.626236 0
M  V30 58 H -1.049990 -0.683337 -0.940310 0
M  V30 59 H -0.705614 0.268048 1.225736 0
M  V30 END ATOM
M  V30 BEGIN BOND
M  V30 1 2 1 2
M  V30 2 1 2 3
M  V30 3 2 3 4
M  V30 4 1 4 5
M  V30 5 2 5 6
M  V30 6 1 6 7
M  V30 7 2 7 8
M  V30 8 1 8 9
M  V30 9 2 9 10
M  V30 10 1 10 11
M  V30 11 1 10 12
M  V30 12 2 12 13
M  V30 13 1 6 14
M  V30 14 1 2 15
M  V30 15 1 15 16
M  V30 16 1 16 17
M  V30 17 2 17 18
M  V30 18 1 18 19
M  V30 19 2 19 20
M  V30 20 1 20 21
M  V30 21 2 21 22
M  V30 22 1 15 23
M  V30 23 2 23 24
M  V30 24 1 24 25
M  V30 25 2 25 26
M  V30 26 1 26 27
M  V30 27 1 27 28
M  V30 28 1 28 29
M  V30 29 1 29 30
M  V30 30 1 30 31
M  V30 31 1 31 32
M  V30 32 1 26 33
M  V30 33 2 33 34
M  V30 34 1 14 3
M  V30 35 1 22 17
M  V30 36 1 34 23
M  V30 37 1 13 7
M  V30 38 1 32 27
M  V30 39 1 4 35
M  V30 40 1 5 36
M  V30 41 1 8 37
M  V30 42 1 9 38
M  V30 43 1 12 39
M  V30 44 1 13 40
M  V30 45 1 16 41
M  V30 46 1 16 42
M  V30 47 1 18 43
M  V30 48 1 19 44
M  V30 49 1 21 45
M  V30 50 1 22 46
M  V30 51 1 24 47
M  V30 52 1 25 48
M  V30 53 1 28 49
M  V30 54 1 28 50
M  V30 55 1 29 51
M  V30 56 1 29 52
M  V30 57 1 30 53
M  V30 58 1 31 54
M  V30 59 1 31 55
M  V30 60 1 32 56
M  V30 61 1 32 57
M  V30 62 1 33 58
M  V30 63 1 34 59
M  V30 END BOND
M  V30 END CTAB
M  END
>  <Dataset>  (878) 
ChEMBL_Kinases

>  <Ligand_Instance>  (878) 
nan

>  <PDB_ID>  (878) 
nan

>  <Standardized_SMILES>  (878) 
O=C(c1ccc(-c2ccc(Cl)cc2)o1)N(Cc1ccncc1)c1ccc(N2CCNCC2)cc1

>  <Name>  (878) 
nan

>  <Pocket>  (878) 
nan

>  <ATP_Site>  (878) 
nan

>  <Peripheral>  (878) 
nan

>  <Num_H_Atoms_ProtBoundConf>  (878) 
nan

>  <Num_Resolved_Atoms>  (878) 
nan

>  <Num_Not_Resolved_Atoms>  (878) 
nan

$$$$
CHEMBL2017463
     RDKit          3D

  0  0  0  0  0  0  0  0  0  0999 V3000
M  V30 BEGIN CTAB
M  V30 COUNTS 60 64 0 0 0
M  V30 BEGIN ATOM
M  V30 1 C 3.030683 -3.840115 3.029345 0
M  V30 2 N 3.686692 -2.569509 3.106220 0
M  V30 3 C 4.112935 -1.835105 4.177540 0
M  V30 4 C 4.680356 -0.719784 3.613846 0
M  V30 5 N 4.599867 -0.783866 2.286931 0
M  V30 6 C 3.970021 -1.953315 1.955145 0
M  V30 7 C 3.857205 -1.984509 0.465102 0
M  V30 8 N 2.736555 -1.153216 0.028008 0
M  V30 9 C 3.332992 0.170657 0.001936 0
M  V30 10 O 4.492474 0.508700 -0.210238 0
M  V30 11 C 2.313652 1.217976 0.304616 0
M  V30 12 C 2.745066 2.549333 0.186149 0
M  V30 13 C 1.699738 3.427325 0.502360 0
M  V30 14 C 0.675647 2.570901 0.795555 0
M  V30 15 C -0.713539 2.741159 1.196130 0
M  V30 16 C -1.628616 1.730693 1.344104 0
M  V30 17 C -2.938314 2.025762 1.740340 0
M  V30 18 C -3.317088 3.349760 1.985606 0
M  V30 19 Cl -4.990012 3.669866 2.487035 0
M  V30 20 C -2.396111 4.384904 1.839136 0
M  V30 21 C -1.124777 4.025122 1.447317 0
M  V30 22 O 1.075422 1.349055 0.669316 0
M  V30 23 C 1.440077 -1.627821 -0.243724 0
M  V30 24 C 0.919398 -2.824090 0.114462 0
M  V30 25 C -0.347777 -3.213928 -0.238833 0
M  V30 26 C -1.179921 -2.387106 -0.995129 0
M  V30 27 N -2.470759 -2.919249 -1.290310 0
M  V30 28 C -2.731052 -4.072395 -2.153915 0
M  V30 29 C -4.146742 -3.891721 -2.678948 0
M  V30 30 N -4.387846 -2.499592 -3.022450 0
M  V30 31 C -4.417622 -1.675342 -1.834812 0
M  V30 32 C -3.669329 -2.349011 -0.708331 0
M  V30 33 C -0.663419 -1.159117 -1.373263 0
M  V30 34 C 0.613179 -0.793855 -1.004336 0
M  V30 35 H 3.232354 -4.371489 2.103765 0
M  V30 36 H 1.935853 -3.621874 3.082346 0
M  V30 37 H 3.267465 -4.457735 3.926769 0
M  V30 38 H 3.983896 -2.148984 5.195458 0
M  V30 39 H 5.128544 0.106230 4.199607 0
M  V30 40 H 3.652429 -3.052439 0.148979 0
M  V30 41 H 4.781256 -1.732790 -0.017775 0
M  V30 42 H 3.690493 3.053571 -0.087517 0
M  V30 43 H 1.562266 4.485568 0.553251 0
M  V30 44 H -1.298689 0.709282 1.143503 0
M  V30 45 H -3.624115 1.172039 1.839550 0
M  V30 46 H -2.699168 5.414758 2.028606 0
M  V30 47 H -0.467811 4.884971 1.349392 0
M  V30 48 H 1.517806 -3.497034 0.679418 0
M  V30 49 H -0.684793 -4.169632 0.069382 0
M  V30 50 H -2.731358 -5.025733 -1.585438 0
M  V30 51 H -1.999589 -4.136847 -2.970866 0
M  V30 52 H -4.361111 -4.480140 -3.591747 0
M  V30 53 H -4.876883 -4.124626 -1.873748 0
M  V30 54 H -5.351532 -2.472876 -3.442648 0
M  V30 55 H -5.454760 -1.531128 -1.444401 0
M  V30 56 H -3.899470 -0.698447 -2.002806 0
M  V30 57 H -4.290655 -3.120850 -0.204716 0
M  V30 58 H -3.352288 -1.605053 0.052862 0
M  V30 59 H -1.374300 -0.564190 -1.959462 0
M  V30 60 H 0.811802 0.171918 -1.448803 0
M  V30 END ATOM
M  V30 BEGIN BOND
M  V30 1 1 1 2
M  V30 2 1 2 3
M  V30 3 2 3 4
M  V30 4 1 4 5
M  V30 5 2 5 6
M  V30 6 1 6 7
M  V30 7 1 7 8
M  V30 8 1 8 9
M  V30 9 2 9 10
M  V30 10 1 9 11
M  V30 11 2 11 12
M  V30 12 1 12 13
M  V30 13 2 13 14
M  V30 14 1 14 15
M  V30 15 2 15 16
M  V30 16 1 16 17
M  V30 17 2 17 18
M  V30 18 1 18 19
M  V30 19 1 18 20
M  V30 20 2 20 21
M  V30 21 1 14 22
M  V30 22 1 8 23
M  V30 23 2 23 24
M  V30 24 1 24 25
M  V30 25 2 25 26
M  V30 26 1 26 27
M  V30 27 1 27 28
M  V30 28 1 28 29
M  V30 29 1 29 30
M  V30 30 1 30 31
M  V30 31 1 31 32
M  V30 32 1 26 33
M  V30 33 2 33 34
M  V30 34 1 6 2
M  V30 35 1 22 11
M  V30 36 1 34 23
M  V30 37 1 21 15
M  V30 38 1 32 27
M  V30 39 1 1 35
M  V30 40 1 1 36
M  V30 41 1 1 37
M  V30 42 1 3 38
M  V30 43 1 4 39
M  V30 44 1 7 40
M  V30 45 1 7 41
M  V30 46 1 12 42
M  V30 47 1 13 43
M  V30 48 1 16 44
M  V30 49 1 17 45
M  V30 50 1 20 46
M  V30 51 1 21 47
M  V30 52 1 24 48
M  V30 53 1 25 49
M  V30 54 1 28 50
M  V30 55 1 28 51
M  V30 56 1 29 52
M  V30 57 1 29 53
M  V30 58 1 30 54
M  V30 59 1 31 55
M  V30 60 1 31 56
M  V30 61 1 32 57
M  V30 62 1 32 58
M  V30 63 1 33 59
M  V30 64 1 34 60
M  V30 END BOND
M  V30 END CTAB
M  END
>  <Dataset>  (879) 
ChEMBL_Kinases

>  <Ligand_Instance>  (879) 
nan

>  <PDB_ID>  (879) 
nan

>  <Standardized_SMILES>  (879) 
Cn1ccnc1CN(C(=O)c1ccc(-c2ccc(Cl)cc2)o1)c1ccc(N2CCNCC2)cc1

>  <Name>  (879) 
nan

>  <Pocket>  (879) 
nan

>  <ATP_Site>  (879) 
nan

>  <Peripheral>  (879) 
nan

>  <Num_H_Atoms_ProtBoundConf>  (879) 
nan

>  <Num_Resolved_Atoms>  (879) 
nan

>  <Num_Not_Resolved_Atoms>  (879) 
nan

$$$$
CHEMBL2017462
     RDKit          3D

  0  0  0  0  0  0  0  0  0  0999 V3000
M  V30 BEGIN CTAB
M  V30 COUNTS 59 62 0 0 0
M  V30 BEGIN ATOM
M  V30 1 C 0.477101 0.748937 5.341490 0
M  V30 2 C 1.269603 0.444284 4.078338 0
M  V30 3 C 1.627458 -1.010937 4.147497 0
M  V30 4 C 2.414089 -1.473923 2.969638 0
M  V30 5 N 1.766236 -1.328906 1.703267 0
M  V30 6 C 1.651412 -0.367623 0.667296 0
M  V30 7 O 0.881512 -1.062301 -0.079764 0
M  V30 8 C 2.096588 0.963218 0.293133 0
M  V30 9 C 3.318564 1.594866 0.094271 0
M  V30 10 C 2.940347 2.873863 -0.248551 0
M  V30 11 C 1.549017 2.973889 -0.246734 0
M  V30 12 C 0.823515 4.221919 -0.574009 0
M  V30 13 C 1.535116 5.364730 -0.899629 0
M  V30 14 C 0.768997 6.467478 -1.187754 0
M  V30 15 C -0.591707 6.538446 -1.182290 0
M  V30 16 Cl -1.420327 8.049247 -1.581453 0
M  V30 17 C -1.275171 5.374082 -0.851140 0
M  V30 18 C -0.554010 4.212991 -0.546220 0
M  V30 19 O 1.123329 1.781476 0.089355 0
M  V30 20 C 0.926432 -2.300901 1.075082 0
M  V30 21 C -0.441078 -2.292928 1.343486 0
M  V30 22 C -1.326127 -3.201124 0.769107 0
M  V30 23 C -0.863376 -4.158550 -0.103965 0
M  V30 24 N -1.759331 -5.086894 -0.692263 0
M  V30 25 C -3.137936 -5.275998 -0.396034 0
M  V30 26 C -4.047842 -5.131640 -1.577728 0
M  V30 27 N -3.408574 -4.963339 -2.830699 0
M  V30 28 C -2.105883 -5.496754 -2.983208 0
M  V30 29 C -1.455239 -6.038575 -1.740844 0
M  V30 30 C 0.483539 -4.169746 -0.370691 0
M  V30 31 C 1.382250 -3.282624 0.184097 0
M  V30 32 H -0.191140 -0.146984 5.481367 0
M  V30 33 H -0.211810 1.608440 5.179899 0
M  V30 34 H 1.131225 0.919483 6.199606 0
M  V30 35 H 2.194650 1.050611 4.067984 0
M  V30 36 H 0.633001 0.689014 3.211955 0
M  V30 37 H 2.283046 -1.144930 5.042405 0
M  V30 38 H 0.725092 -1.638687 4.329476 0
M  V30 39 H 2.809183 -2.483802 3.087552 0
M  V30 40 H 3.329718 -0.812225 2.924706 0
M  V30 41 H 4.223446 1.030979 0.229197 0
M  V30 42 H 3.716907 3.617059 -0.468839 0
M  V30 43 H 2.626541 5.389526 -0.926208 0
M  V30 44 H 1.331234 7.371406 -1.446149 0
M  V30 45 H -2.358170 5.440350 -0.849601 0
M  V30 46 H -1.130563 3.310754 -0.289496 0
M  V30 47 H -0.790580 -1.532855 2.032244 0
M  V30 48 H -2.354364 -3.074696 1.067797 0
M  V30 49 H -3.438406 -4.635897 0.452446 0
M  V30 50 H -3.257874 -6.326737 0.006736 0
M  V30 51 H -4.690574 -4.241963 -1.391041 0
M  V30 52 H -4.743790 -5.993229 -1.653939 0
M  V30 53 H -3.495469 -4.028318 -3.280642 0
M  V30 54 H -2.151004 -6.327911 -3.733743 0
M  V30 55 H -1.440513 -4.721918 -3.418904 0
M  V30 56 H -1.758045 -7.079378 -1.509714 0
M  V30 57 H -0.367735 -6.065767 -1.945434 0
M  V30 58 H 0.955618 -4.868910 -1.033929 0
M  V30 59 H 2.440738 -3.285010 -0.019260 0
M  V30 END ATOM
M  V30 BEGIN BOND
M  V30 1 1 1 2
M  V30 2 1 2 3
M  V30 3 1 3 4
M  V30 4 1 4 5
M  V30 5 1 5 6
M  V30 6 2 6 7
M  V30 7 1 6 8
M  V30 8 2 8 9
M  V30 9 1 9 10
M  V30 10 2 10 11
M  V30 11 1 11 12
M  V30 12 2 12 13
M  V30 13 1 13 14
M  V30 14 2 14 15
M  V30 15 1 15 16
M  V30 16 1 15 17
M  V30 17 2 17 18
M  V30 18 1 11 19
M  V30 19 1 5 20
M  V30 20 2 20 21
M  V30 21 1 21 22
M  V30 22 2 22 23
M  V30 23 1 23 24
M  V30 24 1 24 25
M  V30 25 1 25 26
M  V30 26 1 26 27
M  V30 27 1 27 28
M  V30 28 1 28 29
M  V30 29 1 23 30
M  V30 30 2 30 31
M  V30 31 1 19 8
M  V30 32 1 31 20
M  V30 33 1 18 12
M  V30 34 1 29 24
M  V30 35 1 1 32
M  V30 36 1 1 33
M  V30 37 1 1 34
M  V30 38 1 2 35
M  V30 39 1 2 36
M  V30 40 1 3 37
M  V30 41 1 3 38
M  V30 42 1 4 39
M  V30 43 1 4 40
M  V30 44 1 9 41
M  V30 45 1 10 42
M  V30 46 1 13 43
M  V30 47 1 14 44
M  V30 48 1 17 45
M  V30 49 1 18 46
M  V30 50 1 21 47
M  V30 51 1 22 48
M  V30 52 1 25 49
M  V30 53 1 25 50
M  V30 54 1 26 51
M  V30 55 1 26 52
M  V30 56 1 27 53
M  V30 57 1 28 54
M  V30 58 1 28 55
M  V30 59 1 29 56
M  V30 60 1 29 57
M  V30 61 1 30 58
M  V30 62 1 31 59
M  V30 END BOND
M  V30 END CTAB
M  END
>  <Dataset>  (880) 
ChEMBL_Kinases

>  <Ligand_Instance>  (880) 
nan

>  <PDB_ID>  (880) 
nan

>  <Standardized_SMILES>  (880) 
CCCCN(C(=O)c1ccc(-c2ccc(Cl)cc2)o1)c1ccc(N2CCNCC2)cc1

>  <Name>  (880) 
nan

>  <Pocket>  (880) 
nan

>  <ATP_Site>  (880) 
nan

>  <Peripheral>  (880) 
nan

>  <Num_H_Atoms_ProtBoundConf>  (880) 
nan

>  <Num_Resolved_Atoms>  (880) 
nan

>  <Num_Not_Resolved_Atoms>  (880) 
nan

$$$$
CHEMBL2017461
     RDKit          3D

  0  0  0  0  0  0  0  0  0  0999 V3000
M  V30 BEGIN CTAB
M  V30 COUNTS 56 59 0 0 0
M  V30 BEGIN ATOM
M  V30 1 C 2.069686 -1.786250 3.387652 0
M  V30 2 C 1.948781 -2.228649 1.941700 0
M  V30 3 C 3.265081 -2.318455 1.242082 0
M  V30 4 N 1.059135 -1.327993 1.208410 0
M  V30 5 C 0.779171 -0.042493 0.682080 0
M  V30 6 O -0.359621 -0.181942 0.191068 0
M  V30 7 C 1.519322 1.200251 0.645263 0
M  V30 8 C 2.782453 1.057571 0.119200 0
M  V30 9 C 3.415061 2.309089 0.124008 0
M  V30 10 C 2.433487 3.137542 0.678655 0
M  V30 11 C 2.561550 4.572080 0.917949 0
M  V30 12 C 1.509276 5.266599 1.471319 0
M  V30 13 C 1.663103 6.621387 1.675856 0
M  V30 14 C 2.824921 7.299134 1.347757 0
M  V30 15 Cl 3.071891 9.015975 1.584954 0
M  V30 16 C 3.892549 6.592374 0.785719 0
M  V30 17 C 3.734963 5.219157 0.579351 0
M  V30 18 O 1.328353 2.450908 0.974927 0
M  V30 19 C -0.187602 -1.896091 0.744634 0
M  V30 20 C -1.338221 -1.958416 1.520255 0
M  V30 21 C -2.492341 -2.514982 0.997341 0
M  V30 22 C -2.548294 -3.018847 -0.284682 0
M  V30 23 N -3.715792 -3.604531 -0.849378 0
M  V30 24 C -3.976773 -3.855677 -2.235938 0
M  V30 25 C -4.417904 -5.236714 -2.577674 0
M  V30 26 N -5.127816 -5.944512 -1.564382 0
M  V30 27 C -4.811787 -5.603002 -0.214570 0
M  V30 28 C -4.873994 -4.072455 -0.082149 0
M  V30 29 C -1.429477 -2.979854 -1.096489 0
M  V30 30 C -0.271414 -2.412476 -0.546846 0
M  V30 31 H 1.219434 -2.204983 3.959402 0
M  V30 32 H 1.948666 -0.688786 3.434318 0
M  V30 33 H 3.003823 -2.117922 3.861681 0
M  V30 34 H 1.495894 -3.250854 1.990963 0
M  V30 35 H 3.715989 -3.330455 1.387823 0
M  V30 36 H 3.097501 -2.203741 0.152733 0
M  V30 37 H 3.951450 -1.505654 1.587504 0
M  V30 38 H 3.409852 0.256373 -0.291639 0
M  V30 39 H 4.384009 2.680601 -0.181919 0
M  V30 40 H 0.591009 4.761668 1.736561 0
M  V30 41 H 0.875916 7.219552 2.105823 0
M  V30 42 H 4.809680 7.102493 0.521026 0
M  V30 43 H 4.593160 4.702449 0.138490 0
M  V30 44 H -1.284835 -1.561459 2.522968 0
M  V30 45 H -3.358345 -2.542619 1.630495 0
M  V30 46 H -4.781921 -3.115616 -2.536613 0
M  V30 47 H -3.126192 -3.594835 -2.898307 0
M  V30 48 H -3.565663 -5.798959 -3.025244 0
M  V30 49 H -5.137575 -5.136362 -3.446721 0
M  V30 50 H -4.909139 -6.971470 -1.698360 0
M  V30 51 H -5.552765 -6.053882 0.453157 0
M  V30 52 H -3.802660 -5.941711 0.058294 0
M  V30 53 H -4.757733 -3.863047 0.999456 0
M  V30 54 H -5.824614 -3.729491 -0.486097 0
M  V30 55 H -1.306097 -3.328194 -2.109443 0
M  V30 56 H 0.626915 -2.347685 -1.111579 0
M  V30 END ATOM
M  V30 BEGIN BOND
M  V30 1 1 1 2
M  V30 2 1 2 3
M  V30 3 1 2 4
M  V30 4 1 4 5
M  V30 5 2 5 6
M  V30 6 1 5 7
M  V30 7 2 7 8
M  V30 8 1 8 9
M  V30 9 2 9 10
M  V30 10 1 10 11
M  V30 11 2 11 12
M  V30 12 1 12 13
M  V30 13 2 13 14
M  V30 14 1 14 15
M  V30 15 1 14 16
M  V30 16 2 16 17
M  V30 17 1 10 18
M  V30 18 1 4 19
M  V30 19 2 19 20
M  V30 20 1 20 21
M  V30 21 2 21 22
M  V30 22 1 22 23
M  V30 23 1 23 24
M  V30 24 1 24 25
M  V30 25 1 25 26
M  V30 26 1 26 27
M  V30 27 1 27 28
M  V30 28 1 22 29
M  V30 29 2 29 30
M  V30 30 1 18 7
M  V30 31 1 30 19
M  V30 32 1 17 11
M  V30 33 1 28 23
M  V30 34 1 1 31
M  V30 35 1 1 32
M  V30 36 1 1 33
M  V30 37 1 2 34
M  V30 38 1 3 35
M  V30 39 1 3 36
M  V30 40 1 3 37
M  V30 41 1 8 38
M  V30 42 1 9 39
M  V30 43 1 12 40
M  V30 44 1 13 41
M  V30 45 1 16 42
M  V30 46 1 17 43
M  V30 47 1 20 44
M  V30 48 1 21 45
M  V30 49 1 24 46
M  V30 50 1 24 47
M  V30 51 1 25 48
M  V30 52 1 25 49
M  V30 53 1 26 50
M  V30 54 1 27 51
M  V30 55 1 27 52
M  V30 56 1 28 53
M  V30 57 1 28 54
M  V30 58 1 29 55
M  V30 59 1 30 56
M  V30 END BOND
M  V30 END CTAB
M  END
>  <Dataset>  (881) 
ChEMBL_Kinases

>  <Ligand_Instance>  (881) 
nan

>  <PDB_ID>  (881) 
nan

>  <Standardized_SMILES>  (881) 
CC(C)N(C(=O)c1ccc(-c2ccc(Cl)cc2)o1)c1ccc(N2CCNCC2)cc1

>  <Name>  (881) 
nan

>  <Pocket>  (881) 
nan

>  <ATP_Site>  (881) 
nan

>  <Peripheral>  (881) 
nan

>  <Num_H_Atoms_ProtBoundConf>  (881) 
nan

>  <Num_Resolved_Atoms>  (881) 
nan

>  <Num_Not_Resolved_Atoms>  (881) 
nan

$$$$
CHEMBL201426
     RDKit          3D

  0  0  0  0  0  0  0  0  0  0999 V3000
M  V30 BEGIN CTAB
M  V30 COUNTS 38 39 0 0 0
M  V30 BEGIN ATOM
M  V30 1 C -0.298309 -5.805716 0.032954 0
M  V30 2 C -0.042669 -4.307319 0.176421 0
M  V30 3 O -0.072451 -3.631754 -0.980526 0
M  V30 4 N 0.159388 -2.352389 -1.057614 0
M  V30 5 C 0.483471 -1.344356 -0.113745 0
M  V30 6 O 0.534607 -1.901841 0.998543 0
M  V30 7 C 0.675540 0.002403 -0.561601 0
M  V30 8 C 0.571603 0.348316 -1.884575 0
M  V30 9 N 0.770082 1.626965 -2.246759 0
M  V30 10 C 0.649493 1.959087 -3.673489 0
M  V30 11 C 1.073075 2.588380 -1.326247 0
M  V30 12 O 1.229213 3.734923 -1.821890 0
M  V30 13 C 1.178967 2.236054 0.020890 0
M  V30 14 F 1.497079 3.349755 0.739879 0
M  V30 15 C 0.976817 0.914452 0.423435 0
M  V30 16 N 1.129733 0.760533 1.799510 0
M  V30 17 C 0.357598 0.699390 2.974836 0
M  V30 18 C 0.391164 -0.393271 3.821151 0
M  V30 19 C -0.336483 -0.540268 4.978231 0
M  V30 20 C -1.171692 0.501844 5.315915 0
M  V30 21 Br -2.206291 0.353250 6.910341 0
M  V30 22 C -1.270050 1.634972 4.529250 0
M  V30 23 C -0.500877 1.691292 3.386872 0
M  V30 24 F -0.657350 2.812954 2.683651 0
M  V30 25 H -0.810932 -6.159209 0.948362 0
M  V30 26 H -0.846011 -6.035281 -0.900590 0
M  V30 27 H 0.650470 -6.377454 -0.042735 0
M  V30 28 H 0.986605 -4.241115 0.595196 0
M  V30 29 H -0.688114 -3.885396 1.002989 0
M  V30 30 H 0.032461 -2.252303 -2.093339 0
M  V30 31 H 0.336038 -0.360140 -2.660348 0
M  V30 32 H 1.427178 1.446725 -4.267913 0
M  V30 33 H 0.675570 3.051715 -3.779903 0
M  V30 34 H -0.377022 1.649446 -3.964517 0
M  V30 35 H 2.144562 0.654570 2.060199 0
M  V30 36 H 1.040567 -1.254646 3.605923 0
M  V30 37 H -0.275863 -1.412759 5.605517 0
M  V30 38 H -1.942449 2.417063 4.847905 0
M  V30 END ATOM
M  V30 BEGIN BOND
M  V30 1 1 1 2
M  V30 2 1 2 3
M  V30 3 1 3 4
M  V30 4 1 4 5
M  V30 5 2 5 6
M  V30 6 1 5 7
M  V30 7 2 7 8
M  V30 8 1 8 9
M  V30 9 1 9 10
M  V30 10 1 9 11
M  V30 11 2 11 12
M  V30 12 1 11 13
M  V30 13 1 13 14
M  V30 14 2 13 15
M  V30 15 1 15 16
M  V30 16 1 16 17
M  V30 17 2 17 18
M  V30 18 1 18 19
M  V30 19 2 19 20
M  V30 20 1 20 21
M  V30 21 1 20 22
M  V30 22 2 22 23
M  V30 23 1 23 24
M  V30 24 1 15 7
M  V30 25 1 23 17
M  V30 26 1 1 25
M  V30 27 1 1 26
M  V30 28 1 1 27
M  V30 29 1 2 28
M  V30 30 1 2 29
M  V30 31 1 4 30
M  V30 32 1 8 31
M  V30 33 1 10 32
M  V30 34 1 10 33
M  V30 35 1 10 34
M  V30 36 1 16 35
M  V30 37 1 18 36
M  V30 38 1 19 37
M  V30 39 1 22 38
M  V30 END BOND
M  V30 END CTAB
M  END
>  <Dataset>  (882) 
ChEMBL_Kinases

>  <Ligand_Instance>  (882) 
nan

>  <PDB_ID>  (882) 
nan

>  <Standardized_SMILES>  (882) 
CCONC(=O)c1cn(C)c(=O)c(F)c1Nc1ccc(Br)cc1F

>  <Name>  (882) 
nan

>  <Pocket>  (882) 
nan

>  <ATP_Site>  (882) 
nan

>  <Peripheral>  (882) 
nan

>  <Num_H_Atoms_ProtBoundConf>  (882) 
nan

>  <Num_Resolved_Atoms>  (882) 
nan

>  <Num_Not_Resolved_Atoms>  (882) 
nan

$$$$
CHEMBL201597
     RDKit          3D

  0  0  0  0  0  0  0  0  0  0999 V3000
M  V30 BEGIN CTAB
M  V30 COUNTS 47 51 0 0 0
M  V30 BEGIN ATOM
M  V30 1 C -2.240965 2.978048 6.000537 0
M  V30 2 O -1.410507 2.282002 6.911710 0
M  V30 3 C -0.534652 1.338897 6.396741 0
M  V30 4 C -0.299865 0.934588 5.109188 0
M  V30 5 C 0.596285 -0.019191 4.697860 0
M  V30 6 C 0.689020 -0.277673 3.264570 0
M  V30 7 C 0.980209 -1.518150 2.744594 0
M  V30 8 C 1.078944 -1.741356 1.363131 0
M  V30 9 C 0.866925 -0.640560 0.551319 0
M  V30 10 C 0.575994 0.606834 1.059686 0
M  V30 11 C 0.483977 0.800608 2.422554 0
M  V30 12 N 0.421715 1.504452 -0.037911 0
M  V30 13 C 0.625631 0.771234 -1.243159 0
M  V30 14 O 0.542331 1.336018 -2.339691 0
M  V30 15 C 0.913486 -0.610666 -0.904568 0
M  V30 16 C 1.115024 -1.593785 -1.764612 0
M  V30 17 C 1.132307 -1.360696 -3.223054 0
M  V30 18 C 1.785817 -0.494853 -4.074432 0
M  V30 19 N 1.332338 -0.735124 -5.315624 0
M  V30 20 C 0.418849 -1.720557 -5.273450 0
M  V30 21 N -0.293974 -2.278977 -6.267493 0
M  V30 22 C -1.186761 -3.272797 -6.032922 0
M  V30 23 C -1.945005 -3.856174 -7.093763 0
M  V30 24 N -2.559143 -4.327981 -7.981813 0
M  V30 25 C -1.405032 -3.761993 -4.740687 0
M  V30 26 C -0.644499 -3.145843 -3.776917 0
M  V30 27 C 0.270418 -2.136863 -3.968207 0
M  V30 28 C 1.333767 -0.624796 5.725922 0
M  V30 29 C 1.144126 -0.260735 7.044116 0
M  V30 30 C 0.225655 0.705107 7.377635 0
M  V30 31 O 0.167741 0.943380 8.751889 0
M  V30 32 H -2.584094 2.228709 5.260215 0
M  V30 33 H -3.084183 3.474245 6.518884 0
M  V30 34 H -1.648893 3.750979 5.488136 0
M  V30 35 H -0.925194 1.464682 4.386560 0
M  V30 36 H 1.131423 -2.322914 3.449915 0
M  V30 37 H 1.308611 -2.724881 0.978534 0
M  V30 38 H 0.251410 1.812294 2.781356 0
M  V30 39 H 0.198683 2.513224 0.072771 0
M  V30 40 H 1.275151 -2.609870 -1.387801 0
M  V30 41 H 2.522605 0.200357 -3.699800 0
M  V30 42 H 1.715241 -0.165814 -6.117343 0
M  V30 43 H -2.099513 -4.548487 -4.483535 0
M  V30 44 H -0.787098 -3.499259 -2.764335 0
M  V30 45 H 2.032608 -1.378698 5.333449 0
M  V30 46 H 1.807741 -0.844361 7.660712 0
M  V30 47 H -0.704570 0.883126 9.260727 0
M  V30 END ATOM
M  V30 BEGIN BOND
M  V30 1 1 1 2
M  V30 2 1 2 3
M  V30 3 2 3 4
M  V30 4 1 4 5
M  V30 5 1 5 6
M  V30 6 2 6 7
M  V30 7 1 7 8
M  V30 8 2 8 9
M  V30 9 1 9 10
M  V30 10 2 10 11
M  V30 11 1 10 12
M  V30 12 1 12 13
M  V30 13 2 13 14
M  V30 14 1 13 15
M  V30 15 2 15 16
M  V30 16 1 16 17
M  V30 17 2 17 18
M  V30 18 1 18 19
M  V30 19 1 19 20
M  V30 20 2 20 21
M  V30 21 1 21 22
M  V30 22 1 22 23
M  V30 23 3 23 24
M  V30 24 2 22 25
M  V30 25 1 25 26
M  V30 26 2 26 27
M  V30 27 2 5 28
M  V30 28 1 28 29
M  V30 29 2 29 30
M  V30 30 1 30 31
M  V30 31 1 30 3
M  V30 32 1 11 6
M  V30 33 1 27 17
M  V30 34 1 15 9
M  V30 35 1 27 20
M  V30 36 1 1 32
M  V30 37 1 1 33
M  V30 38 1 1 34
M  V30 39 1 4 35
M  V30 40 1 7 36
M  V30 41 1 8 37
M  V30 42 1 11 38
M  V30 43 1 12 39
M  V30 44 1 16 40
M  V30 45 1 18 41
M  V30 46 1 19 42
M  V30 47 1 25 43
M  V30 48 1 26 44
M  V30 49 1 28 45
M  V30 50 1 29 46
M  V30 51 1 31 47
M  V30 END BOND
M  V30 END CTAB
M  END
>  <Dataset>  (883) 
ChEMBL_Kinases

>  <Ligand_Instance>  (883) 
nan

>  <PDB_ID>  (883) 
nan

>  <Standardized_SMILES>  (883) 
COc1cc(-c2ccc3c(c2)NC(=O)/C3=C\c2c[nH]c3nc(C#N)ccc23)ccc1O

>  <Name>  (883) 
nan

>  <Pocket>  (883) 
nan

>  <ATP_Site>  (883) 
nan

>  <Peripheral>  (883) 
nan

>  <Num_H_Atoms_ProtBoundConf>  (883) 
nan

>  <Num_Resolved_Atoms>  (883) 
nan

>  <Num_Not_Resolved_Atoms>  (883) 
nan

$$$$
CHEMBL201629
     RDKit          3D

  0  0  0  0  0  0  0  0  0  0999 V3000
M  V30 BEGIN CTAB
M  V30 COUNTS 42 44 0 0 0
M  V30 BEGIN ATOM
M  V30 1 C 2.799683 -5.197617 1.622752 0
M  V30 2 N 1.807525 -4.228466 1.178314 0
M  V30 3 C 2.037264 -2.884742 1.123092 0
M  V30 4 C 1.042234 -2.034995 0.689685 0
M  V30 5 C 1.253113 -0.601524 0.618918 0
M  V30 6 O 0.321762 0.143447 0.218609 0
M  V30 7 N 2.448583 0.085320 0.967220 0
M  V30 8 O 2.293536 1.414070 0.779257 0
M  V30 9 C 2.670436 1.730347 -0.510091 0
M  V30 10 C 2.524075 3.210459 -0.800727 0
M  V30 11 C 3.307649 4.135792 0.038210 0
M  V30 12 C 1.805325 4.089735 0.150540 0
M  V30 13 C -0.203853 -2.479879 0.299102 0
M  V30 14 N -1.240816 -1.613282 -0.150754 0
M  V30 15 C -2.217010 -1.006377 0.689903 0
M  V30 16 C -2.133684 -1.292713 2.037153 0
M  V30 17 C -3.109650 -0.677530 2.827487 0
M  V30 18 C -4.068281 0.151630 2.242957 0
M  V30 19 Br -5.400579 0.990590 3.326883 0
M  V30 20 C -4.088918 0.394613 0.868151 0
M  V30 21 C -3.135157 -0.199158 0.050937 0
M  V30 22 F -3.106990 -0.001897 -1.272977 0
M  V30 23 C -0.431543 -3.861068 0.358823 0
M  V30 24 F -1.641035 -4.314159 -0.018146 0
M  V30 25 C 0.594226 -4.676130 0.799473 0
M  V30 26 O 0.282474 -5.900005 0.813952 0
M  V30 27 H 2.798674 -6.105489 1.013338 0
M  V30 28 H 3.773197 -4.657346 1.657037 0
M  V30 29 H 2.615402 -5.527416 2.675900 0
M  V30 30 H 3.009116 -2.528563 1.426784 0
M  V30 31 H 3.253038 -0.507153 1.307825 0
M  V30 32 H 2.129722 1.115013 -1.278769 0
M  V30 33 H 3.755756 1.511173 -0.676758 0
M  V30 34 H 2.374522 3.442656 -1.862169 0
M  V30 35 H 3.759451 5.061409 -0.424486 0
M  V30 36 H 3.865030 3.732931 0.925165 0
M  V30 37 H 1.328552 3.593942 1.019854 0
M  V30 38 H 1.252582 4.965886 -0.229044 0
M  V30 39 H -1.179236 -1.489247 -1.185989 0
M  V30 40 H -1.364084 -1.942923 2.412893 0
M  V30 41 H -3.094786 -0.865229 3.894474 0
M  V30 42 H -4.822409 1.031348 0.406933 0
M  V30 END ATOM
M  V30 BEGIN BOND
M  V30 1 1 1 2
M  V30 2 1 2 3
M  V30 3 2 3 4
M  V30 4 1 4 5
M  V30 5 2 5 6
M  V30 6 1 5 7
M  V30 7 1 7 8
M  V30 8 1 8 9
M  V30 9 1 9 10
M  V30 10 1 10 11
M  V30 11 1 11 12
M  V30 12 1 4 13
M  V30 13 1 13 14
M  V30 14 1 14 15
M  V30 15 2 15 16
M  V30 16 1 16 17
M  V30 17 2 17 18
M  V30 18 1 18 19
M  V30 19 1 18 20
M  V30 20 2 20 21
M  V30 21 1 21 22
M  V30 22 2 13 23
M  V30 23 1 23 24
M  V30 24 1 23 25
M  V30 25 2 25 26
M  V30 26 1 25 2
M  V30 27 1 12 10
M  V30 28 1 21 15
M  V30 29 1 1 27
M  V30 30 1 1 28
M  V30 31 1 1 29
M  V30 32 1 3 30
M  V30 33 1 7 31
M  V30 34 1 9 32
M  V30 35 1 9 33
M  V30 36 1 10 34
M  V30 37 1 11 35
M  V30 38 1 11 36
M  V30 39 1 12 37
M  V30 40 1 12 38
M  V30 41 1 14 39
M  V30 42 1 16 40
M  V30 43 1 17 41
M  V30 44 1 20 42
M  V30 END BOND
M  V30 END CTAB
M  END
>  <Dataset>  (884) 
ChEMBL_Kinases

>  <Ligand_Instance>  (884) 
nan

>  <PDB_ID>  (884) 
nan

>  <Standardized_SMILES>  (884) 
Cn1cc(C(=O)NOCC2CC2)c(Nc2ccc(Br)cc2F)c(F)c1=O

>  <Name>  (884) 
nan

>  <Pocket>  (884) 
nan

>  <ATP_Site>  (884) 
nan

>  <Peripheral>  (884) 
nan

>  <Num_H_Atoms_ProtBoundConf>  (884) 
nan

>  <Num_Resolved_Atoms>  (884) 
nan

>  <Num_Not_Resolved_Atoms>  (884) 
nan

$$$$
CHEMBL201630
     RDKit          3D

  0  0  0  0  0  0  0  0  0  0999 V3000
M  V30 BEGIN CTAB
M  V30 COUNTS 45 47 0 0 0
M  V30 BEGIN ATOM
M  V30 1 C 1.136869 -2.449214 -2.572975 0
M  V30 2 C 0.309068 -2.482225 -1.342731 0
M  V30 3 C 0.420186 -1.468561 -0.422222 0
M  V30 4 N 1.332212 -0.417733 -0.683841 0
M  V30 5 C 1.295071 0.735874 -1.539183 0
M  V30 6 C 2.379719 0.651439 -2.424022 0
M  V30 7 C 2.611137 1.618349 -3.380532 0
M  V30 8 C 1.756514 2.696915 -3.472093 0
M  V30 9 Br 1.892117 4.136460 -4.713232 0
M  V30 10 C 0.699131 2.767141 -2.600259 0
M  V30 11 C 0.453095 1.817755 -1.644876 0
M  V30 12 F -0.539305 1.770816 -0.750232 0
M  V30 13 C -0.366262 -1.564006 0.680215 0
M  V30 14 C -0.294253 -0.554274 1.722761 0
M  V30 15 O 0.477367 0.437429 1.738894 0
M  V30 16 N -1.113680 -0.579824 2.871690 0
M  V30 17 O -1.118736 0.309747 3.888643 0
M  V30 18 C -0.209463 -0.087677 4.893526 0
M  V30 19 C -0.208955 0.904346 6.036912 0
M  V30 20 C 0.174175 2.287948 5.664476 0
M  V30 21 C 1.116078 1.434380 6.435008 0
M  V30 22 C -1.223836 -2.628334 0.845992 0
M  V30 23 N -1.308146 -3.603263 -0.074895 0
M  V30 24 C -2.191518 -4.742599 0.049782 0
M  V30 25 C -0.553916 -3.560656 -1.182736 0
M  V30 26 O -0.596417 -4.459974 -2.085449 0
M  V30 27 H 0.840922 -1.650040 -3.278574 0
M  V30 28 H 2.215543 -2.331868 -2.345332 0
M  V30 29 H 1.069048 -3.405555 -3.140330 0
M  V30 30 H 2.189730 -0.597450 -0.084736 0
M  V30 31 H 3.152102 -0.130736 -2.490444 0
M  V30 32 H 3.419190 1.626929 -4.095362 0
M  V30 33 H -0.035520 3.580773 -2.590733 0
M  V30 34 H -1.816547 -1.312231 3.050262 0
M  V30 35 H -0.565781 -1.054168 5.307406 0
M  V30 36 H 0.807238 -0.243203 4.470593 0
M  V30 37 H -0.926301 0.765844 6.870485 0
M  V30 38 H 0.417257 2.548512 4.597573 0
M  V30 39 H -0.385966 3.105550 6.159931 0
M  V30 40 H 2.023229 1.075271 5.906873 0
M  V30 41 H 1.331633 1.671367 7.511732 0
M  V30 42 H -1.883401 -2.790050 1.681294 0
M  V30 43 H -1.686315 -5.664506 0.404483 0
M  V30 44 H -2.646710 -5.011799 -0.935021 0
M  V30 45 H -3.018770 -4.525901 0.781424 0
M  V30 END ATOM
M  V30 BEGIN BOND
M  V30 1 1 1 2
M  V30 2 2 2 3
M  V30 3 1 3 4
M  V30 4 1 4 5
M  V30 5 2 5 6
M  V30 6 1 6 7
M  V30 7 2 7 8
M  V30 8 1 8 9
M  V30 9 1 8 10
M  V30 10 2 10 11
M  V30 11 1 11 12
M  V30 12 1 3 13
M  V30 13 1 13 14
M  V30 14 2 14 15
M  V30 15 1 14 16
M  V30 16 1 16 17
M  V30 17 1 17 18
M  V30 18 1 18 19
M  V30 19 1 19 20
M  V30 20 1 20 21
M  V30 21 2 13 22
M  V30 22 1 22 23
M  V30 23 1 23 24
M  V30 24 1 23 25
M  V30 25 2 25 26
M  V30 26 1 25 2
M  V30 27 1 11 5
M  V30 28 1 21 19
M  V30 29 1 1 27
M  V30 30 1 1 28
M  V30 31 1 1 29
M  V30 32 1 4 30
M  V30 33 1 6 31
M  V30 34 1 7 32
M  V30 35 1 10 33
M  V30 36 1 16 34
M  V30 37 1 18 35
M  V30 38 1 18 36
M  V30 39 1 19 37
M  V30 40 1 20 38
M  V30 41 1 20 39
M  V30 42 1 21 40
M  V30 43 1 21 41
M  V30 44 1 22 42
M  V30 45 1 24 43
M  V30 46 1 24 44
M  V30 47 1 24 45
M  V30 END BOND
M  V30 END CTAB
M  END
>  <Dataset>  (885) 
ChEMBL_Kinases

>  <Ligand_Instance>  (885) 
nan

>  <PDB_ID>  (885) 
nan

>  <Standardized_SMILES>  (885) 
Cc1c(Nc2ccc(Br)cc2F)c(C(=O)NOCC2CC2)cn(C)c1=O

>  <Name>  (885) 
nan

>  <Pocket>  (885) 
nan

>  <ATP_Site>  (885) 
nan

>  <Peripheral>  (885) 
nan

>  <Num_H_Atoms_ProtBoundConf>  (885) 
nan

>  <Num_Resolved_Atoms>  (885) 
nan

>  <Num_Not_Resolved_Atoms>  (885) 
nan

$$$$
CHEMBL201649
     RDKit          3D

  0  0  0  0  0  0  0  0  0  0999 V3000
M  V30 BEGIN CTAB
M  V30 COUNTS 38 41 0 0 0
M  V30 BEGIN ATOM
M  V30 1 N 1.123104 -7.577498 2.654947 0
M  V30 2 C 0.992476 -6.209867 2.281200 0
M  V30 3 C 0.988210 -5.871365 0.924325 0
M  V30 4 C 0.860101 -4.540116 0.544785 0
M  V30 5 C 0.737909 -3.558633 1.508183 0
M  V30 6 C 0.596892 -2.124859 1.285385 0
M  V30 7 C 1.038684 -1.110928 2.106236 0
M  V30 8 C 0.864314 0.229358 1.819876 0
M  V30 9 C 0.196636 0.524258 0.620102 0
M  V30 10 C -0.271334 -0.443304 -0.247462 0
M  V30 11 C -0.048770 -1.754020 0.125224 0
M  V30 12 N -0.883258 0.237467 -1.336447 0
M  V30 13 C -0.785174 1.638055 -1.123697 0
M  V30 14 O -1.286672 2.330392 -2.016189 0
M  V30 15 C -0.086526 1.872012 0.145805 0
M  V30 16 C 0.151526 3.111236 0.541148 0
M  V30 17 C -0.261216 4.329962 -0.132964 0
M  V30 18 C -1.521075 4.688870 -0.620309 0
M  V30 19 C -1.389701 5.961904 -1.185074 0
M  V30 20 N -0.124562 6.386719 -1.063915 0
M  V30 21 C 0.558967 5.413086 -0.432893 0
M  V30 22 C 0.739802 -3.867393 2.848125 0
M  V30 23 C 0.866270 -5.189406 3.231254 0
M  V30 24 H 1.905836 -8.227758 2.889425 0
M  V30 25 H 0.099910 -7.859976 2.649841 0
M  V30 26 H 1.079386 -6.597425 0.126738 0
M  V30 27 H 0.842912 -4.172481 -0.480985 0
M  V30 28 H 1.545352 -1.444326 3.016324 0
M  V30 29 H 1.225333 0.990067 2.492949 0
M  V30 30 H -0.424768 -2.518838 -0.569903 0
M  V30 31 H -1.301306 -0.361867 -2.108360 0
M  V30 32 H 0.713100 3.153600 1.466853 0
M  V30 33 H -2.448222 4.171775 -0.589910 0
M  V30 34 H -2.225900 6.510084 -1.652255 0
M  V30 35 H 0.262108 7.298031 -1.395938 0
M  V30 36 H 1.611236 5.496787 -0.204864 0
M  V30 37 H 0.653057 -3.187008 3.693239 0
M  V30 38 H 0.880085 -5.547730 4.271379 0
M  V30 END ATOM
M  V30 BEGIN BOND
M  V30 1 1 1 2
M  V30 2 2 2 3
M  V30 3 1 3 4
M  V30 4 2 4 5
M  V30 5 1 5 6
M  V30 6 2 6 7
M  V30 7 1 7 8
M  V30 8 2 8 9
M  V30 9 1 9 10
M  V30 10 2 10 11
M  V30 11 1 10 12
M  V30 12 1 12 13
M  V30 13 2 13 14
M  V30 14 1 13 15
M  V30 15 2 15 16
M  V30 16 1 16 17
M  V30 17 1 17 18
M  V30 18 2 18 19
M  V30 19 1 19 20
M  V30 20 1 20 21
M  V30 21 1 5 22
M  V30 22 2 22 23
M  V30 23 1 23 2
M  V30 24 1 11 6
M  V30 25 2 21 17
M  V30 26 1 15 9
M  V30 27 1 1 24
M  V30 28 1 1 25
M  V30 29 1 3 26
M  V30 30 1 4 27
M  V30 31 1 7 28
M  V30 32 1 8 29
M  V30 33 1 11 30
M  V30 34 1 12 31
M  V30 35 1 16 32
M  V30 36 1 18 33
M  V30 37 1 19 34
M  V30 38 1 20 35
M  V30 39 1 21 36
M  V30 40 1 22 37
M  V30 41 1 23 38
M  V30 END BOND
M  V30 END CTAB
M  END
>  <Dataset>  (886) 
ChEMBL_Kinases

>  <Ligand_Instance>  (886) 
nan

>  <PDB_ID>  (886) 
nan

>  <Standardized_SMILES>  (886) 
Nc1ccc(-c2ccc3c(c2)NC(=O)/C3=C\c2cc[nH]c2)cc1

>  <Name>  (886) 
nan

>  <Pocket>  (886) 
nan

>  <ATP_Site>  (886) 
nan

>  <Peripheral>  (886) 
nan

>  <Num_H_Atoms_ProtBoundConf>  (886) 
nan

>  <Num_Resolved_Atoms>  (886) 
nan

>  <Num_Not_Resolved_Atoms>  (886) 
nan

$$$$
CHEMBL2016642
     RDKit          3D

  0  0  0  0  0  0  0  0  0  0999 V3000
M  V30 BEGIN CTAB
M  V30 COUNTS 20 21 0 0 0
M  V30 BEGIN ATOM
M  V30 1 O -0.106339 -2.227046 4.460028 0
M  V30 2 C 0.301059 -1.201911 3.884558 0
M  V30 3 N 1.122433 -0.092640 4.224336 0
M  V30 4 C 1.498918 0.725301 3.142369 0
M  V30 5 O 2.223500 1.727729 3.358323 0
M  V30 6 C 1.010201 0.342920 1.827155 0
M  V30 7 C 1.407806 0.832035 0.666375 0
M  V30 8 C 0.722454 0.246929 -0.502061 0
M  V30 9 C 1.359495 -0.168142 -1.635786 0
M  V30 10 C 0.594199 -0.682390 -2.656969 0
M  V30 11 C -0.775298 -0.783531 -2.557508 0
M  V30 12 N -1.375242 -0.364630 -1.423541 0
M  V30 13 C -0.658687 0.142449 -0.406510 0
M  V30 14 S -0.214980 -0.951196 2.189760 0
M  V30 15 H 1.344874 -0.017172 5.239507 0
M  V30 16 H 2.179753 1.598559 0.692535 0
M  V30 17 H 2.436665 -0.049503 -1.631576 0
M  V30 18 H 1.126390 -1.009319 -3.555983 0
M  V30 19 H -1.383118 -1.194090 -3.364043 0
M  V30 20 H -1.253987 0.454530 0.442467 0
M  V30 END ATOM
M  V30 BEGIN BOND
M  V30 1 2 1 2
M  V30 2 1 2 3
M  V30 3 1 3 4
M  V30 4 2 4 5
M  V30 5 1 4 6
M  V30 6 2 6 7
M  V30 7 1 7 8
M  V30 8 2 8 9
M  V30 9 1 9 10
M  V30 10 2 10 11
M  V30 11 1 11 12
M  V30 12 2 12 13
M  V30 13 1 6 14
M  V30 14 1 14 2
M  V30 15 1 13 8
M  V30 16 1 3 15
M  V30 17 1 7 16
M  V30 18 1 9 17
M  V30 19 1 10 18
M  V30 20 1 11 19
M  V30 21 1 13 20
M  V30 END BOND
M  V30 END CTAB
M  END
>  <Dataset>  (887) 
ChEMBL_Kinases

>  <Ligand_Instance>  (887) 
nan

>  <PDB_ID>  (887) 
nan

>  <Standardized_SMILES>  (887) 
O=C1NC(=O)/C(=C/c2cccnc2)S1

>  <Name>  (887) 
nan

>  <Pocket>  (887) 
nan

>  <ATP_Site>  (887) 
nan

>  <Peripheral>  (887) 
nan

>  <Num_H_Atoms_ProtBoundConf>  (887) 
nan

>  <Num_Resolved_Atoms>  (887) 
nan

>  <Num_Not_Resolved_Atoms>  (887) 
nan

$$$$
CHEMBL201691
     RDKit          3D

  0  0  0  0  0  0  0  0  0  0999 V3000
M  V30 BEGIN CTAB
M  V30 COUNTS 34 35 0 0 0
M  V30 BEGIN ATOM
M  V30 1 C -1.369551 -4.315727 -0.459114 0
M  V30 2 N -0.186828 -3.520277 -0.191569 0
M  V30 3 C -0.253108 -2.267327 0.478520 0
M  V30 4 O -1.408125 -1.901932 0.820323 0
M  V30 5 C 0.887055 -1.414671 0.781745 0
M  V30 6 C 2.162801 -1.792208 0.417880 0
M  V30 7 N 3.163545 -0.927143 0.745625 0
M  V30 8 C 4.557448 -1.237307 0.402127 0
M  V30 9 C 2.985387 0.247955 1.389096 0
M  V30 10 O 3.936810 1.001776 1.664461 0
M  V30 11 C 1.681729 0.594078 1.739968 0
M  V30 12 F 1.536532 1.792328 2.391401 0
M  V30 13 C 0.599417 -0.237492 1.440433 0
M  V30 14 N -0.676912 0.187371 1.829376 0
M  V30 15 C -1.603807 0.969321 1.097739 0
M  V30 16 C -1.227532 1.380304 -0.165556 0
M  V30 17 C -2.169850 2.146146 -0.847048 0
M  V30 18 C -3.397351 2.456133 -0.261830 0
M  V30 19 Br -4.724738 3.500616 -1.148324 0
M  V30 20 C -3.716933 2.007932 1.023494 0
M  V30 21 C -2.802266 1.247327 1.721903 0
M  V30 22 F -3.065425 0.789707 2.969990 0
M  V30 23 H -2.254141 -3.740837 -0.092545 0
M  V30 24 H -1.292169 -5.249092 0.115002 0
M  V30 25 H -1.485086 -4.539962 -1.548790 0
M  V30 26 H 0.751488 -3.857032 -0.490321 0
M  V30 27 H 2.381420 -2.698136 -0.088676 0
M  V30 28 H 5.198541 -1.286088 1.305727 0
M  V30 29 H 4.923245 -0.410972 -0.245178 0
M  V30 30 H 4.630171 -2.167824 -0.197183 0
M  V30 31 H -0.843209 -0.182488 2.790943 0
M  V30 32 H -0.285218 1.131796 -0.592199 0
M  V30 33 H -1.975985 2.519353 -1.843780 0
M  V30 34 H -4.658962 2.230888 1.504604 0
M  V30 END ATOM
M  V30 BEGIN BOND
M  V30 1 1 1 2
M  V30 2 1 2 3
M  V30 3 2 3 4
M  V30 4 1 3 5
M  V30 5 2 5 6
M  V30 6 1 6 7
M  V30 7 1 7 8
M  V30 8 1 7 9
M  V30 9 2 9 10
M  V30 10 1 9 11
M  V30 11 1 11 12
M  V30 12 2 11 13
M  V30 13 1 13 14
M  V30 14 1 14 15
M  V30 15 2 15 16
M  V30 16 1 16 17
M  V30 17 2 17 18
M  V30 18 1 18 19
M  V30 19 1 18 20
M  V30 20 2 20 21
M  V30 21 1 21 22
M  V30 22 1 13 5
M  V30 23 1 21 15
M  V30 24 1 1 23
M  V30 25 1 1 24
M  V30 26 1 1 25
M  V30 27 1 2 26
M  V30 28 1 6 27
M  V30 29 1 8 28
M  V30 30 1 8 29
M  V30 31 1 8 30
M  V30 32 1 14 31
M  V30 33 1 16 32
M  V30 34 1 17 33
M  V30 35 1 20 34
M  V30 END BOND
M  V30 END CTAB
M  END
>  <Dataset>  (888) 
ChEMBL_Kinases

>  <Ligand_Instance>  (888) 
nan

>  <PDB_ID>  (888) 
nan

>  <Standardized_SMILES>  (888) 
CNC(=O)c1cn(C)c(=O)c(F)c1Nc1ccc(Br)cc1F

>  <Name>  (888) 
nan

>  <Pocket>  (888) 
nan

>  <ATP_Site>  (888) 
nan

>  <Peripheral>  (888) 
nan

>  <Num_H_Atoms_ProtBoundConf>  (888) 
nan

>  <Num_Resolved_Atoms>  (888) 
nan

>  <Num_Not_Resolved_Atoms>  (888) 
nan

$$$$
CHEMBL2017444
     RDKit          3D

  0  0  0  0  0  0  0  0  0  0999 V3000
M  V30 BEGIN CTAB
M  V30 COUNTS 47 50 0 0 0
M  V30 BEGIN ATOM
M  V30 1 O 1.157781 -2.819365 1.952107 0
M  V30 2 C 0.052594 -2.213862 1.982780 0
M  V30 3 N -0.233515 -0.950892 1.382272 0
M  V30 4 C 0.775858 -0.252227 0.665835 0
M  V30 5 C 0.878901 -0.512160 -0.679563 0
M  V30 6 C 1.817467 0.102414 -1.479359 0
M  V30 7 C 2.712291 1.018871 -0.972438 0
M  V30 8 N 3.710972 1.696753 -1.722284 0
M  V30 9 C 4.650894 2.683642 -1.281793 0
M  V30 10 C 4.652349 3.955831 -2.067116 0
M  V30 11 N 4.426587 3.824857 -3.467687 0
M  V30 12 C 3.570188 2.757815 -3.872785 0
M  V30 13 C 3.958105 1.489078 -3.133826 0
M  V30 14 C 2.606751 1.277431 0.376159 0
M  V30 15 C 1.667979 0.664628 1.183467 0
M  V30 16 C -1.032758 -2.900338 2.717709 0
M  V30 17 C -0.920652 -4.120669 3.351331 0
M  V30 18 C -2.139232 -4.427770 3.921751 0
M  V30 19 C -2.955636 -3.346304 3.596602 0
M  V30 20 C -4.349700 -3.296122 4.028573 0
M  V30 21 C -4.971756 -4.255743 4.760496 0
M  V30 22 C -6.309727 -4.140298 5.138499 0
M  V30 23 C -7.043348 -3.024583 4.768080 0
M  V30 24 Cl -8.734018 -2.903100 5.259235 0
M  V30 25 C -6.412342 -2.032894 4.015582 0
M  V30 26 C -5.086729 -2.170107 3.653614 0
M  V30 27 Cl -4.346279 -0.893916 2.709057 0
M  V30 28 O -2.275822 -2.453153 2.881737 0
M  V30 29 H -1.202118 -0.572286 1.492637 0
M  V30 30 H 0.204107 -1.227395 -1.153841 0
M  V30 31 H 1.848901 -0.141305 -2.524581 0
M  V30 32 H 4.506534 2.974921 -0.213689 0
M  V30 33 H 5.671889 2.211248 -1.395575 0
M  V30 34 H 5.688028 4.393507 -1.956068 0
M  V30 35 H 3.919258 4.651129 -1.600901 0
M  V30 36 H 5.248171 3.946002 -4.064818 0
M  V30 37 H 2.502839 2.983531 -3.846280 0
M  V30 38 H 3.810310 2.548357 -4.947323 0
M  V30 39 H 3.385275 0.648936 -3.551427 0
M  V30 40 H 5.037298 1.321854 -3.374398 0
M  V30 41 H 3.215507 1.958392 0.943220 0
M  V30 42 H 1.555670 0.845168 2.255302 0
M  V30 43 H -0.035876 -4.747529 3.404155 0
M  V30 44 H -2.413095 -5.304091 4.493473 0
M  V30 45 H -4.415078 -5.121562 5.051995 0
M  V30 46 H -6.777109 -4.920419 5.720804 0
M  V30 47 H -6.987624 -1.150544 3.720875 0
M  V30 END ATOM
M  V30 BEGIN BOND
M  V30 1 2 1 2
M  V30 2 1 2 3
M  V30 3 1 3 4
M  V30 4 2 4 5
M  V30 5 1 5 6
M  V30 6 2 6 7
M  V30 7 1 7 8
M  V30 8 1 8 9
M  V30 9 1 9 10
M  V30 10 1 10 11
M  V30 11 1 11 12
M  V30 12 1 12 13
M  V30 13 1 7 14
M  V30 14 2 14 15
M  V30 15 1 2 16
M  V30 16 2 16 17
M  V30 17 1 17 18
M  V30 18 2 18 19
M  V30 19 1 19 20
M  V30 20 2 20 21
M  V30 21 1 21 22
M  V30 22 2 22 23
M  V30 23 1 23 24
M  V30 24 1 23 25
M  V30 25 2 25 26
M  V30 26 1 26 27
M  V30 27 1 19 28
M  V30 28 1 15 4
M  V30 29 1 28 16
M  V30 30 1 13 8
M  V30 31 1 26 20
M  V30 32 1 3 29
M  V30 33 1 5 30
M  V30 34 1 6 31
M  V30 35 1 9 32
M  V30 36 1 9 33
M  V30 37 1 10 34
M  V30 38 1 10 35
M  V30 39 1 11 36
M  V30 40 1 12 37
M  V30 41 1 12 38
M  V30 42 1 13 39
M  V30 43 1 13 40
M  V30 44 1 14 41
M  V30 45 1 15 42
M  V30 46 1 17 43
M  V30 47 1 18 44
M  V30 48 1 21 45
M  V30 49 1 22 46
M  V30 50 1 25 47
M  V30 END BOND
M  V30 END CTAB
M  END
>  <Dataset>  (889) 
ChEMBL_Kinases

>  <Ligand_Instance>  (889) 
nan

>  <PDB_ID>  (889) 
nan

>  <Standardized_SMILES>  (889) 
O=C(Nc1ccc(N2CCNCC2)cc1)c1ccc(-c2ccc(Cl)cc2Cl)o1

>  <Name>  (889) 
nan

>  <Pocket>  (889) 
nan

>  <ATP_Site>  (889) 
nan

>  <Peripheral>  (889) 
nan

>  <Num_H_Atoms_ProtBoundConf>  (889) 
nan

>  <Num_Resolved_Atoms>  (889) 
nan

>  <Num_Not_Resolved_Atoms>  (889) 
nan

$$$$
CHEMBL2017460
     RDKit          3D

  0  0  0  0  0  0  0  0  0  0999 V3000
M  V30 BEGIN CTAB
M  V30 COUNTS 56 59 0 0 0
M  V30 BEGIN ATOM
M  V30 1 C 2.833869 -2.528470 5.077299 0
M  V30 2 C 2.255305 -3.576671 4.164266 0
M  V30 3 C 2.682964 -3.361925 2.750799 0
M  V30 4 N 2.285362 -2.084950 2.191322 0
M  V30 5 C 3.107915 -0.896830 2.276506 0
M  V30 6 O 4.266464 -0.835183 2.814882 0
M  V30 7 C 2.556326 0.319099 1.698641 0
M  V30 8 C 2.730988 1.506409 2.410922 0
M  V30 9 C 2.134142 2.535768 1.693588 0
M  V30 10 C 1.625503 1.917663 0.577455 0
M  V30 11 C 0.900432 2.594580 -0.489601 0
M  V30 12 C 0.405482 1.923373 -1.594013 0
M  V30 13 C -0.283311 2.524608 -2.613255 0
M  V30 14 C -0.493390 3.892573 -2.523946 0
M  V30 15 Cl -1.356781 4.793259 -3.753334 0
M  V30 16 C -0.026820 4.619311 -1.449740 0
M  V30 17 C 0.663209 3.943801 -0.453801 0
M  V30 18 O 1.897168 0.639837 0.631132 0
M  V30 19 C 1.011032 -2.043747 1.531521 0
M  V30 20 C -0.225961 -1.715274 2.088754 0
M  V30 21 C -1.351256 -1.730391 1.293231 0
M  V30 22 C -1.333293 -2.056678 -0.046445 0
M  V30 23 N -2.511958 -2.055608 -0.837229 0
M  V30 24 C -3.794471 -1.551203 -0.465759 0
M  V30 25 C -4.625307 -1.135370 -1.661679 0
M  V30 26 N -4.900026 -2.241801 -2.554861 0
M  V30 27 C -3.873956 -3.263606 -2.471743 0
M  V30 28 C -2.540169 -2.606025 -2.174169 0
M  V30 29 C -0.127281 -2.385633 -0.625222 0
M  V30 30 C 1.001348 -2.371071 0.167117 0
M  V30 31 H 3.933584 -2.525052 4.952643 0
M  V30 32 H 2.477853 -1.508201 4.827636 0
M  V30 33 H 2.666682 -2.784374 6.150620 0
M  V30 34 H 1.178596 -3.726983 4.296774 0
M  V30 35 H 2.724896 -4.544395 4.483812 0
M  V30 36 H 2.246428 -4.181407 2.118730 0
M  V30 37 H 3.780954 -3.513190 2.705464 0
M  V30 38 H 3.224026 1.708250 3.360433 0
M  V30 39 H 2.086819 3.575760 1.958399 0
M  V30 40 H 0.562966 0.857466 -1.674515 0
M  V30 41 H -0.666416 1.987736 -3.472766 0
M  V30 42 H -0.175331 5.680910 -1.356180 0
M  V30 43 H 1.034688 4.489746 0.391619 0
M  V30 44 H -0.179386 -1.469031 3.131823 0
M  V30 45 H -2.295650 -1.466650 1.772497 0
M  V30 46 H -4.356873 -2.304323 0.106468 0
M  V30 47 H -3.666276 -0.630883 0.167192 0
M  V30 48 H -4.164187 -0.335584 -2.265124 0
M  V30 49 H -5.588632 -0.719589 -1.302798 0
M  V30 50 H -5.057779 -1.923467 -3.538976 0
M  V30 51 H -4.148094 -4.012523 -1.730419 0
M  V30 52 H -3.794306 -3.733796 -3.472282 0
M  V30 53 H -2.325471 -1.807273 -2.893409 0
M  V30 54 H -1.754404 -3.397416 -2.289618 0
M  V30 55 H 0.003229 -2.654697 -1.656866 0
M  V30 56 H 1.962056 -2.636744 -0.300952 0
M  V30 END ATOM
M  V30 BEGIN BOND
M  V30 1 1 1 2
M  V30 2 1 2 3
M  V30 3 1 3 4
M  V30 4 1 4 5
M  V30 5 2 5 6
M  V30 6 1 5 7
M  V30 7 2 7 8
M  V30 8 1 8 9
M  V30 9 2 9 10
M  V30 10 1 10 11
M  V30 11 2 11 12
M  V30 12 1 12 13
M  V30 13 2 13 14
M  V30 14 1 14 15
M  V30 15 1 14 16
M  V30 16 2 16 17
M  V30 17 1 10 18
M  V30 18 1 4 19
M  V30 19 2 19 20
M  V30 20 1 20 21
M  V30 21 2 21 22
M  V30 22 1 22 23
M  V30 23 1 23 24
M  V30 24 1 24 25
M  V30 25 1 25 26
M  V30 26 1 26 27
M  V30 27 1 27 28
M  V30 28 1 22 29
M  V30 29 2 29 30
M  V30 30 1 18 7
M  V30 31 1 30 19
M  V30 32 1 17 11
M  V30 33 1 28 23
M  V30 34 1 1 31
M  V30 35 1 1 32
M  V30 36 1 1 33
M  V30 37 1 2 34
M  V30 38 1 2 35
M  V30 39 1 3 36
M  V30 40 1 3 37
M  V30 41 1 8 38
M  V30 42 1 9 39
M  V30 43 1 12 40
M  V30 44 1 13 41
M  V30 45 1 16 42
M  V30 46 1 17 43
M  V30 47 1 20 44
M  V30 48 1 21 45
M  V30 49 1 24 46
M  V30 50 1 24 47
M  V30 51 1 25 48
M  V30 52 1 25 49
M  V30 53 1 26 50
M  V30 54 1 27 51
M  V30 55 1 27 52
M  V30 56 1 28 53
M  V30 57 1 28 54
M  V30 58 1 29 55
M  V30 59 1 30 56
M  V30 END BOND
M  V30 END CTAB
M  END
>  <Dataset>  (890) 
ChEMBL_Kinases

>  <Ligand_Instance>  (890) 
nan

>  <PDB_ID>  (890) 
nan

>  <Standardized_SMILES>  (890) 
CCCN(C(=O)c1ccc(-c2ccc(Cl)cc2)o1)c1ccc(N2CCNCC2)cc1

>  <Name>  (890) 
nan

>  <Pocket>  (890) 
nan

>  <ATP_Site>  (890) 
nan

>  <Peripheral>  (890) 
nan

>  <Num_H_Atoms_ProtBoundConf>  (890) 
nan

>  <Num_Resolved_Atoms>  (890) 
nan

>  <Num_Not_Resolved_Atoms>  (890) 
nan

$$$$
CHEMBL2017447
     RDKit          3D

  0  0  0  0  0  0  0  0  0  0999 V3000
M  V30 BEGIN CTAB
M  V30 COUNTS 51 54 0 0 0
M  V30 BEGIN ATOM
M  V30 1 C 6.851549 -6.865230 3.969005 0
M  V30 2 O 5.662578 -6.139510 3.814237 0
M  V30 3 C 5.416911 -5.183649 2.847746 0
M  V30 4 C 4.126883 -4.664042 2.990489 0
M  V30 5 C 3.644743 -3.683125 2.131557 0
M  V30 6 C 4.468413 -3.224720 1.124147 0
M  V30 7 C 3.978931 -2.194109 0.211924 0
M  V30 8 C 4.690152 -1.641049 -0.839951 0
M  V30 9 C 3.844804 -0.702022 -1.440450 0
M  V30 10 C 2.672116 -0.743241 -0.715505 0
M  V30 11 C 1.526328 0.104365 -1.036541 0
M  V30 12 O 1.612082 0.892116 -2.000277 0
M  V30 13 N 0.374249 -0.026690 -0.218271 0
M  V30 14 C -0.895367 0.611789 -0.225162 0
M  V30 15 C -1.132413 1.760762 0.481859 0
M  V30 16 C -2.365270 2.381238 0.475370 0
M  V30 17 C -3.422480 1.877718 -0.242515 0
M  V30 18 N -4.683853 2.523270 -0.240512 0
M  V30 19 C -5.018887 3.710400 0.487263 0
M  V30 20 C -6.322734 3.623572 1.245109 0
M  V30 21 N -6.807766 2.268193 1.304065 0
M  V30 22 C -6.997944 1.743829 -0.035013 0
M  V30 23 C -5.863398 2.121187 -0.959973 0
M  V30 24 C -3.166540 0.731059 -0.941305 0
M  V30 25 C -1.946477 0.088964 -0.954192 0
M  V30 26 O 2.807197 -1.629688 0.234190 0
M  V30 27 C 5.744466 -3.733407 0.976800 0
M  V30 28 C 6.213953 -4.706226 1.833645 0
M  V30 29 H 7.662820 -6.356353 3.409408 0
M  V30 30 H 7.164468 -6.947156 5.032971 0
M  V30 31 H 6.722458 -7.893984 3.575729 0
M  V30 32 H 3.387910 -4.951164 3.750430 0
M  V30 33 H 2.653162 -3.255497 2.208470 0
M  V30 34 H 5.685799 -1.857200 -1.164221 0
M  V30 35 H 4.099499 -0.094773 -2.291488 0
M  V30 36 H 0.322849 -0.693406 0.585235 0
M  V30 37 H -0.284140 2.138086 1.039602 0
M  V30 38 H -2.402851 3.260381 1.066435 0
M  V30 39 H -4.234283 4.092989 1.149936 0
M  V30 40 H -5.172963 4.525296 -0.276708 0
M  V30 41 H -6.159678 3.939139 2.300197 0
M  V30 42 H -7.105382 4.275861 0.849476 0
M  V30 43 H -6.120408 1.649815 1.793583 0
M  V30 44 H -7.008843 0.641315 0.077278 0
M  V30 45 H -7.988711 2.046476 -0.428781 0
M  V30 46 H -5.658241 1.250683 -1.607343 0
M  V30 47 H -6.258770 2.956028 -1.588044 0
M  V30 48 H -3.914207 0.245290 -1.537711 0
M  V30 49 H -1.765137 -0.820427 -1.515966 0
M  V30 50 H 6.423903 -3.402923 0.200967 0
M  V30 51 H 7.186222 -5.176937 1.817464 0
M  V30 END ATOM
M  V30 BEGIN BOND
M  V30 1 1 1 2
M  V30 2 1 2 3
M  V30 3 2 3 4
M  V30 4 1 4 5
M  V30 5 2 5 6
M  V30 6 1 6 7
M  V30 7 2 7 8
M  V30 8 1 8 9
M  V30 9 2 9 10
M  V30 10 1 10 11
M  V30 11 2 11 12
M  V30 12 1 11 13
M  V30 13 1 13 14
M  V30 14 2 14 15
M  V30 15 1 15 16
M  V30 16 2 16 17
M  V30 17 1 17 18
M  V30 18 1 18 19
M  V30 19 1 19 20
M  V30 20 1 20 21
M  V30 21 1 21 22
M  V30 22 1 22 23
M  V30 23 1 17 24
M  V30 24 2 24 25
M  V30 25 1 10 26
M  V30 26 1 6 27
M  V30 27 2 27 28
M  V30 28 1 28 3
M  V30 29 1 26 7
M  V30 30 1 25 14
M  V30 31 1 23 18
M  V30 32 1 1 29
M  V30 33 1 1 30
M  V30 34 1 1 31
M  V30 35 1 4 32
M  V30 36 1 5 33
M  V30 37 1 8 34
M  V30 38 1 9 35
M  V30 39 1 13 36
M  V30 40 1 15 37
M  V30 41 1 16 38
M  V30 42 1 19 39
M  V30 43 1 19 40
M  V30 44 1 20 41
M  V30 45 1 20 42
M  V30 46 1 21 43
M  V30 47 1 22 44
M  V30 48 1 22 45
M  V30 49 1 23 46
M  V30 50 1 23 47
M  V30 51 1 24 48
M  V30 52 1 25 49
M  V30 53 1 27 50
M  V30 54 1 28 51
M  V30 END BOND
M  V30 END CTAB
M  END
>  <Dataset>  (891) 
ChEMBL_Kinases

>  <Ligand_Instance>  (891) 
nan

>  <PDB_ID>  (891) 
nan

>  <Standardized_SMILES>  (891) 
COc1ccc(-c2ccc(C(=O)Nc3ccc(N4CCNCC4)cc3)o2)cc1

>  <Name>  (891) 
nan

>  <Pocket>  (891) 
nan

>  <ATP_Site>  (891) 
nan

>  <Peripheral>  (891) 
nan

>  <Num_H_Atoms_ProtBoundConf>  (891) 
nan

>  <Num_Resolved_Atoms>  (891) 
nan

>  <Num_Not_Resolved_Atoms>  (891) 
nan

$$$$
CHEMBL2017452
     RDKit          3D

  0  0  0  0  0  0  0  0  0  0999 V3000
M  V30 BEGIN CTAB
M  V30 COUNTS 46 49 0 0 0
M  V30 BEGIN ATOM
M  V30 1 O 1.066950 -1.755086 3.139133 0
M  V30 2 C 0.190729 -1.998850 2.275031 0
M  V30 3 N 0.029418 -1.119791 1.190384 0
M  V30 4 C 0.728688 0.072226 0.880513 0
M  V30 5 C 0.376980 0.767489 -0.255468 0
M  V30 6 C 1.009833 1.933665 -0.623916 0
M  V30 7 C 2.031980 2.474260 0.121334 0
M  V30 8 C 2.714983 3.706667 -0.246806 0
M  V30 9 C 2.429128 4.432103 -1.315497 0
M  V30 10 C 3.039652 5.688683 -1.796877 0
M  V30 11 N 4.010463 6.216612 -0.857436 0
M  V30 12 C 4.711432 5.195906 -0.146586 0
M  V30 13 C 3.817869 4.228002 0.601258 0
M  V30 14 C 2.390750 1.802754 1.242544 0
M  V30 15 C 1.752182 0.635736 1.604605 0
M  V30 16 C -0.607125 -3.205996 2.475150 0
M  V30 17 C -0.451898 -4.069424 3.539325 0
M  V30 18 C -1.402704 -5.078710 3.346541 0
M  V30 19 C -2.076882 -4.762307 2.173289 0
M  V30 20 C -3.165521 -5.523755 1.556721 0
M  V30 21 C -3.683794 -4.995131 0.367702 0
M  V30 22 C -4.717009 -5.698639 -0.236690 0
M  V30 23 C -5.190834 -6.861523 0.330527 0
M  V30 24 Cl -6.506659 -7.728018 -0.468553 0
M  V30 25 C -4.661779 -7.360403 1.503342 0
M  V30 26 C -3.621546 -6.669950 2.129764 0
M  V30 27 O -1.573139 -3.638249 1.683506 0
M  V30 28 H -0.730594 -1.441546 0.551602 0
M  V30 29 H -0.435085 0.377457 -0.886900 0
M  V30 30 H 0.667139 2.402071 -1.522147 0
M  V30 31 H 1.639847 4.110800 -1.977419 0
M  V30 32 H 3.579354 5.472978 -2.738301 0
M  V30 33 H 2.232619 6.430738 -2.009082 0
M  V30 34 H 3.580088 6.951885 -0.262046 0
M  V30 35 H 5.389002 5.656953 0.572793 0
M  V30 36 H 5.309154 4.625857 -0.887525 0
M  V30 37 H 3.395105 4.699195 1.502309 0
M  V30 38 H 4.517536 3.411167 0.943775 0
M  V30 39 H 3.198281 2.185711 1.877036 0
M  V30 40 H 2.085776 0.163535 2.495124 0
M  V30 41 H 0.237584 -4.019527 4.364121 0
M  V30 42 H -1.612508 -5.960564 3.965959 0
M  V30 43 H -3.330431 -4.084882 -0.098525 0
M  V30 44 H -5.182952 -5.364533 -1.163808 0
M  V30 45 H -5.071531 -8.278913 1.906345 0
M  V30 46 H -3.222233 -7.073124 3.041749 0
M  V30 END ATOM
M  V30 BEGIN BOND
M  V30 1 2 1 2
M  V30 2 1 2 3
M  V30 3 1 3 4
M  V30 4 2 4 5
M  V30 5 1 5 6
M  V30 6 2 6 7
M  V30 7 1 7 8
M  V30 8 2 8 9
M  V30 9 1 9 10
M  V30 10 1 10 11
M  V30 11 1 11 12
M  V30 12 1 12 13
M  V30 13 1 7 14
M  V30 14 2 14 15
M  V30 15 1 2 16
M  V30 16 2 16 17
M  V30 17 1 17 18
M  V30 18 2 18 19
M  V30 19 1 19 20
M  V30 20 2 20 21
M  V30 21 1 21 22
M  V30 22 2 22 23
M  V30 23 1 23 24
M  V30 24 1 23 25
M  V30 25 2 25 26
M  V30 26 1 19 27
M  V30 27 1 15 4
M  V30 28 1 27 16
M  V30 29 1 13 8
M  V30 30 1 26 20
M  V30 31 1 3 28
M  V30 32 1 5 29
M  V30 33 1 6 30
M  V30 34 1 9 31
M  V30 35 1 10 32
M  V30 36 1 10 33
M  V30 37 1 11 34
M  V30 38 1 12 35
M  V30 39 1 12 36
M  V30 40 1 13 37
M  V30 41 1 13 38
M  V30 42 1 14 39
M  V30 43 1 15 40
M  V30 44 1 17 41
M  V30 45 1 18 42
M  V30 46 1 21 43
M  V30 47 1 22 44
M  V30 48 1 25 45
M  V30 49 1 26 46
M  V30 END BOND
M  V30 END CTAB
M  END
>  <Dataset>  (892) 
ChEMBL_Kinases

>  <Ligand_Instance>  (892) 
nan

>  <PDB_ID>  (892) 
nan

>  <Standardized_SMILES>  (892) 
O=C(Nc1ccc(C2=CCNCC2)cc1)c1ccc(-c2ccc(Cl)cc2)o1

>  <Name>  (892) 
nan

>  <Pocket>  (892) 
nan

>  <ATP_Site>  (892) 
nan

>  <Peripheral>  (892) 
nan

>  <Num_H_Atoms_ProtBoundConf>  (892) 
nan

>  <Num_Resolved_Atoms>  (892) 
nan

>  <Num_Not_Resolved_Atoms>  (892) 
nan

$$$$
CHEMBL2017454
     RDKit          3D

  0  0  0  0  0  0  0  0  0  0999 V3000
M  V30 BEGIN CTAB
M  V30 COUNTS 47 50 0 0 0
M  V30 BEGIN ATOM
M  V30 1 O -0.205036 -0.419336 -0.780816 0
M  V30 2 C -0.726072 -1.097845 0.135930 0
M  V30 3 N -0.308807 -0.839229 1.461920 0
M  V30 4 C 0.680979 0.203126 1.496724 0
M  V30 5 C 0.402524 1.552399 1.622925 0
M  V30 6 C 1.422592 2.484388 1.646490 0
M  V30 7 C 2.738047 2.094030 1.545248 0
M  V30 8 N 3.777365 3.059019 1.573236 0
M  V30 9 C 3.672550 4.487732 1.775290 0
M  V30 10 C 3.927211 5.285642 0.515833 0
M  V30 11 N 4.849442 4.538363 -0.316183 0
M  V30 12 C 5.831195 3.874279 0.513087 0
M  V30 13 C 5.193013 2.819335 1.398087 0
M  V30 14 C 3.051276 0.759963 1.418489 0
M  V30 15 C 2.023324 -0.173264 1.395177 0
M  V30 16 C -1.775760 -2.194695 0.028098 0
M  V30 17 C -2.303521 -2.595608 -1.133223 0
M  V30 18 C -3.236682 -3.584648 -1.142972 0
M  V30 19 C -3.580216 -4.121199 0.111067 0
M  V30 20 C -4.539464 -5.191012 0.486596 0
M  V30 21 C -5.262379 -5.828757 -0.497978 0
M  V30 22 C -6.121194 -6.801919 -0.047529 0
M  V30 23 C -6.270040 -7.136427 1.276607 0
M  V30 24 Cl -7.397372 -8.396310 1.734782 0
M  V30 25 C -5.505462 -6.445043 2.191334 0
M  V30 26 C -4.617758 -5.453034 1.830500 0
M  V30 27 S -2.516897 -3.150502 1.263187 0
M  V30 28 H -0.682958 -1.352407 2.313689 0
M  V30 29 H -0.640873 1.839189 1.701174 0
M  V30 30 H 1.091788 3.506704 1.747547 0
M  V30 31 H 4.324761 4.860073 2.611362 0
M  V30 32 H 2.644522 4.740055 2.106159 0
M  V30 33 H 4.314017 6.288082 0.739130 0
M  V30 34 H 2.966177 5.354978 -0.033271 0
M  V30 35 H 4.316128 3.893857 -0.911502 0
M  V30 36 H 6.588888 3.372325 -0.103961 0
M  V30 37 H 6.361834 4.655722 1.093431 0
M  V30 38 H 5.368417 1.813561 0.981526 0
M  V30 39 H 5.708804 2.905558 2.378962 0
M  V30 40 H 4.030408 0.353503 1.334510 0
M  V30 41 H 2.239144 -1.238239 1.295840 0
M  V30 42 H -2.023574 -2.164636 -2.110785 0
M  V30 43 H -3.769123 -4.036598 -1.968973 0
M  V30 44 H -5.090734 -5.511145 -1.515243 0
M  V30 45 H -6.689187 -7.299837 -0.847245 0
M  V30 46 H -5.643531 -6.730834 3.237978 0
M  V30 47 H -4.027680 -4.923630 2.569364 0
M  V30 END ATOM
M  V30 BEGIN BOND
M  V30 1 2 1 2
M  V30 2 1 2 3
M  V30 3 1 3 4
M  V30 4 2 4 5
M  V30 5 1 5 6
M  V30 6 2 6 7
M  V30 7 1 7 8
M  V30 8 1 8 9
M  V30 9 1 9 10
M  V30 10 1 10 11
M  V30 11 1 11 12
M  V30 12 1 12 13
M  V30 13 1 7 14
M  V30 14 2 14 15
M  V30 15 1 2 16
M  V30 16 2 16 17
M  V30 17 1 17 18
M  V30 18 2 18 19
M  V30 19 1 19 20
M  V30 20 2 20 21
M  V30 21 1 21 22
M  V30 22 2 22 23
M  V30 23 1 23 24
M  V30 24 1 23 25
M  V30 25 2 25 26
M  V30 26 1 19 27
M  V30 27 1 15 4
M  V30 28 1 27 16
M  V30 29 1 13 8
M  V30 30 1 26 20
M  V30 31 1 3 28
M  V30 32 1 5 29
M  V30 33 1 6 30
M  V30 34 1 9 31
M  V30 35 1 9 32
M  V30 36 1 10 33
M  V30 37 1 10 34
M  V30 38 1 11 35
M  V30 39 1 12 36
M  V30 40 1 12 37
M  V30 41 1 13 38
M  V30 42 1 13 39
M  V30 43 1 14 40
M  V30 44 1 15 41
M  V30 45 1 17 42
M  V30 46 1 18 43
M  V30 47 1 21 44
M  V30 48 1 22 45
M  V30 49 1 25 46
M  V30 50 1 26 47
M  V30 END BOND
M  V30 END CTAB
M  END
>  <Dataset>  (893) 
ChEMBL_Kinases

>  <Ligand_Instance>  (893) 
nan

>  <PDB_ID>  (893) 
nan

>  <Standardized_SMILES>  (893) 
O=C(Nc1ccc(N2CCNCC2)cc1)c1ccc(-c2ccc(Cl)cc2)s1

>  <Name>  (893) 
nan

>  <Pocket>  (893) 
nan

>  <ATP_Site>  (893) 
nan

>  <Peripheral>  (893) 
nan

>  <Num_H_Atoms_ProtBoundConf>  (893) 
nan

>  <Num_Resolved_Atoms>  (893) 
nan

>  <Num_Not_Resolved_Atoms>  (893) 
nan

$$$$
CHEMBL2017455
     RDKit          3D

  0  0  0  0  0  0  0  0  0  0999 V3000
M  V30 BEGIN CTAB
M  V30 COUNTS 46 49 0 0 0
M  V30 BEGIN ATOM
M  V30 1 O 0.541226 -1.996199 3.270608 0
M  V30 2 C -0.020982 -2.395273 2.217994 0
M  V30 3 N -0.055635 -1.473636 1.138160 0
M  V30 4 C 0.511859 -0.164928 1.228003 0
M  V30 5 C -0.226479 0.920153 1.655241 0
M  V30 6 C 0.315714 2.188104 1.745507 0
M  V30 7 C 1.627712 2.423971 1.409787 0
M  V30 8 N 2.195815 3.720531 1.497698 0
M  V30 9 C 1.490948 4.911811 1.917660 0
M  V30 10 C 1.375924 5.776731 0.660853 0
M  V30 11 N 2.712066 6.250478 0.359184 0
M  V30 12 C 3.658777 5.194705 0.168092 0
M  V30 13 C 3.559859 4.080821 1.188088 0
M  V30 14 C 2.357752 1.339154 0.985180 0
M  V30 15 C 1.830388 0.064404 0.889157 0
M  V30 16 C -0.593675 -3.744930 2.157748 0
M  V30 17 C -0.484209 -4.511421 3.271629 0
M  V30 18 S -1.346790 -6.098252 2.698316 0
M  V30 19 C -1.665297 -5.325131 1.025148 0
M  V30 20 C -2.398691 -6.083914 -0.096151 0
M  V30 21 C -2.551271 -5.367480 -1.266119 0
M  V30 22 C -3.206994 -6.056467 -2.257256 0
M  V30 23 C -3.664536 -7.361889 -2.065155 0
M  V30 24 Cl -4.494817 -8.143897 -3.415689 0
M  V30 25 C -3.478134 -8.019892 -0.868475 0
M  V30 26 C -2.822899 -7.352888 0.144620 0
M  V30 27 N -1.213201 -4.303743 1.121502 0
M  V30 28 H -0.518870 -1.778035 0.245301 0
M  V30 29 H -1.272251 0.722172 1.921473 0
M  V30 30 H -0.357832 2.950386 2.089696 0
M  V30 31 H 0.514639 4.737044 2.373262 0
M  V30 32 H 2.084700 5.541672 2.630818 0
M  V30 33 H 0.768891 6.669523 0.918657 0
M  V30 34 H 0.915260 5.230377 -0.186876 0
M  V30 35 H 2.635891 6.771007 -0.548482 0
M  V30 36 H 3.619983 4.799173 -0.879312 0
M  V30 37 H 4.683706 5.642703 0.294361 0
M  V30 38 H 3.992811 4.501741 2.137368 0
M  V30 39 H 4.154180 3.252053 0.794832 0
M  V30 40 H 3.393744 1.399873 0.695839 0
M  V30 41 H 2.413184 -0.783105 0.553703 0
M  V30 42 H -0.073131 -4.415296 4.255209 0
M  V30 43 H -2.167235 -4.360062 -1.331796 0
M  V30 44 H -3.354326 -5.539140 -3.201972 0
M  V30 45 H -3.832418 -9.020589 -0.731216 0
M  V30 46 H -2.667059 -7.838885 1.075707 0
M  V30 END ATOM
M  V30 BEGIN BOND
M  V30 1 2 1 2
M  V30 2 1 2 3
M  V30 3 1 3 4
M  V30 4 2 4 5
M  V30 5 1 5 6
M  V30 6 2 6 7
M  V30 7 1 7 8
M  V30 8 1 8 9
M  V30 9 1 9 10
M  V30 10 1 10 11
M  V30 11 1 11 12
M  V30 12 1 12 13
M  V30 13 1 7 14
M  V30 14 2 14 15
M  V30 15 1 2 16
M  V30 16 2 16 17
M  V30 17 1 17 18
M  V30 18 1 18 19
M  V30 19 1 19 20
M  V30 20 2 20 21
M  V30 21 1 21 22
M  V30 22 2 22 23
M  V30 23 1 23 24
M  V30 24 1 23 25
M  V30 25 2 25 26
M  V30 26 2 19 27
M  V30 27 1 15 4
M  V30 28 1 27 16
M  V30 29 1 13 8
M  V30 30 1 26 20
M  V30 31 1 3 28
M  V30 32 1 5 29
M  V30 33 1 6 30
M  V30 34 1 9 31
M  V30 35 1 9 32
M  V30 36 1 10 33
M  V30 37 1 10 34
M  V30 38 1 11 35
M  V30 39 1 12 36
M  V30 40 1 12 37
M  V30 41 1 13 38
M  V30 42 1 13 39
M  V30 43 1 14 40
M  V30 44 1 15 41
M  V30 45 1 17 42
M  V30 46 1 21 43
M  V30 47 1 22 44
M  V30 48 1 25 45
M  V30 49 1 26 46
M  V30 END BOND
M  V30 END CTAB
M  END
>  <Dataset>  (894) 
ChEMBL_Kinases

>  <Ligand_Instance>  (894) 
nan

>  <PDB_ID>  (894) 
nan

>  <Standardized_SMILES>  (894) 
O=C(Nc1ccc(N2CCNCC2)cc1)c1csc(-c2ccc(Cl)cc2)n1

>  <Name>  (894) 
nan

>  <Pocket>  (894) 
nan

>  <ATP_Site>  (894) 
nan

>  <Peripheral>  (894) 
nan

>  <Num_H_Atoms_ProtBoundConf>  (894) 
nan

>  <Num_Resolved_Atoms>  (894) 
nan

>  <Num_Not_Resolved_Atoms>  (894) 
nan

$$$$
CHEMBL2017456
     RDKit          3D

  0  0  0  0  0  0  0  0  0  0999 V3000
M  V30 BEGIN CTAB
M  V30 COUNTS 46 49 0 0 0
M  V30 BEGIN ATOM
M  V30 1 O -0.252790 -0.517058 -1.258883 0
M  V30 2 C -0.601223 -1.339741 -0.372383 0
M  V30 3 N -0.290385 -1.268532 1.012393 0
M  V30 4 C 0.505111 -0.093518 1.292564 0
M  V30 5 C -0.059714 1.124934 1.618316 0
M  V30 6 C 0.739210 2.220214 1.877476 0
M  V30 7 C 2.111280 2.150933 1.824585 0
M  V30 8 N 2.921171 3.284150 2.091067 0
M  V30 9 C 2.464011 4.608981 2.446676 0
M  V30 10 C 2.810910 5.636746 1.366108 0
M  V30 11 N 3.866221 5.153272 0.496520 0
M  V30 12 C 4.886447 4.543078 1.317940 0
M  V30 13 C 4.365037 3.328893 2.054623 0
M  V30 14 C 2.669094 0.936906 1.500231 0
M  V30 15 C 1.883022 -0.166529 1.238570 0
M  V30 16 C -1.403821 -2.464420 -0.857331 0
M  V30 17 C -1.906285 -3.511834 -0.107468 0
M  V30 18 C -2.617029 -4.385631 -0.904800 0
M  V30 19 C -3.332175 -5.625156 -0.606816 0
M  V30 20 C -3.949252 -6.263934 -1.663295 0
M  V30 21 C -4.626062 -7.448355 -1.355241 0
M  V30 22 C -4.689865 -7.976142 -0.064529 0
M  V30 23 Cl -5.586895 -9.485091 0.161300 0
M  V30 24 C -4.059115 -7.306069 0.963925 0
M  V30 25 C -3.388426 -6.137023 0.672768 0
M  V30 26 O -2.530368 -3.855401 -2.101831 0
M  V30 27 N -1.845246 -2.765672 -2.089708 0
M  V30 28 H -0.643772 -2.020409 1.643772 0
M  V30 29 H -1.140247 1.171820 1.658493 0
M  V30 30 H 0.194909 3.117747 2.120501 0
M  V30 31 H 1.364061 4.689805 2.563922 0
M  V30 32 H 2.990000 4.992431 3.366791 0
M  V30 33 H 3.141652 6.599706 1.794950 0
M  V30 34 H 1.914382 5.893420 0.741888 0
M  V30 35 H 4.294714 5.990950 0.044309 0
M  V30 36 H 5.721170 4.248838 0.632355 0
M  V30 37 H 5.320968 5.304733 1.995039 0
M  V30 38 H 4.680873 3.464930 3.130814 0
M  V30 39 H 4.830328 2.413164 1.644103 0
M  V30 40 H 3.715609 0.756155 1.428164 0
M  V30 41 H 2.290686 -1.123256 0.983920 0
M  V30 42 H -1.785017 -3.668979 0.965343 0
M  V30 43 H -3.921819 -5.885821 -2.677201 0
M  V30 44 H -5.136689 -7.999676 -2.160937 0
M  V30 45 H -4.130789 -7.745488 1.949383 0
M  V30 46 H -2.895587 -5.624543 1.509514 0
M  V30 END ATOM
M  V30 BEGIN BOND
M  V30 1 2 1 2
M  V30 2 1 2 3
M  V30 3 1 3 4
M  V30 4 2 4 5
M  V30 5 1 5 6
M  V30 6 2 6 7
M  V30 7 1 7 8
M  V30 8 1 8 9
M  V30 9 1 9 10
M  V30 10 1 10 11
M  V30 11 1 11 12
M  V30 12 1 12 13
M  V30 13 1 7 14
M  V30 14 2 14 15
M  V30 15 1 2 16
M  V30 16 1 16 17
M  V30 17 2 17 18
M  V30 18 1 18 19
M  V30 19 2 19 20
M  V30 20 1 20 21
M  V30 21 2 21 22
M  V30 22 1 22 23
M  V30 23 1 22 24
M  V30 24 2 24 25
M  V30 25 1 18 26
M  V30 26 1 26 27
M  V30 27 1 15 4
M  V30 28 2 27 16
M  V30 29 1 13 8
M  V30 30 1 25 19
M  V30 31 1 3 28
M  V30 32 1 5 29
M  V30 33 1 6 30
M  V30 34 1 9 31
M  V30 35 1 9 32
M  V30 36 1 10 33
M  V30 37 1 10 34
M  V30 38 1 11 35
M  V30 39 1 12 36
M  V30 40 1 12 37
M  V30 41 1 13 38
M  V30 42 1 13 39
M  V30 43 1 14 40
M  V30 44 1 15 41
M  V30 45 1 17 42
M  V30 46 1 20 43
M  V30 47 1 21 44
M  V30 48 1 24 45
M  V30 49 1 25 46
M  V30 END BOND
M  V30 END CTAB
M  END
>  <Dataset>  (895) 
ChEMBL_Kinases

>  <Ligand_Instance>  (895) 
nan

>  <PDB_ID>  (895) 
nan

>  <Standardized_SMILES>  (895) 
O=C(Nc1ccc(N2CCNCC2)cc1)c1cc(-c2ccc(Cl)cc2)on1

>  <Name>  (895) 
nan

>  <Pocket>  (895) 
nan

>  <ATP_Site>  (895) 
nan

>  <Peripheral>  (895) 
nan

>  <Num_H_Atoms_ProtBoundConf>  (895) 
nan

>  <Num_Resolved_Atoms>  (895) 
nan

>  <Num_Not_Resolved_Atoms>  (895) 
nan

$$$$
CHEMBL2017457
     RDKit          3D

  0  0  0  0  0  0  0  0  0  0999 V3000
M  V30 BEGIN CTAB
M  V30 COUNTS 49 52 0 0 0
M  V30 BEGIN ATOM
M  V30 1 O -1.223370 0.710985 1.363205 0
M  V30 2 C -1.336272 -0.557111 1.428585 0
M  V30 3 N -0.293991 -1.304221 0.815153 0
M  V30 4 C 0.683941 -0.436092 0.240869 0
M  V30 5 C 0.531514 -0.029336 -1.071216 0
M  V30 6 C 1.505125 0.808387 -1.572848 0
M  V30 7 C 2.602844 1.262794 -0.871718 0
M  V30 8 N 3.607448 2.124685 -1.389947 0
M  V30 9 C 4.693197 2.581536 -0.522070 0
M  V30 10 C 5.370174 3.728428 -1.191180 0
M  V30 11 N 4.473358 4.690217 -1.767898 0
M  V30 12 C 3.506645 4.112022 -2.660144 0
M  V30 13 C 3.652979 2.606432 -2.754358 0
M  V30 14 C 2.699559 0.822220 0.432268 0
M  V30 15 C 1.758164 -0.019261 0.998992 0
M  V30 16 C -2.470514 -1.179381 2.095039 0
M  V30 17 C -3.429492 -0.362844 2.662708 0
M  V30 18 C -4.529991 -0.885971 3.310642 0
M  V30 19 C -4.633988 -2.279787 3.368619 0
M  V30 20 C -3.671130 -3.084736 2.798650 0
M  V30 21 C -3.756365 -4.536333 2.844445 0
M  V30 22 C -4.771723 -5.252111 3.441782 0
M  V30 23 C -4.804990 -6.619002 3.456463 0
M  V30 24 C -3.785358 -7.345276 2.851416 0
M  V30 25 Cl -3.875671 -9.096349 2.898537 0
M  V30 26 C -2.742258 -6.687104 2.237534 0
M  V30 27 C -2.782658 -5.319280 2.266326 0
M  V30 28 N -2.622791 -2.511580 2.181644 0
M  V30 29 H -0.404336 -2.339279 0.880893 0
M  V30 30 H -0.304891 -0.344561 -1.685095 0
M  V30 31 H 1.381246 1.123921 -2.598340 0
M  V30 32 H 4.342929 2.816802 0.505263 0
M  V30 33 H 5.400227 1.723251 -0.481931 0
M  V30 34 H 6.065155 3.367907 -1.988961 0
M  V30 35 H 6.004397 4.250367 -0.444933 0
M  V30 36 H 4.087325 5.369889 -1.092860 0
M  V30 37 H 2.496363 4.302069 -2.242708 0
M  V30 38 H 3.531453 4.568322 -3.669531 0
M  V30 39 H 2.904666 2.157958 -3.425176 0
M  V30 40 H 4.655207 2.327592 -3.191635 0
M  V30 41 H 3.490565 1.079543 1.115840 0
M  V30 42 H 1.813306 -0.378675 2.022800 0
M  V30 43 H -3.326701 0.726156 2.604608 0
M  V30 44 H -5.292758 -0.237307 3.762289 0
M  V30 45 H -5.496404 -2.686906 3.876518 0
M  V30 46 H -5.576060 -4.711784 3.918748 0
M  V30 47 H -5.645383 -7.113442 3.951386 0
M  V30 48 H -1.939828 -7.237928 1.761744 0
M  V30 49 H -1.947962 -4.813277 1.775181 0
M  V30 END ATOM
M  V30 BEGIN BOND
M  V30 1 2 1 2
M  V30 2 1 2 3
M  V30 3 1 3 4
M  V30 4 2 4 5
M  V30 5 1 5 6
M  V30 6 2 6 7
M  V30 7 1 7 8
M  V30 8 1 8 9
M  V30 9 1 9 10
M  V30 10 1 10 11
M  V30 11 1 11 12
M  V30 12 1 12 13
M  V30 13 1 7 14
M  V30 14 2 14 15
M  V30 15 1 2 16
M  V30 16 2 16 17
M  V30 17 1 17 18
M  V30 18 2 18 19
M  V30 19 1 19 20
M  V30 20 1 20 21
M  V30 21 2 21 22
M  V30 22 1 22 23
M  V30 23 2 23 24
M  V30 24 1 24 25
M  V30 25 1 24 26
M  V30 26 2 26 27
M  V30 27 2 20 28
M  V30 28 1 15 4
M  V30 29 1 28 16
M  V30 30 1 13 8
M  V30 31 1 27 21
M  V30 32 1 3 29
M  V30 33 1 5 30
M  V30 34 1 6 31
M  V30 35 1 9 32
M  V30 36 1 9 33
M  V30 37 1 10 34
M  V30 38 1 10 35
M  V30 39 1 11 36
M  V30 40 1 12 37
M  V30 41 1 12 38
M  V30 42 1 13 39
M  V30 43 1 13 40
M  V30 44 1 14 41
M  V30 45 1 15 42
M  V30 46 1 17 43
M  V30 47 1 18 44
M  V30 48 1 19 45
M  V30 49 1 22 46
M  V30 50 1 23 47
M  V30 51 1 26 48
M  V30 52 1 27 49
M  V30 END BOND
M  V30 END CTAB
M  END
>  <Dataset>  (896) 
ChEMBL_Kinases

>  <Ligand_Instance>  (896) 
nan

>  <PDB_ID>  (896) 
nan

>  <Standardized_SMILES>  (896) 
O=C(Nc1ccc(N2CCNCC2)cc1)c1cccc(-c2ccc(Cl)cc2)n1

>  <Name>  (896) 
nan

>  <Pocket>  (896) 
nan

>  <ATP_Site>  (896) 
nan

>  <Peripheral>  (896) 
nan

>  <Num_H_Atoms_ProtBoundConf>  (896) 
nan

>  <Num_Resolved_Atoms>  (896) 
nan

>  <Num_Not_Resolved_Atoms>  (896) 
nan

$$$$
CHEMBL2017458
     RDKit          3D

  0  0  0  0  0  0  0  0  0  0999 V3000
M  V30 BEGIN CTAB
M  V30 COUNTS 50 53 0 0 0
M  V30 BEGIN ATOM
M  V30 1 C 2.057571 -3.132133 4.672973 0
M  V30 2 N 1.894515 -2.540221 3.355792 0
M  V30 3 C 3.160306 -2.328149 2.689600 0
M  V30 4 O 4.376070 -2.565207 3.001043 0
M  V30 5 C 3.229808 -1.709161 1.345930 0
M  V30 6 C 3.626365 -1.932362 0.032734 0
M  V30 7 C 3.326949 -0.779608 -0.639568 0
M  V30 8 C 2.763264 0.111979 0.255823 0
M  V30 9 C 2.335417 1.440659 -0.166247 0
M  V30 10 C 2.441580 1.942917 -1.444124 0
M  V30 11 C 1.982349 3.227175 -1.670727 0
M  V30 12 C 1.430486 3.996107 -0.653289 0
M  V30 13 Cl 0.850081 5.621271 -0.940143 0
M  V30 14 C 1.315581 3.510989 0.633100 0
M  V30 15 C 1.781476 2.219378 0.843643 0
M  V30 16 O 2.733658 -0.489703 1.398599 0
M  V30 17 C 0.726468 -2.145989 2.636034 0
M  V30 18 C 0.146134 -0.897259 2.655177 0
M  V30 19 C -0.985810 -0.610957 1.923522 0
M  V30 20 C -1.605670 -1.546596 1.132774 0
M  V30 21 N -2.759656 -1.250476 0.381810 0
M  V30 22 C -3.326671 0.069358 0.175400 0
M  V30 23 C -3.459974 0.350471 -1.303537 0
M  V30 24 N -3.172278 -0.720007 -2.169707 0
M  V30 25 C -3.431949 -2.028858 -1.768961 0
M  V30 26 C -3.584479 -2.220915 -0.308492 0
M  V30 27 C -1.057673 -2.805828 1.085882 0
M  V30 28 C 0.090113 -3.088316 1.830294 0
M  V30 29 H 2.410513 -4.202047 4.619100 0
M  V30 30 H 1.130627 -3.111460 5.277058 0
M  V30 31 H 2.817999 -2.578136 5.270959 0
M  V30 32 H 4.046476 -2.921201 -0.084857 0
M  V30 33 H 3.573880 -0.773097 -1.697213 0
M  V30 34 H 2.870839 1.319399 -2.191382 0
M  V30 35 H 2.047334 3.658218 -2.662579 0
M  V30 36 H 0.891062 4.078429 1.452328 0
M  V30 37 H 1.684942 1.849326 1.863852 0
M  V30 38 H 0.643648 -0.158265 3.284429 0
M  V30 39 H -1.338597 0.399904 2.023995 0
M  V30 40 H -2.806035 0.857286 0.714650 0
M  V30 41 H -4.378070 0.016557 0.584303 0
M  V30 42 H -4.438930 0.797881 -1.574131 0
M  V30 43 H -2.707945 1.166645 -1.526209 0
M  V30 44 H -2.673962 -0.541626 -3.045552 0
M  V30 45 H -2.576915 -2.694086 -2.095112 0
M  V30 46 H -4.327735 -2.450459 -2.301776 0
M  V30 47 H -4.665031 -2.067074 -0.039336 0
M  V30 48 H -3.311045 -3.269608 -0.019847 0
M  V30 49 H -1.419028 -3.627773 0.525027 0
M  V30 50 H 0.543464 -4.088806 1.806224 0
M  V30 END ATOM
M  V30 BEGIN BOND
M  V30 1 1 1 2
M  V30 2 1 2 3
M  V30 3 2 3 4
M  V30 4 1 3 5
M  V30 5 2 5 6
M  V30 6 1 6 7
M  V30 7 2 7 8
M  V30 8 1 8 9
M  V30 9 2 9 10
M  V30 10 1 10 11
M  V30 11 2 11 12
M  V30 12 1 12 13
M  V30 13 1 12 14
M  V30 14 2 14 15
M  V30 15 1 8 16
M  V30 16 1 2 17
M  V30 17 2 17 18
M  V30 18 1 18 19
M  V30 19 2 19 20
M  V30 20 1 20 21
M  V30 21 1 21 22
M  V30 22 1 22 23
M  V30 23 1 23 24
M  V30 24 1 24 25
M  V30 25 1 25 26
M  V30 26 1 20 27
M  V30 27 2 27 28
M  V30 28 1 16 5
M  V30 29 1 28 17
M  V30 30 1 15 9
M  V30 31 1 26 21
M  V30 32 1 1 29
M  V30 33 1 1 30
M  V30 34 1 1 31
M  V30 35 1 6 32
M  V30 36 1 7 33
M  V30 37 1 10 34
M  V30 38 1 11 35
M  V30 39 1 14 36
M  V30 40 1 15 37
M  V30 41 1 18 38
M  V30 42 1 19 39
M  V30 43 1 22 40
M  V30 44 1 22 41
M  V30 45 1 23 42
M  V30 46 1 23 43
M  V30 47 1 24 44
M  V30 48 1 25 45
M  V30 49 1 25 46
M  V30 50 1 26 47
M  V30 51 1 26 48
M  V30 52 1 27 49
M  V30 53 1 28 50
M  V30 END BOND
M  V30 END CTAB
M  END
>  <Dataset>  (897) 
ChEMBL_Kinases

>  <Ligand_Instance>  (897) 
nan

>  <PDB_ID>  (897) 
nan

>  <Standardized_SMILES>  (897) 
CN(C(=O)c1ccc(-c2ccc(Cl)cc2)o1)c1ccc(N2CCNCC2)cc1

>  <Name>  (897) 
nan

>  <Pocket>  (897) 
nan

>  <ATP_Site>  (897) 
nan

>  <Peripheral>  (897) 
nan

>  <Num_H_Atoms_ProtBoundConf>  (897) 
nan

>  <Num_Resolved_Atoms>  (897) 
nan

>  <Num_Not_Resolved_Atoms>  (897) 
nan

$$$$
CHEMBL2017459
     RDKit          3D

  0  0  0  0  0  0  0  0  0  0999 V3000
M  V30 BEGIN CTAB
M  V30 COUNTS 53 56 0 0 0
M  V30 BEGIN ATOM
M  V30 1 C 0.348749 -1.287508 4.502606 0
M  V30 2 C 0.705600 -0.645457 3.168035 0
M  V30 3 N 1.252679 -1.675582 2.270975 0
M  V30 4 C 2.661720 -1.924755 2.234267 0
M  V30 5 O 3.521684 -2.826434 2.315745 0
M  V30 6 C 3.349445 -0.633062 1.993358 0
M  V30 7 C 4.713089 -0.260099 2.037231 0
M  V30 8 C 4.838871 1.060127 1.717164 0
M  V30 9 C 3.596879 1.507421 1.480967 0
M  V30 10 C 2.873659 2.708687 1.105296 0
M  V30 11 C 1.494978 2.886827 1.248775 0
M  V30 12 C 0.903384 4.058710 0.761371 0
M  V30 13 C 1.641173 5.037980 0.149804 0
M  V30 14 Cl 0.706296 6.408310 -0.383918 0
M  V30 15 C 3.027484 4.871229 0.001197 0
M  V30 16 C 3.609822 3.692492 0.491793 0
M  V30 17 O 2.851700 0.509869 1.659824 0
M  V30 18 C 0.181833 -2.324951 1.605404 0
M  V30 19 C 0.112179 -1.487354 0.471597 0
M  V30 20 C -0.815711 -1.680378 -0.556578 0
M  V30 21 C -1.698907 -2.759075 -0.429700 0
M  V30 22 N -2.689725 -2.984353 -1.439231 0
M  V30 23 C -3.409913 -1.775877 -1.837152 0
M  V30 24 C -4.849413 -1.972817 -1.327894 0
M  V30 25 N -5.306463 -3.320382 -1.586096 0
M  V30 26 C -4.519721 -3.951787 -2.650049 0
M  V30 27 C -3.112896 -4.151779 -2.190454 0
M  V30 28 C -1.621208 -3.573985 0.682520 0
M  V30 29 C -0.707683 -3.373766 1.685530 0
M  V30 30 H 0.933214 -2.212336 4.699000 0
M  V30 31 H -0.748096 -1.502052 4.509233 0
M  V30 32 H 0.542639 -0.608710 5.351868 0
M  V30 33 H -0.143205 -0.115716 2.721669 0
M  V30 34 H 1.469899 0.124401 3.440213 0
M  V30 35 H 5.492110 -0.975462 2.304870 0
M  V30 36 H 5.680423 1.728863 1.637600 0
M  V30 37 H 0.936042 2.103114 1.741835 0
M  V30 38 H -0.172657 4.057405 0.949185 0
M  V30 39 H 3.460329 5.720031 -0.499672 0
M  V30 40 H 4.677579 3.707977 0.298690 0
M  V30 41 H 0.678973 -0.600977 0.138705 0
M  V30 42 H -0.977719 -1.109904 -1.492586 0
M  V30 43 H -3.494863 -1.735460 -2.925252 0
M  V30 44 H -2.984721 -0.856338 -1.443252 0
M  V30 45 H -5.545442 -1.274454 -1.804584 0
M  V30 46 H -4.826514 -1.851082 -0.228649 0
M  V30 47 H -5.219926 -3.943325 -0.731160 0
M  V30 48 H -5.064770 -4.910560 -2.879229 0
M  V30 49 H -4.618781 -3.345484 -3.558690 0
M  V30 50 H -2.933634 -5.097716 -1.675110 0
M  V30 51 H -2.484543 -4.158656 -3.136954 0
M  V30 52 H -2.263636 -4.426466 0.860929 0
M  V30 53 H -0.466219 -3.863329 2.606560 0
M  V30 END ATOM
M  V30 BEGIN BOND
M  V30 1 1 1 2
M  V30 2 1 2 3
M  V30 3 1 3 4
M  V30 4 2 4 5
M  V30 5 1 4 6
M  V30 6 2 6 7
M  V30 7 1 7 8
M  V30 8 2 8 9
M  V30 9 1 9 10
M  V30 10 2 10 11
M  V30 11 1 11 12
M  V30 12 2 12 13
M  V30 13 1 13 14
M  V30 14 1 13 15
M  V30 15 2 15 16
M  V30 16 1 9 17
M  V30 17 1 3 18
M  V30 18 2 18 19
M  V30 19 1 19 20
M  V30 20 2 20 21
M  V30 21 1 21 22
M  V30 22 1 22 23
M  V30 23 1 23 24
M  V30 24 1 24 25
M  V30 25 1 25 26
M  V30 26 1 26 27
M  V30 27 1 21 28
M  V30 28 2 28 29
M  V30 29 1 17 6
M  V30 30 1 29 18
M  V30 31 1 16 10
M  V30 32 1 27 22
M  V30 33 1 1 30
M  V30 34 1 1 31
M  V30 35 1 1 32
M  V30 36 1 2 33
M  V30 37 1 2 34
M  V30 38 1 7 35
M  V30 39 1 8 36
M  V30 40 1 11 37
M  V30 41 1 12 38
M  V30 42 1 15 39
M  V30 43 1 16 40
M  V30 44 1 19 41
M  V30 45 1 20 42
M  V30 46 1 23 43
M  V30 47 1 23 44
M  V30 48 1 24 45
M  V30 49 1 24 46
M  V30 50 1 25 47
M  V30 51 1 26 48
M  V30 52 1 26 49
M  V30 53 1 27 50
M  V30 54 1 27 51
M  V30 55 1 28 52
M  V30 56 1 29 53
M  V30 END BOND
M  V30 END CTAB
M  END
>  <Dataset>  (898) 
ChEMBL_Kinases

>  <Ligand_Instance>  (898) 
nan

>  <PDB_ID>  (898) 
nan

>  <Standardized_SMILES>  (898) 
CCN(C(=O)c1ccc(-c2ccc(Cl)cc2)o1)c1ccc(N2CCNCC2)cc1

>  <Name>  (898) 
nan

>  <Pocket>  (898) 
nan

>  <ATP_Site>  (898) 
nan

>  <Peripheral>  (898) 
nan

>  <Num_H_Atoms_ProtBoundConf>  (898) 
nan

>  <Num_Resolved_Atoms>  (898) 
nan

>  <Num_Not_Resolved_Atoms>  (898) 
nan

$$$$
CHEMBL2017445
     RDKit          3D

  0  0  0  0  0  0  0  0  0  0999 V3000
M  V30 BEGIN CTAB
M  V30 COUNTS 50 53 0 0 0
M  V30 BEGIN ATOM
M  V30 1 C 4.211318 -3.642825 2.590897 0
M  V30 2 C 5.632617 -3.251688 2.343622 0
M  V30 3 C 6.677836 -4.007638 2.850347 0
M  V30 4 C 8.001967 -3.644895 2.621037 0
M  V30 5 Cl 9.227847 -4.705608 3.330320 0
M  V30 6 C 8.264714 -2.513114 1.876258 0
M  V30 7 C 7.222329 -1.772723 1.379790 0
M  V30 8 C 5.906802 -2.122082 1.600338 0
M  V30 9 C 4.824582 -1.307538 1.054537 0
M  V30 10 C 4.983703 -0.164080 0.302292 0
M  V30 11 C 3.720204 0.295792 -0.011277 0
M  V30 12 C 2.826563 -0.607486 0.576650 0
M  V30 13 C 1.350218 -0.650384 0.592763 0
M  V30 14 O 0.610072 -1.505246 1.148600 0
M  V30 15 N 0.656706 0.381960 -0.091540 0
M  V30 16 C -0.784997 0.408809 -0.120956 0
M  V30 17 C -1.508631 1.081866 0.871105 0
M  V30 18 C -2.885424 1.087722 0.812023 0
M  V30 19 C -3.557216 0.454357 -0.188323 0
M  V30 20 N -4.973286 0.510419 -0.172691 0
M  V30 21 C -5.642206 1.234148 0.890998 0
M  V30 22 C -7.118398 1.387744 0.603376 0
M  V30 23 N -7.375746 1.817158 -0.748679 0
M  V30 24 C -6.789007 0.949497 -1.736137 0
M  V30 25 C -5.877258 -0.090251 -1.126425 0
M  V30 26 C -2.861410 -0.213794 -1.174097 0
M  V30 27 C -1.480928 -0.237461 -1.142088 0
M  V30 28 O 3.542084 -1.540524 1.197484 0
M  V30 29 H 3.644008 -2.865698 3.119385 0
M  V30 30 H 4.215508 -4.599791 3.145012 0
M  V30 31 H 3.755716 -3.845144 1.591379 0
M  V30 32 H 6.439926 -4.894879 3.434083 0
M  V30 33 H 9.324168 -2.276768 1.728464 0
M  V30 34 H 7.498486 -0.909310 0.812163 0
M  V30 35 H 5.897849 0.315868 -0.006440 0
M  V30 36 H 3.378534 1.134375 -0.566848 0
M  V30 37 H 1.204612 1.130656 -0.579318 0
M  V30 38 H -0.902907 1.560089 1.631158 0
M  V30 39 H -3.302528 1.640841 1.636268 0
M  V30 40 H -5.179589 2.218676 1.093391 0
M  V30 41 H -5.572491 0.606900 1.811127 0
M  V30 42 H -7.638249 0.441531 0.820003 0
M  V30 43 H -7.525936 2.159363 1.286436 0
M  V30 44 H -7.227570 2.823028 -0.907400 0
M  V30 45 H -7.562526 0.463445 -2.351608 0
M  V30 46 H -6.157064 1.571631 -2.397847 0
M  V30 47 H -6.532703 -0.773732 -0.511844 0
M  V30 48 H -5.407556 -0.709479 -1.888699 0
M  V30 49 H -3.371061 -0.722589 -1.976010 0
M  V30 50 H -0.882157 -0.742585 -1.883810 0
M  V30 END ATOM
M  V30 BEGIN BOND
M  V30 1 1 1 2
M  V30 2 2 2 3
M  V30 3 1 3 4
M  V30 4 1 4 5
M  V30 5 2 4 6
M  V30 6 1 6 7
M  V30 7 2 7 8
M  V30 8 1 8 9
M  V30 9 2 9 10
M  V30 10 1 10 11
M  V30 11 2 11 12
M  V30 12 1 12 13
M  V30 13 2 13 14
M  V30 14 1 13 15
M  V30 15 1 15 16
M  V30 16 2 16 17
M  V30 17 1 17 18
M  V30 18 2 18 19
M  V30 19 1 19 20
M  V30 20 1 20 21
M  V30 21 1 21 22
M  V30 22 1 22 23
M  V30 23 1 23 24
M  V30 24 1 24 25
M  V30 25 1 19 26
M  V30 26 2 26 27
M  V30 27 1 12 28
M  V30 28 1 8 2
M  V30 29 1 28 9
M  V30 30 1 27 16
M  V30 31 1 25 20
M  V30 32 1 1 29
M  V30 33 1 1 30
M  V30 34 1 1 31
M  V30 35 1 3 32
M  V30 36 1 6 33
M  V30 37 1 7 34
M  V30 38 1 10 35
M  V30 39 1 11 36
M  V30 40 1 15 37
M  V30 41 1 17 38
M  V30 42 1 18 39
M  V30 43 1 21 40
M  V30 44 1 21 41
M  V30 45 1 22 42
M  V30 46 1 22 43
M  V30 47 1 23 44
M  V30 48 1 24 45
M  V30 49 1 24 46
M  V30 50 1 25 47
M  V30 51 1 25 48
M  V30 52 1 26 49
M  V30 53 1 27 50
M  V30 END BOND
M  V30 END CTAB
M  END
>  <Dataset>  (899) 
ChEMBL_Kinases

>  <Ligand_Instance>  (899) 
nan

>  <PDB_ID>  (899) 
nan

>  <Standardized_SMILES>  (899) 
Cc1cc(Cl)ccc1-c1ccc(C(=O)Nc2ccc(N3CCNCC3)cc2)o1

>  <Name>  (899) 
nan

>  <Pocket>  (899) 
nan

>  <ATP_Site>  (899) 
nan

>  <Peripheral>  (899) 
nan

>  <Num_H_Atoms_ProtBoundConf>  (899) 
nan

>  <Num_Resolved_Atoms>  (899) 
nan

>  <Num_Not_Resolved_Atoms>  (899) 
nan

$$$$
CHEMBL199860
     RDKit          3D

  0  0  0  0  0  0  0  0  0  0999 V3000
M  V30 BEGIN CTAB
M  V30 COUNTS 42 43 0 0 0
M  V30 BEGIN ATOM
M  V30 1 C 3.344690 -2.349520 2.769247 0
M  V30 2 C 1.896089 -2.121855 2.505742 0
M  V30 3 C 1.249352 -1.050802 1.873512 0
M  V30 4 N 2.160211 -0.096598 1.421446 0
M  V30 5 C 2.843329 0.358384 0.290016 0
M  V30 6 C 2.667469 1.689807 -0.091517 0
M  V30 7 C 3.253284 2.291627 -1.182386 0
M  V30 8 C 4.070594 1.465162 -1.922694 0
M  V30 9 Br 4.921756 2.225459 -3.456104 0
M  V30 10 C 4.315425 0.141670 -1.639690 0
M  V30 11 C 3.672894 -0.343764 -0.525502 0
M  V30 12 F 3.903921 -1.645496 -0.245482 0
M  V30 13 C -0.121808 -1.111979 1.789584 0
M  V30 14 C -0.750133 0.016152 1.134726 0
M  V30 15 O -0.393500 1.076113 0.604788 0
M  V30 16 N -2.163856 0.026702 1.001656 0
M  V30 17 O -2.878859 1.014248 0.413543 0
M  V30 18 C -2.994360 0.701940 -0.930866 0
M  V30 19 C -3.780153 1.738257 -1.705885 0
M  V30 20 O -5.073870 1.860831 -1.202393 0
M  V30 21 C -0.852709 -2.156372 2.289075 0
M  V30 22 N -0.209201 -3.152301 2.879833 0
M  V30 23 C -1.017483 -4.263537 3.407364 0
M  V30 24 C 1.149166 -3.178766 3.010410 0
M  V30 25 O 1.602747 -4.203277 3.600457 0
M  V30 26 H 3.634716 -3.209992 2.128666 0
M  V30 27 H 3.937006 -1.488098 2.454332 0
M  V30 28 H 3.538755 -2.628104 3.809406 0
M  V30 29 H 2.415208 0.490413 2.267431 0
M  V30 30 H 2.017563 2.356072 0.498974 0
M  V30 31 H 3.072832 3.330351 -1.420648 0
M  V30 32 H 4.966401 -0.458845 -2.256160 0
M  V30 33 H -2.861402 -0.708339 1.328407 0
M  V30 34 H -3.549984 -0.252319 -1.059829 0
M  V30 35 H -2.018315 0.556578 -1.429997 0
M  V30 36 H -3.273327 2.713904 -1.755836 0
M  V30 37 H -3.879823 1.343669 -2.742483 0
M  V30 38 H -5.323656 1.122542 -0.603668 0
M  V30 39 H -1.925345 -2.207048 2.224810 0
M  V30 40 H -1.971388 -4.317270 2.843548 0
M  V30 41 H -0.487778 -5.221283 3.178261 0
M  V30 42 H -1.241568 -4.146864 4.477618 0
M  V30 END ATOM
M  V30 BEGIN BOND
M  V30 1 1 1 2
M  V30 2 2 2 3
M  V30 3 1 3 4
M  V30 4 1 4 5
M  V30 5 2 5 6
M  V30 6 1 6 7
M  V30 7 2 7 8
M  V30 8 1 8 9
M  V30 9 1 8 10
M  V30 10 2 10 11
M  V30 11 1 11 12
M  V30 12 1 3 13
M  V30 13 1 13 14
M  V30 14 2 14 15
M  V30 15 1 14 16
M  V30 16 1 16 17
M  V30 17 1 17 18
M  V30 18 1 18 19
M  V30 19 1 19 20
M  V30 20 2 13 21
M  V30 21 1 21 22
M  V30 22 1 22 23
M  V30 23 1 22 24
M  V30 24 2 24 25
M  V30 25 1 24 2
M  V30 26 1 11 5
M  V30 27 1 1 26
M  V30 28 1 1 27
M  V30 29 1 1 28
M  V30 30 1 4 29
M  V30 31 1 6 30
M  V30 32 1 7 31
M  V30 33 1 10 32
M  V30 34 1 16 33
M  V30 35 1 18 34
M  V30 36 1 18 35
M  V30 37 1 19 36
M  V30 38 1 19 37
M  V30 39 1 20 38
M  V30 40 1 21 39
M  V30 41 1 23 40
M  V30 42 1 23 41
M  V30 43 1 23 42
M  V30 END BOND
M  V30 END CTAB
M  END
>  <Dataset>  (900) 
ChEMBL_Kinases

>  <Ligand_Instance>  (900) 
nan

>  <PDB_ID>  (900) 
nan

>  <Standardized_SMILES>  (900) 
Cc1c(Nc2ccc(Br)cc2F)c(C(=O)NOCCO)cn(C)c1=O

>  <Name>  (900) 
nan

>  <Pocket>  (900) 
nan

>  <ATP_Site>  (900) 
nan

>  <Peripheral>  (900) 
nan

>  <Num_H_Atoms_ProtBoundConf>  (900) 
nan

>  <Num_Resolved_Atoms>  (900) 
nan

>  <Num_Not_Resolved_Atoms>  (900) 
nan

$$$$
CHEMBL199853
     RDKit          3D

  0  0  0  0  0  0  0  0  0  0999 V3000
M  V30 BEGIN CTAB
M  V30 COUNTS 43 46 0 0 0
M  V30 BEGIN ATOM
M  V30 1 C 1.865515 -1.688473 -2.419050 0
M  V30 2 O 1.819623 -0.775167 -1.367468 0
M  V30 3 C 2.894693 0.004021 -1.045358 0
M  V30 4 C 4.029933 -0.109567 -1.775054 0
M  V30 5 C 5.106933 0.684665 -1.457908 0
M  V30 6 C 5.003744 1.564482 -0.416964 0
M  V30 7 C 6.126566 2.414384 -0.055965 0
M  V30 8 O 7.169078 2.316883 -0.714359 0
M  V30 9 O 6.078047 3.330439 0.996038 0
M  V30 10 C 3.794586 1.602005 0.269037 0
M  V30 11 C 2.650767 0.831286 0.015119 0
M  V30 12 C 1.593822 1.021712 0.974250 0
M  V30 13 N 1.383826 2.180933 1.654631 0
M  V30 14 N 0.394546 2.056973 2.498031 0
M  V30 15 C -0.135685 0.826139 2.459689 0
M  V30 16 N -1.128349 0.242310 3.149969 0
M  V30 17 C -1.451618 -1.045096 2.945081 0
M  V30 18 N -2.483154 -1.803177 3.589304 0
M  V30 19 C -3.632047 -2.226466 2.872619 0
M  V30 20 C -3.839664 -1.959927 1.539406 0
M  V30 21 C -4.934435 -2.368259 0.827345 0
M  V30 22 C -5.892922 -3.092808 1.481535 0
M  V30 23 F -6.976352 -3.493064 0.755733 0
M  V30 24 C -5.706198 -3.369080 2.807905 0
M  V30 25 C -4.604546 -2.956754 3.521689 0
M  V30 26 F -4.452188 -3.241065 4.820346 0
M  V30 27 C -0.710759 -1.747065 1.984698 0
M  V30 28 C 0.299695 -1.115771 1.295970 0
M  V30 29 C 0.637786 0.181004 1.487405 0
M  V30 30 H 0.887737 -2.253040 -2.436560 0
M  V30 31 H 1.931176 -1.233995 -3.434650 0
M  V30 32 H 2.634524 -2.466973 -2.292791 0
M  V30 33 H 4.033457 -0.828139 -2.581501 0
M  V30 34 H 6.017501 0.606245 -2.024072 0
M  V30 35 H 6.813344 4.039217 1.142249 0
M  V30 36 H 3.825350 2.335917 1.072361 0
M  V30 37 H 1.888946 3.106238 1.587632 0
M  V30 38 H -2.374542 -2.043363 4.597745 0
M  V30 39 H -3.023350 -1.374422 1.087560 0
M  V30 40 H -4.934232 -2.067749 -0.212489 0
M  V30 41 H -6.504876 -3.952294 3.280745 0
M  V30 42 H -0.943537 -2.786815 1.791840 0
M  V30 43 H 0.822225 -1.725702 0.617047 0
M  V30 END ATOM
M  V30 BEGIN BOND
M  V30 1 1 1 2
M  V30 2 1 2 3
M  V30 3 2 3 4
M  V30 4 1 4 5
M  V30 5 2 5 6
M  V30 6 1 6 7
M  V30 7 2 7 8
M  V30 8 1 7 9
M  V30 9 1 6 10
M  V30 10 2 10 11
M  V30 11 1 11 12
M  V30 12 1 12 13
M  V30 13 1 13 14
M  V30 14 2 14 15
M  V30 15 1 15 16
M  V30 16 2 16 17
M  V30 17 1 17 18
M  V30 18 1 18 19
M  V30 19 2 19 20
M  V30 20 1 20 21
M  V30 21 2 21 22
M  V30 22 1 22 23
M  V30 23 1 22 24
M  V30 24 2 24 25
M  V30 25 1 25 26
M  V30 26 1 17 27
M  V30 27 2 27 28
M  V30 28 1 28 29
M  V30 29 1 11 3
M  V30 30 2 29 12
M  V30 31 1 29 15
M  V30 32 1 25 19
M  V30 33 1 1 30
M  V30 34 1 1 31
M  V30 35 1 1 32
M  V30 36 1 4 33
M  V30 37 1 5 34
M  V30 38 1 9 35
M  V30 39 1 10 36
M  V30 40 1 13 37
M  V30 41 1 18 38
M  V30 42 1 20 39
M  V30 43 1 21 40
M  V30 44 1 24 41
M  V30 45 1 27 42
M  V30 46 1 28 43
M  V30 END BOND
M  V30 END CTAB
M  END
>  <Dataset>  (901) 
ChEMBL_Kinases

>  <Ligand_Instance>  (901) 
nan

>  <PDB_ID>  (901) 
nan

>  <Standardized_SMILES>  (901) 
COc1ccc(C(=O)O)cc1-c1[nH]nc2nc(Nc3ccc(F)cc3F)ccc12

>  <Name>  (901) 
nan

>  <Pocket>  (901) 
nan

>  <ATP_Site>  (901) 
nan

>  <Peripheral>  (901) 
nan

>  <Num_H_Atoms_ProtBoundConf>  (901) 
nan

>  <Num_Resolved_Atoms>  (901) 
nan

>  <Num_Not_Resolved_Atoms>  (901) 
nan

$$$$
CHEMBL1998165
     RDKit          3D

  0  0  0  0  0  0  0  0  0  0999 V3000
M  V30 BEGIN CTAB
M  V30 COUNTS 40 41 0 0 0
M  V30 BEGIN ATOM
M  V30 1 C 2.004971 -6.005062 1.016645 0
M  V30 2 N 1.108084 -5.274097 1.853763 0
M  V30 3 C 0.284116 -4.317704 1.180329 0
M  V30 4 C 1.129661 -3.190863 0.668620 0
M  V30 5 O 1.758814 -2.597908 1.783823 0
M  V30 6 N 2.459539 -1.536349 1.261703 0
M  V30 7 C 1.571357 -0.415877 1.287406 0
M  V30 8 O 0.460051 -0.732778 1.763373 0
M  V30 9 C 1.911289 0.920296 0.821574 0
M  V30 10 C 3.171614 1.228990 0.366461 0
M  V30 11 C 3.452758 2.534060 -0.044043 0
M  V30 12 C 2.429706 3.484093 0.025783 0
M  V30 13 F 2.740959 4.756082 -0.384139 0
M  V30 14 C 1.180513 3.138309 0.486530 0
M  V30 15 F 0.291118 4.158682 0.498215 0
M  V30 16 C 0.899158 1.845995 0.893113 0
M  V30 17 N -0.442161 1.679589 1.306833 0
M  V30 18 C -1.714433 1.539388 0.746683 0
M  V30 19 C -2.539558 2.575518 1.209406 0
M  V30 20 C -3.871533 2.656646 0.783707 0
M  V30 21 C -4.346254 1.703487 -0.091168 0
M  V30 22 I -6.343123 1.762413 -0.774726 0
M  V30 23 C -3.567060 0.665818 -0.570977 0
M  V30 24 C -2.269529 0.633126 -0.122828 0
M  V30 25 F -1.425759 -0.317044 -0.526041 0
M  V30 26 H 1.789894 -7.094599 0.993710 0
M  V30 27 H 1.947442 -5.600878 -0.030100 0
M  V30 28 H 3.039906 -5.830570 1.341564 0
M  V30 29 H 0.663349 -5.789865 2.619718 0
M  V30 30 H -0.417881 -3.909932 1.941226 0
M  V30 31 H -0.357152 -4.766600 0.393762 0
M  V30 32 H 0.484441 -2.481028 0.135082 0
M  V30 33 H 1.961820 -3.561596 0.016546 0
M  V30 34 H 3.432745 -1.392672 0.879893 0
M  V30 35 H 3.941176 0.497374 0.317946 0
M  V30 36 H 4.428662 2.809015 -0.405850 0
M  V30 37 H -0.291537 1.678462 2.333670 0
M  V30 38 H -2.307864 3.387399 1.891350 0
M  V30 39 H -4.567660 3.420009 1.092437 0
M  V30 40 H -3.878159 -0.107775 -1.255169 0
M  V30 END ATOM
M  V30 BEGIN BOND
M  V30 1 1 1 2
M  V30 2 1 2 3
M  V30 3 1 3 4
M  V30 4 1 4 5
M  V30 5 1 5 6
M  V30 6 1 6 7
M  V30 7 2 7 8
M  V30 8 1 7 9
M  V30 9 2 9 10
M  V30 10 1 10 11
M  V30 11 2 11 12
M  V30 12 1 12 13
M  V30 13 1 12 14
M  V30 14 1 14 15
M  V30 15 2 14 16
M  V30 16 1 16 17
M  V30 17 1 17 18
M  V30 18 2 18 19
M  V30 19 1 19 20
M  V30 20 2 20 21
M  V30 21 1 21 22
M  V30 22 1 21 23
M  V30 23 2 23 24
M  V30 24 1 24 25
M  V30 25 1 16 9
M  V30 26 1 24 18
M  V30 27 1 1 26
M  V30 28 1 1 27
M  V30 29 1 1 28
M  V30 30 1 2 29
M  V30 31 1 3 30
M  V30 32 1 3 31
M  V30 33 1 4 32
M  V30 34 1 4 33
M  V30 35 1 6 34
M  V30 36 1 10 35
M  V30 37 1 11 36
M  V30 38 1 17 37
M  V30 39 1 19 38
M  V30 40 1 20 39
M  V30 41 1 23 40
M  V30 END BOND
M  V30 END CTAB
M  END
>  <Dataset>  (902) 
ChEMBL_Kinases

>  <Ligand_Instance>  (902) 
nan

>  <PDB_ID>  (902) 
nan

>  <Standardized_SMILES>  (902) 
CNCCONC(=O)c1ccc(F)c(F)c1Nc1ccc(I)cc1F

>  <Name>  (902) 
nan

>  <Pocket>  (902) 
nan

>  <ATP_Site>  (902) 
nan

>  <Peripheral>  (902) 
nan

>  <Num_H_Atoms_ProtBoundConf>  (902) 
nan

>  <Num_Resolved_Atoms>  (902) 
nan

>  <Num_Not_Resolved_Atoms>  (902) 
nan

$$$$
CHEMBL1998001
     RDKit          3D

  0  0  0  0  0  0  0  0  0  0999 V3000
M  V30 BEGIN CTAB
M  V30 COUNTS 35 36 0 0 0
M  V30 BEGIN ATOM
M  V30 1 C 0.019124 -4.957009 3.489022 0
M  V30 2 N 0.037171 -4.695296 2.044524 0
M  V30 3 C -0.094343 -5.823077 1.158375 0
M  V30 4 C 0.188716 -3.335064 1.583738 0
M  V30 5 C 0.173099 -2.942282 0.260877 0
M  V30 6 C 0.326907 -1.620487 -0.091910 0
M  V30 7 C 0.504216 -0.618727 0.838376 0
M  V30 8 C 0.645198 0.793844 0.509604 0
M  V30 9 C -0.077102 1.494172 -0.331225 0
M  V30 10 C -1.130555 0.739943 -0.988623 0
M  V30 11 N -1.979086 0.130752 -1.539806 0
M  V30 12 C 0.091530 2.902764 -0.658629 0
M  V30 13 C 1.107361 3.668693 -0.129353 0
M  V30 14 C 1.133976 5.015029 -0.522013 0
M  V30 15 C 0.210494 5.594929 -1.394411 0
M  V30 16 C -0.787155 4.806427 -1.903545 0
M  V30 17 C -0.834150 3.468497 -1.528407 0
M  V30 18 C 0.522370 -1.006297 2.179886 0
M  V30 19 C 0.366795 -2.333536 2.515856 0
M  V30 20 H -0.582308 -4.171118 4.008918 0
M  V30 21 H 1.063993 -4.861600 3.834057 0
M  V30 22 H -0.399397 -5.953628 3.697832 0
M  V30 23 H -0.033091 -5.586579 0.099199 0
M  V30 24 H 0.708558 -6.543417 1.439072 0
M  V30 25 H -1.041346 -6.371744 1.333134 0
M  V30 26 H 0.040770 -3.672935 -0.492307 0
M  V30 27 H 0.309900 -1.369918 -1.131089 0
M  V30 28 H 1.454037 1.331844 1.034329 0
M  V30 29 H 1.833105 3.260052 0.536818 0
M  V30 30 H 1.915097 5.646417 -0.129170 0
M  V30 31 H 0.300142 6.644137 -1.647103 0
M  V30 32 H -1.510968 5.249145 -2.581394 0
M  V30 33 H -1.654543 2.934132 -1.981177 0
M  V30 34 H 0.663900 -0.206913 2.915694 0
M  V30 35 H 0.401753 -2.482604 3.600141 0
M  V30 END ATOM
M  V30 BEGIN BOND
M  V30 1 1 1 2
M  V30 2 1 2 3
M  V30 3 1 2 4
M  V30 4 2 4 5
M  V30 5 1 5 6
M  V30 6 2 6 7
M  V30 7 1 7 8
M  V30 8 2 8 9
M  V30 9 1 9 10
M  V30 10 3 10 11
M  V30 11 1 9 12
M  V30 12 2 12 13
M  V30 13 1 13 14
M  V30 14 2 14 15
M  V30 15 1 15 16
M  V30 16 2 16 17
M  V30 17 1 7 18
M  V30 18 2 18 19
M  V30 19 1 19 4
M  V30 20 1 17 12
M  V30 21 1 1 20
M  V30 22 1 1 21
M  V30 23 1 1 22
M  V30 24 1 3 23
M  V30 25 1 3 24
M  V30 26 1 3 25
M  V30 27 1 5 26
M  V30 28 1 6 27
M  V30 29 1 8 28
M  V30 30 1 13 29
M  V30 31 1 14 30
M  V30 32 1 15 31
M  V30 33 1 16 32
M  V30 34 1 17 33
M  V30 35 1 18 34
M  V30 36 1 19 35
M  V30 END BOND
M  V30 END CTAB
M  END
>  <Dataset>  (903) 
ChEMBL_Kinases

>  <Ligand_Instance>  (903) 
nan

>  <PDB_ID>  (903) 
nan

>  <Standardized_SMILES>  (903) 
CN(C)c1ccc(/C=C(\C#N)c2ccccc2)cc1

>  <Name>  (903) 
nan

>  <Pocket>  (903) 
nan

>  <ATP_Site>  (903) 
nan

>  <Peripheral>  (903) 
nan

>  <Num_H_Atoms_ProtBoundConf>  (903) 
nan

>  <Num_Resolved_Atoms>  (903) 
nan

>  <Num_Not_Resolved_Atoms>  (903) 
nan

$$$$
CHEMBL199774
     RDKit          3D

  0  0  0  0  0  0  0  0  0  0999 V3000
M  V30 BEGIN CTAB
M  V30 COUNTS 39 40 0 0 0
M  V30 BEGIN ATOM
M  V30 1 C 1.882604 -4.808137 2.248084 0
M  V30 2 N 0.898468 -3.816977 1.848127 0
M  V30 3 C 1.317738 -2.834602 1.028738 0
M  V30 4 C 0.482201 -1.834600 0.577519 0
M  V30 5 C 0.855272 -0.744273 -0.303867 0
M  V30 6 O -0.049415 0.076838 -0.607846 0
M  V30 7 N 2.175733 -0.663605 -0.761395 0
M  V30 8 O 2.840998 0.193671 -1.567154 0
M  V30 9 C 1.932326 1.162407 -1.972055 0
M  V30 10 C 2.564076 2.181874 -2.895172 0
M  V30 11 O 3.617495 2.856580 -2.307169 0
M  V30 12 C -0.820048 -1.912580 1.027449 0
M  V30 13 N -1.809774 -0.938840 0.641463 0
M  V30 14 C -1.893203 0.186813 1.525793 0
M  V30 15 C -1.073548 0.279601 2.635514 0
M  V30 16 C -1.118605 1.355347 3.524057 0
M  V30 17 C -2.020038 2.355662 3.272056 0
M  V30 18 Br -2.108163 3.834482 4.460620 0
M  V30 19 C -2.861042 2.314841 2.181203 0
M  V30 20 C -2.779731 1.226306 1.326908 0
M  V30 21 F -3.589109 1.135482 0.231802 0
M  V30 22 C -1.252030 -2.918205 1.867078 0
M  V30 23 Cl -2.909830 -2.981366 2.414398 0
M  V30 24 C -0.372022 -3.889810 2.284797 0
M  V30 25 O -0.764215 -4.800325 3.045331 0
M  V30 26 H 1.394051 -5.759263 2.501028 0
M  V30 27 H 2.609295 -4.990243 1.429074 0
M  V30 28 H 2.379863 -4.398735 3.140599 0
M  V30 29 H 2.346051 -2.808956 0.698771 0
M  V30 30 H 2.957801 -1.316913 -0.538529 0
M  V30 31 H 1.124180 0.668134 -2.539413 0
M  V30 32 H 1.599750 1.670854 -1.044396 0
M  V30 33 H 2.803154 1.730382 -3.870823 0
M  V30 34 H 1.781620 2.945160 -3.094947 0
M  V30 35 H 3.296449 3.549868 -1.694689 0
M  V30 36 H -2.465742 -0.933856 -0.177021 0
M  V30 37 H -0.345936 -0.491806 2.870587 0
M  V30 38 H -0.463218 1.393570 4.379776 0
M  V30 39 H -3.576490 3.084415 1.959817 0
M  V30 END ATOM
M  V30 BEGIN BOND
M  V30 1 1 1 2
M  V30 2 1 2 3
M  V30 3 2 3 4
M  V30 4 1 4 5
M  V30 5 2 5 6
M  V30 6 1 5 7
M  V30 7 1 7 8
M  V30 8 1 8 9
M  V30 9 1 9 10
M  V30 10 1 10 11
M  V30 11 1 4 12
M  V30 12 1 12 13
M  V30 13 1 13 14
M  V30 14 2 14 15
M  V30 15 1 15 16
M  V30 16 2 16 17
M  V30 17 1 17 18
M  V30 18 1 17 19
M  V30 19 2 19 20
M  V30 20 1 20 21
M  V30 21 2 12 22
M  V30 22 1 22 23
M  V30 23 1 22 24
M  V30 24 2 24 25
M  V30 25 1 24 2
M  V30 26 1 20 14
M  V30 27 1 1 26
M  V30 28 1 1 27
M  V30 29 1 1 28
M  V30 30 1 3 29
M  V30 31 1 7 30
M  V30 32 1 9 31
M  V30 33 1 9 32
M  V30 34 1 10 33
M  V30 35 1 10 34
M  V30 36 1 11 35
M  V30 37 1 13 36
M  V30 38 1 15 37
M  V30 39 1 16 38
M  V30 40 1 19 39
M  V30 END BOND
M  V30 END CTAB
M  END
>  <Dataset>  (904) 
ChEMBL_Kinases

>  <Ligand_Instance>  (904) 
nan

>  <PDB_ID>  (904) 
nan

>  <Standardized_SMILES>  (904) 
Cn1cc(C(=O)NOCCO)c(Nc2ccc(Br)cc2F)c(Cl)c1=O

>  <Name>  (904) 
nan

>  <Pocket>  (904) 
nan

>  <ATP_Site>  (904) 
nan

>  <Peripheral>  (904) 
nan

>  <Num_H_Atoms_ProtBoundConf>  (904) 
nan

>  <Num_Resolved_Atoms>  (904) 
nan

>  <Num_Not_Resolved_Atoms>  (904) 
nan

$$$$
CHEMBL199765
     RDKit          3D

  0  0  0  0  0  0  0  0  0  0999 V3000
M  V30 BEGIN CTAB
M  V30 COUNTS 52 56 0 0 0
M  V30 BEGIN ATOM
M  V30 1 C 7.411491 -2.462871 2.698342 0
M  V30 2 O 6.281745 -2.230761 3.495814 0
M  V30 3 C 5.324275 -1.288207 3.180340 0
M  V30 4 C 4.252952 -1.156986 4.054981 0
M  V30 5 C 3.294568 -0.223245 3.752184 0
M  V30 6 C 3.305079 0.613138 2.630058 0
M  V30 7 C 4.388477 0.429437 1.813331 0
M  V30 8 C 5.385609 -0.489025 2.057895 0
M  V30 9 O 4.591005 1.168764 0.632133 0
M  V30 10 C 3.573914 1.590944 -0.245205 0
M  V30 11 N 4.016922 1.747535 -1.508199 0
M  V30 12 C 3.113025 2.153543 -2.437584 0
M  V30 13 N 1.818374 2.403724 -2.167422 0
M  V30 14 C 1.327995 2.261360 -0.918917 0
M  V30 15 N -0.029831 2.501592 -0.531779 0
M  V30 16 C -0.960882 1.424694 -0.580795 0
M  V30 17 C -2.295912 1.555573 -0.236136 0
M  V30 18 N -3.155425 0.504763 -0.294331 0
M  V30 19 C -2.743092 -0.695168 -0.686935 0
M  V30 20 N -3.613838 -1.815278 -0.759506 0
M  V30 21 C -4.980236 -1.744057 -0.422764 0
M  V30 22 O -5.403247 -0.623260 -0.048277 0
M  V30 23 C -5.923126 -2.853652 -0.475379 0
M  V30 24 C -7.225972 -2.584966 -0.108019 0
M  V30 25 C -8.205433 -3.583160 -0.124751 0
M  V30 26 C -7.755948 -4.825876 -0.532151 0
M  V30 27 F -8.682672 -5.840811 -0.565167 0
M  V30 28 C -6.476486 -5.174192 -0.913548 0
M  V30 29 C -5.556169 -4.121252 -0.869751 0
M  V30 30 N -1.451308 -0.843654 -1.025889 0
M  V30 31 C -0.559129 0.163089 -0.986180 0
M  V30 32 C 2.248716 1.845735 0.037845 0
M  V30 33 N 1.655894 1.720831 1.319365 0
M  V30 34 C 2.106411 1.472473 2.661953 0
M  V30 35 H 8.226704 -1.775103 3.040687 0
M  V30 36 H 7.810215 -3.489455 2.889049 0
M  V30 37 H 7.197397 -2.360892 1.621821 0
M  V30 38 H 4.171796 -1.762511 4.939672 0
M  V30 39 H 2.464355 -0.144592 4.460431 0
M  V30 40 H 6.213361 -0.585007 1.374775 0
M  V30 41 H 3.385683 2.305036 -3.481707 0
M  V30 42 H -0.380983 3.416521 -0.215707 0
M  V30 43 H -2.633154 2.551200 0.088441 0
M  V30 44 H -3.277124 -2.738242 -1.065375 0
M  V30 45 H -7.562247 -1.605583 0.208942 0
M  V30 46 H -9.238116 -3.443578 0.148526 0
M  V30 47 H -6.235742 -6.169697 -1.212342 0
M  V30 48 H -4.541040 -4.336080 -1.157187 0
M  V30 49 H 0.465741 -0.000862 -1.266404 0
M  V30 50 H 0.602642 1.841873 1.281809 0
M  V30 51 H 2.316531 2.435388 3.170264 0
M  V30 52 H 1.300577 0.964268 3.262439 0
M  V30 END ATOM
M  V30 BEGIN BOND
M  V30 1 1 1 2
M  V30 2 1 2 3
M  V30 3 2 3 4
M  V30 4 1 4 5
M  V30 5 2 5 6
M  V30 6 1 6 7
M  V30 7 2 7 8
M  V30 8 1 7 9
M  V30 9 1 9 10
M  V30 10 2 10 11
M  V30 11 1 11 12
M  V30 12 2 12 13
M  V30 13 1 13 14
M  V30 14 1 14 15
M  V30 15 1 15 16
M  V30 16 2 16 17
M  V30 17 1 17 18
M  V30 18 2 18 19
M  V30 19 1 19 20
M  V30 20 1 20 21
M  V30 21 2 21 22
M  V30 22 1 21 23
M  V30 23 2 23 24
M  V30 24 1 24 25
M  V30 25 2 25 26
M  V30 26 1 26 27
M  V30 27 1 26 28
M  V30 28 2 28 29
M  V30 29 1 19 30
M  V30 30 2 30 31
M  V30 31 2 14 32
M  V30 32 1 32 33
M  V30 33 1 33 34
M  V30 34 1 8 3
M  V30 35 1 32 10
M  V30 36 1 34 6
M  V30 37 1 31 16
M  V30 38 1 29 23
M  V30 39 1 1 35
M  V30 40 1 1 36
M  V30 41 1 1 37
M  V30 42 1 4 38
M  V30 43 1 5 39
M  V30 44 1 8 40
M  V30 45 1 12 41
M  V30 46 1 15 42
M  V30 47 1 17 43
M  V30 48 1 20 44
M  V30 49 1 24 45
M  V30 50 1 25 46
M  V30 51 1 28 47
M  V30 52 1 29 48
M  V30 53 1 31 49
M  V30 54 1 33 50
M  V30 55 1 34 51
M  V30 56 1 34 52
M  V30 END BOND
M  V30 END CTAB
M  END
>  <Dataset>  (905) 
ChEMBL_Kinases

>  <Ligand_Instance>  (905) 
nan

>  <PDB_ID>  (905) 
nan

>  <Standardized_SMILES>  (905) 
COc1ccc2c(c1)Oc1ncnc(Nc3cnc(NC(=O)c4ccc(F)cc4)nc3)c1NC2

>  <Name>  (905) 
nan

>  <Pocket>  (905) 
nan

>  <ATP_Site>  (905) 
nan

>  <Peripheral>  (905) 
nan

>  <Num_H_Atoms_ProtBoundConf>  (905) 
nan

>  <Num_Resolved_Atoms>  (905) 
nan

>  <Num_Not_Resolved_Atoms>  (905) 
nan

$$$$
CHEMBL199749
     RDKit          3D

  0  0  0  0  0  0  0  0  0  0999 V3000
M  V30 BEGIN CTAB
M  V30 COUNTS 39 40 0 0 0
M  V30 BEGIN ATOM
M  V30 1 C 2.972896 -2.806547 4.277834 0
M  V30 2 N 1.861705 -2.069381 3.657772 0
M  V30 3 C 1.938596 -1.627069 2.411607 0
M  V30 4 C 0.888142 -0.940304 1.852551 0
M  V30 5 C 0.985735 -0.428147 0.521861 0
M  V30 6 O 0.252386 0.270388 -0.216477 0
M  V30 7 N 2.131581 -0.693370 -0.276425 0
M  V30 8 O 2.113535 -0.156730 -1.520842 0
M  V30 9 C 2.648800 1.099307 -1.606117 0
M  V30 10 C 2.609821 1.663180 -3.012576 0
M  V30 11 O 3.325477 0.865319 -3.910042 0
M  V30 12 C -0.261003 -0.698879 2.569043 0
M  V30 13 N -1.417182 -0.008385 2.135072 0
M  V30 14 C -2.385538 -0.233608 1.135285 0
M  V30 15 C -2.467882 -1.286082 0.275004 0
M  V30 16 C -3.438383 -1.450124 -0.681160 0
M  V30 17 C -4.394846 -0.485225 -0.778307 0
M  V30 18 Br -5.751417 -0.683663 -2.091695 0
M  V30 19 C -4.347326 0.580679 0.062151 0
M  V30 20 C -3.375317 0.715277 0.997521 0
M  V30 21 F -3.405009 1.803497 1.788449 0
M  V30 22 C -0.241375 -1.206872 3.875446 0
M  V30 23 C 0.799780 -1.899782 4.463584 0
M  V30 24 O 0.679961 -2.298661 5.648445 0
M  V30 25 H 3.042434 -2.548910 5.345456 0
M  V30 26 H 2.794418 -3.898528 4.193562 0
M  V30 27 H 3.950015 -2.518024 3.825828 0
M  V30 28 H 2.858152 -1.852773 1.920894 0
M  V30 29 H 2.980051 -1.265534 0.018045 0
M  V30 30 H 3.718961 1.053622 -1.296267 0
M  V30 31 H 2.159921 1.811454 -0.937697 0
M  V30 32 H 1.576427 1.732390 -3.395372 0
M  V30 33 H 3.084641 2.663086 -3.065852 0
M  V30 34 H 3.501758 1.404084 -4.722200 0
M  V30 35 H -1.462499 0.828804 2.755054 0
M  V30 36 H -1.687056 -2.050281 0.371952 0
M  V30 37 H -3.392918 -2.329497 -1.301872 0
M  V30 38 H -5.126274 1.344671 -0.033336 0
M  V30 39 H -1.134204 -1.040187 4.489935 0
M  V30 END ATOM
M  V30 BEGIN BOND
M  V30 1 1 1 2
M  V30 2 1 2 3
M  V30 3 2 3 4
M  V30 4 1 4 5
M  V30 5 2 5 6
M  V30 6 1 5 7
M  V30 7 1 7 8
M  V30 8 1 8 9
M  V30 9 1 9 10
M  V30 10 1 10 11
M  V30 11 1 4 12
M  V30 12 1 12 13
M  V30 13 1 13 14
M  V30 14 2 14 15
M  V30 15 1 15 16
M  V30 16 2 16 17
M  V30 17 1 17 18
M  V30 18 1 17 19
M  V30 19 2 19 20
M  V30 20 1 20 21
M  V30 21 2 12 22
M  V30 22 1 22 23
M  V30 23 2 23 24
M  V30 24 1 23 2
M  V30 25 1 20 14
M  V30 26 1 1 25
M  V30 27 1 1 26
M  V30 28 1 1 27
M  V30 29 1 3 28
M  V30 30 1 7 29
M  V30 31 1 9 30
M  V30 32 1 9 31
M  V30 33 1 10 32
M  V30 34 1 10 33
M  V30 35 1 11 34
M  V30 36 1 13 35
M  V30 37 1 15 36
M  V30 38 1 16 37
M  V30 39 1 19 38
M  V30 40 1 22 39
M  V30 END BOND
M  V30 END CTAB
M  END
>  <Dataset>  (906) 
ChEMBL_Kinases

>  <Ligand_Instance>  (906) 
nan

>  <PDB_ID>  (906) 
nan

>  <Standardized_SMILES>  (906) 
Cn1cc(C(=O)NOCCO)c(Nc2ccc(Br)cc2F)cc1=O

>  <Name>  (906) 
nan

>  <Pocket>  (906) 
nan

>  <ATP_Site>  (906) 
nan

>  <Peripheral>  (906) 
nan

>  <Num_H_Atoms_ProtBoundConf>  (906) 
nan

>  <Num_Resolved_Atoms>  (906) 
nan

>  <Num_Not_Resolved_Atoms>  (906) 
nan

$$$$
CHEMBL199707
     RDKit          3D

  0  0  0  0  0  0  0  0  0  0999 V3000
M  V30 BEGIN CTAB
M  V30 COUNTS 66 70 0 0 0
M  V30 BEGIN ATOM
M  V30 1 C 2.647709 -3.004319 3.939116 0
M  V30 2 C 2.701372 -3.759636 2.624512 0
M  V30 3 C 1.651927 -4.829898 2.706780 0
M  V30 4 C 4.067382 -4.444869 2.598982 0
M  V30 5 N 2.532532 -2.831008 1.572595 0
M  V30 6 C 2.551849 -3.364827 0.251117 0
M  V30 7 C 2.464087 -2.247822 -0.770608 0
M  V30 8 C 1.980839 -1.012408 -0.042430 0
M  V30 9 O 1.452145 -0.037888 -0.852410 0
M  V30 10 C 0.146128 0.391988 -0.730247 0
M  V30 11 C -0.065821 1.383141 -1.700979 0
M  V30 12 C -1.311821 2.015996 -1.823770 0
M  V30 13 C -1.615884 3.053682 -2.803011 0
M  V30 14 C -1.379828 4.350684 -2.401905 0
M  V30 15 C -1.640526 5.386380 -3.266628 0
M  V30 16 C -2.139083 5.116530 -4.535678 0
M  V30 17 C -2.370927 3.814076 -4.924703 0
M  V30 18 C -2.110220 2.754114 -4.055868 0
M  V30 19 Cl -2.363155 1.067224 -4.435026 0
M  V30 20 C -2.361277 1.680349 -0.993249 0
M  V30 21 C -3.611553 2.258075 -1.054734 0
M  V30 22 C -4.601673 1.855585 -0.178783 0
M  V30 23 C -4.289667 0.858997 0.752999 0
M  V30 24 O -5.177599 0.460984 1.578341 0
M  V30 25 N -3.069890 0.282606 0.826674 0
M  V30 26 C -2.812952 -0.736044 1.806606 0
M  V30 27 C -2.509439 -0.582239 3.139303 0
M  V30 28 Cl -2.435067 1.070770 3.675821 0
M  V30 29 C -2.298372 -1.703370 3.906900 0
M  V30 30 C -2.381585 -2.979800 3.381452 0
M  V30 31 C -2.686954 -3.130335 2.041118 0
M  V30 32 C -2.898554 -2.021471 1.269587 0
M  V30 33 Cl -3.278921 -2.365501 -0.421608 0
M  V30 34 C -2.124154 0.703449 -0.049112 0
M  V30 35 C -0.910265 0.067065 0.091791 0
M  V30 36 C 3.158575 -0.569263 0.794793 0
M  V30 37 C 3.435788 -1.715801 1.760412 0
M  V30 38 H 1.840776 -2.233432 3.887050 0
M  V30 39 H 2.296364 -3.698745 4.756073 0
M  V30 40 H 3.616276 -2.632771 4.278765 0
M  V30 41 H 2.055128 -5.782880 3.109421 0
M  V30 42 H 1.162638 -5.061879 1.757854 0
M  V30 43 H 0.809402 -4.550478 3.404071 0
M  V30 44 H 4.869784 -3.738958 2.919569 0
M  V30 45 H 4.284900 -4.936166 1.638684 0
M  V30 46 H 4.084226 -5.251947 3.360269 0
M  V30 47 H 1.582121 -3.924840 0.103195 0
M  V30 48 H 3.388714 -4.058725 0.030417 0
M  V30 49 H 1.784224 -2.452473 -1.597240 0
M  V30 50 H 3.472374 -2.037178 -1.200453 0
M  V30 51 H 1.226241 -1.376234 0.679009 0
M  V30 52 H 0.623406 1.785038 -2.441512 0
M  V30 53 H -0.991191 4.629944 -1.424386 0
M  V30 54 H -1.498529 6.443945 -3.072887 0
M  V30 55 H -2.398285 5.799124 -5.335601 0
M  V30 56 H -2.756745 3.490456 -5.887128 0
M  V30 57 H -3.784324 3.028430 -1.805624 0
M  V30 58 H -5.586071 2.295039 -0.210557 0
M  V30 59 H -2.065740 -1.487596 4.941302 0
M  V30 60 H -2.201803 -3.831099 4.048352 0
M  V30 61 H -2.741908 -4.153128 1.670251 0
M  V30 62 H -0.644460 -0.689351 0.786055 0
M  V30 63 H 3.009936 0.392369 1.287883 0
M  V30 64 H 4.004592 -0.444555 0.079931 0
M  V30 65 H 3.270989 -1.307039 2.768192 0
M  V30 66 H 4.498600 -2.024368 1.708131 0
M  V30 END ATOM
M  V30 BEGIN BOND
M  V30 1 1 1 2
M  V30 2 1 2 3
M  V30 3 1 2 4
M  V30 4 1 2 5
M  V30 5 1 5 6
M  V30 6 1 6 7
M  V30 7 1 7 8
M  V30 8 1 8 9
M  V30 9 1 9 10
M  V30 10 2 10 11
M  V30 11 1 11 12
M  V30 12 1 12 13
M  V30 13 2 13 14
M  V30 14 1 14 15
M  V30 15 2 15 16
M  V30 16 1 16 17
M  V30 17 2 17 18
M  V30 18 1 18 19
M  V30 19 2 12 20
M  V30 20 1 20 21
M  V30 21 2 21 22
M  V30 22 1 22 23
M  V30 23 2 23 24
M  V30 24 1 23 25
M  V30 25 1 25 26
M  V30 26 2 26 27
M  V30 27 1 27 28
M  V30 28 1 27 29
M  V30 29 2 29 30
M  V30 30 1 30 31
M  V30 31 2 31 32
M  V30 32 1 32 33
M  V30 33 1 25 34
M  V30 34 2 34 35
M  V30 35 1 8 36
M  V30 36 1 36 37
M  V30 37 1 37 5
M  V30 38 1 35 10
M  V30 39 1 18 13
M  V30 40 1 34 20
M  V30 41 1 32 26
M  V30 42 1 1 38
M  V30 43 1 1 39
M  V30 44 1 1 40
M  V30 45 1 3 41
M  V30 46 1 3 42
M  V30 47 1 3 43
M  V30 48 1 4 44
M  V30 49 1 4 45
M  V30 50 1 4 46
M  V30 51 1 6 47
M  V30 52 1 6 48
M  V30 53 1 7 49
M  V30 54 1 7 50
M  V30 55 1 8 51
M  V30 56 1 11 52
M  V30 57 1 14 53
M  V30 58 1 15 54
M  V30 59 1 16 55
M  V30 60 1 17 56
M  V30 61 1 21 57
M  V30 62 1 22 58
M  V30 63 1 29 59
M  V30 64 1 30 60
M  V30 65 1 31 61
M  V30 66 1 35 62
M  V30 67 1 36 63
M  V30 68 1 36 64
M  V30 69 1 37 65
M  V30 70 1 37 66
M  V30 END BOND
M  V30 END CTAB
M  END
>  <Dataset>  (907) 
ChEMBL_Kinases

>  <Ligand_Instance>  (907) 
nan

>  <PDB_ID>  (907) 
nan

>  <Standardized_SMILES>  (907) 
CC(C)(C)N1CCC(Oc2cc(-c3ccccc3Cl)c3ccc(=O)n(-c4c(Cl)cccc4Cl)c3c2)CC1

>  <Name>  (907) 
nan

>  <Pocket>  (907) 
nan

>  <ATP_Site>  (907) 
nan

>  <Peripheral>  (907) 
nan

>  <Num_H_Atoms_ProtBoundConf>  (907) 
nan

>  <Num_Resolved_Atoms>  (907) 
nan

>  <Num_Not_Resolved_Atoms>  (907) 
nan

$$$$
CHEMBL199701
     RDKit          3D

  0  0  0  0  0  0  0  0  0  0999 V3000
M  V30 BEGIN CTAB
M  V30 COUNTS 57 62 0 0 0
M  V30 BEGIN ATOM
M  V30 1 O 3.854573 -2.239530 -2.237191 0
M  V30 2 C 3.238154 -1.573539 -1.358729 0
M  V30 3 C 4.014978 -0.705960 -0.605687 0
M  V30 4 C 3.478084 0.086417 0.390808 0
M  V30 5 C 2.105955 -0.052059 0.579777 0
M  V30 6 C 1.459904 0.701906 1.561449 0
M  V30 7 C 2.304076 1.618568 2.351295 0
M  V30 8 C 2.502591 2.929458 1.917737 0
M  V30 9 C 3.298689 3.759500 2.682062 0
M  V30 10 C 3.882282 3.299959 3.846221 0
M  V30 11 F 4.650340 4.216499 4.518200 0
M  V30 12 C 3.679038 1.990732 4.271511 0
M  V30 13 C 2.882753 1.144475 3.516064 0
M  V30 14 Cl 2.636359 -0.512147 4.070903 0
M  V30 15 C 0.106292 0.620227 1.807726 0
M  V30 16 C -0.648031 -0.249606 1.046656 0
M  V30 17 C -2.119394 -0.434472 1.209651 0
M  V30 18 C -2.347144 -1.825115 1.712767 0
M  V30 19 C -3.588817 -2.469562 1.153619 0
M  V30 20 C -4.819149 -1.610573 1.450059 0
M  V30 21 C -5.154880 -0.997708 0.101811 0
M  V30 22 C -3.793745 -1.070637 -0.579967 0
M  V30 23 C -2.820554 -0.072528 -0.034670 0
M  V30 24 N -3.419150 -2.435555 -0.298219 0
M  V30 25 C -0.016192 -0.988199 0.085256 0
M  V30 26 C 1.340862 -0.919612 -0.176142 0
M  V30 27 N 1.902553 -1.680078 -1.144003 0
M  V30 28 C 1.146390 -2.566041 -1.922195 0
M  V30 29 C 0.518513 -1.947491 -2.996630 0
M  V30 30 Cl 0.657269 -0.216312 -3.349905 0
M  V30 31 C -0.276351 -2.640032 -3.890158 0
M  V30 32 C -0.451896 -4.008183 -3.703186 0
M  V30 33 C 0.161867 -4.643415 -2.643231 0
M  V30 34 C 0.952652 -3.932377 -1.761259 0
M  V30 35 Cl 1.790398 -4.609626 -0.374515 0
M  V30 36 H 5.080031 -0.618200 -0.773866 0
M  V30 37 H 4.028989 0.773821 1.003463 0
M  V30 38 H 2.014457 3.243737 0.983634 0
M  V30 39 H 3.394723 4.755645 2.267650 0
M  V30 40 H 4.167759 1.691659 5.197926 0
M  V30 41 H -0.378301 1.199437 2.558962 0
M  V30 42 H -2.425227 0.254422 2.036142 0
M  V30 43 H -2.440461 -1.855677 2.832848 0
M  V30 44 H -1.498682 -2.496140 1.464872 0
M  V30 45 H -3.664191 -3.485263 1.539937 0
M  V30 46 H -4.558283 -0.842936 2.209173 0
M  V30 47 H -5.634834 -2.246445 1.849249 0
M  V30 48 H -5.540126 0.020482 0.156155 0
M  V30 49 H -5.807854 -1.712171 -0.443109 0
M  V30 50 H -3.952918 -0.904112 -1.661542 0
M  V30 51 H -3.355361 0.907615 0.036852 0
M  V30 52 H -2.073879 0.103617 -0.863837 0
M  V30 53 H -4.020745 -3.087891 -0.807088 0
M  V30 54 H -0.589683 -1.678338 -0.524784 0
M  V30 55 H -0.779625 -2.195749 -4.735077 0
M  V30 56 H -1.074988 -4.594918 -4.389757 0
M  V30 57 H 0.061945 -5.713731 -2.444600 0
M  V30 END ATOM
M  V30 BEGIN BOND
M  V30 1 2 1 2
M  V30 2 1 2 3
M  V30 3 2 3 4
M  V30 4 1 4 5
M  V30 5 2 5 6
M  V30 6 1 6 7
M  V30 7 2 7 8
M  V30 8 1 8 9
M  V30 9 2 9 10
M  V30 10 1 10 11
M  V30 11 1 10 12
M  V30 12 2 12 13
M  V30 13 1 13 14
M  V30 14 1 6 15
M  V30 15 2 15 16
M  V30 16 1 16 17
M  V30 17 1 17 18
M  V30 18 1 18 19
M  V30 19 1 19 20
M  V30 20 1 20 21
M  V30 21 1 21 22
M  V30 22 1 22 23
M  V30 23 1 22 24
M  V30 24 1 16 25
M  V30 25 2 25 26
M  V30 26 1 26 27
M  V30 27 1 27 28
M  V30 28 2 28 29
M  V30 29 1 29 30
M  V30 30 1 29 31
M  V30 31 2 31 32
M  V30 32 1 32 33
M  V30 33 2 33 34
M  V30 34 1 34 35
M  V30 35 1 27 2
M  V30 36 1 34 28
M  V30 37 1 26 5
M  V30 38 1 13 7
M  V30 39 1 23 17
M  V30 40 1 24 19
M  V30 41 1 3 36
M  V30 42 1 4 37
M  V30 43 1 8 38
M  V30 44 1 9 39
M  V30 45 1 12 40
M  V30 46 1 15 41
M  V30 47 1 17 42
M  V30 48 1 18 43
M  V30 49 1 18 44
M  V30 50 1 19 45
M  V30 51 1 20 46
M  V30 52 1 20 47
M  V30 53 1 21 48
M  V30 54 1 21 49
M  V30 55 1 22 50
M  V30 56 1 23 51
M  V30 57 1 23 52
M  V30 58 1 24 53
M  V30 59 1 25 54
M  V30 60 1 31 55
M  V30 61 1 32 56
M  V30 62 1 33 57
M  V30 END BOND
M  V30 END CTAB
M  END
>  <Dataset>  (908) 
ChEMBL_Kinases

>  <Ligand_Instance>  (908) 
nan

>  <PDB_ID>  (908) 
nan

>  <Standardized_SMILES>  (908) 
O=c1ccc2c(-c3ccc(F)cc3Cl)cc(C3CC4CCC(C3)N4)cc2n1-c1c(Cl)cccc1Cl

>  <Name>  (908) 
nan

>  <Pocket>  (908) 
nan

>  <ATP_Site>  (908) 
nan

>  <Peripheral>  (908) 
nan

>  <Num_H_Atoms_ProtBoundConf>  (908) 
nan

>  <Num_Resolved_Atoms>  (908) 
nan

>  <Num_Not_Resolved_Atoms>  (908) 
nan

$$$$
CHEMBL199699
     RDKit          3D

  0  0  0  0  0  0  0  0  0  0999 V3000
M  V30 BEGIN CTAB
M  V30 COUNTS 52 55 0 0 0
M  V30 BEGIN ATOM
M  V30 1 C 0.357366 1.559450 6.371919 0
M  V30 2 O -0.049014 0.922154 5.199950 0
M  V30 3 C 0.402283 1.184961 3.921312 0
M  V30 4 C 1.348881 2.185960 3.848621 0
M  V30 5 C 1.866085 2.527326 2.616469 0
M  V30 6 C 1.402885 1.841353 1.514214 0
M  V30 7 C 1.961880 2.222561 0.253584 0
M  V30 8 C 2.416193 2.537094 -0.819459 0
M  V30 9 C 2.952585 2.912429 -2.136935 0
M  V30 10 C 2.061662 3.891789 -2.848457 0
M  V30 11 C 3.096136 1.663087 -3.002877 0
M  V30 12 N 4.294942 3.413864 -1.943490 0
M  V30 13 C 0.455407 0.850004 1.648369 0
M  V30 14 C -0.088872 0.475640 2.857258 0
M  V30 15 C -1.081136 -0.571914 2.943339 0
M  V30 16 N -1.698697 -1.044373 4.037754 0
M  V30 17 N -2.564992 -2.023290 3.739688 0
M  V30 18 C -2.535321 -2.223353 2.395454 0
M  V30 19 N -3.215888 -3.087116 1.612126 0
M  V30 20 C -2.988183 -3.072187 0.285151 0
M  V30 21 N -3.605046 -3.901494 -0.694019 0
M  V30 22 C -2.847332 -5.103919 -0.881377 0
M  V30 23 C -2.324621 -5.389512 -2.147492 0
M  V30 24 C -1.587649 -6.539021 -2.371617 0
M  V30 25 C -1.394937 -7.382976 -1.294542 0
M  V30 26 F -0.676895 -8.516515 -1.484575 0
M  V30 27 C -1.898955 -7.120451 -0.046842 0
M  V30 28 C -2.644583 -5.959022 0.183223 0
M  V30 29 F -3.131799 -5.719787 1.419726 0
M  V30 30 C -2.070030 -2.176244 -0.219800 0
M  V30 31 N -1.415392 -1.334404 0.597362 0
M  V30 32 C -1.596747 -1.301833 1.912001 0
M  V30 33 H 1.336417 1.187656 6.758714 0
M  V30 34 H 0.345621 2.660869 6.216714 0
M  V30 35 H -0.398783 1.362679 7.175445 0
M  V30 36 H 1.716342 2.727582 4.708799 0
M  V30 37 H 2.601934 3.299808 2.527111 0
M  V30 38 H 1.407348 3.332501 -3.550304 0
M  V30 39 H 1.362934 4.419895 -2.162536 0
M  V30 40 H 2.648239 4.596780 -3.473471 0
M  V30 41 H 4.117401 1.233298 -2.907161 0
M  V30 42 H 2.303585 0.963405 -2.655005 0
M  V30 43 H 2.917487 1.982407 -4.068836 0
M  V30 44 H 4.411622 3.936104 -1.043116 0
M  V30 45 H 4.530577 4.071038 -2.718977 0
M  V30 46 H 0.182223 0.395405 0.708075 0
M  V30 47 H -1.598364 -0.765071 5.034468 0
M  V30 48 H -4.481968 -3.695411 -1.219158 0
M  V30 49 H -2.533385 -4.661401 -2.925265 0
M  V30 50 H -1.190832 -6.744790 -3.355867 0
M  V30 51 H -1.702429 -7.836612 0.749533 0
M  V30 52 H -1.811846 -2.082949 -1.281509 0
M  V30 END ATOM
M  V30 BEGIN BOND
M  V30 1 1 1 2
M  V30 2 1 2 3
M  V30 3 2 3 4
M  V30 4 1 4 5
M  V30 5 2 5 6
M  V30 6 1 6 7
M  V30 7 3 7 8
M  V30 8 1 8 9
M  V30 9 1 9 10
M  V30 10 1 9 11
M  V30 11 1 9 12
M  V30 12 1 6 13
M  V30 13 2 13 14
M  V30 14 1 14 15
M  V30 15 1 15 16
M  V30 16 1 16 17
M  V30 17 2 17 18
M  V30 18 1 18 19
M  V30 19 2 19 20
M  V30 20 1 20 21
M  V30 21 1 21 22
M  V30 22 2 22 23
M  V30 23 1 23 24
M  V30 24 2 24 25
M  V30 25 1 25 26
M  V30 26 1 25 27
M  V30 27 2 27 28
M  V30 28 1 28 29
M  V30 29 1 20 30
M  V30 30 2 30 31
M  V30 31 1 31 32
M  V30 32 1 14 3
M  V30 33 2 32 15
M  V30 34 1 32 18
M  V30 35 1 28 22
M  V30 36 1 1 33
M  V30 37 1 1 34
M  V30 38 1 1 35
M  V30 39 1 4 36
M  V30 40 1 5 37
M  V30 41 1 10 38
M  V30 42 1 10 39
M  V30 43 1 10 40
M  V30 44 1 11 41
M  V30 45 1 11 42
M  V30 46 1 11 43
M  V30 47 1 12 44
M  V30 48 1 12 45
M  V30 49 1 13 46
M  V30 50 1 16 47
M  V30 51 1 21 48
M  V30 52 1 23 49
M  V30 53 1 24 50
M  V30 54 1 27 51
M  V30 55 1 30 52
M  V30 END BOND
M  V30 END CTAB
M  END
>  <Dataset>  (909) 
ChEMBL_Kinases

>  <Ligand_Instance>  (909) 
nan

>  <PDB_ID>  (909) 
nan

>  <Standardized_SMILES>  (909) 
COc1ccc(C#CC(C)(C)N)cc1-c1[nH]nc2nc(Nc3ccc(F)cc3F)cnc12

>  <Name>  (909) 
nan

>  <Pocket>  (909) 
nan

>  <ATP_Site>  (909) 
nan

>  <Peripheral>  (909) 
nan

>  <Num_H_Atoms_ProtBoundConf>  (909) 
nan

>  <Num_Resolved_Atoms>  (909) 
nan

>  <Num_Not_Resolved_Atoms>  (909) 
nan

$$$$
CHEMBL1996902
     RDKit          3D

  0  0  0  0  0  0  0  0  0  0999 V3000
M  V30 BEGIN CTAB
M  V30 COUNTS 33 35 0 0 0
M  V30 BEGIN ATOM
M  V30 1 C 1.117370 -0.514093 5.334600 0
M  V30 2 C 1.554969 -1.448973 4.195933 0
M  V30 3 O 0.979235 -1.049896 3.006381 0
M  V30 4 C 1.040875 -1.520647 1.756901 0
M  V30 5 O 1.748607 -2.245900 2.462746 0
M  V30 6 C 0.839354 -1.687202 0.356152 0
M  V30 7 C 1.534181 -2.779661 -0.174756 0
M  V30 8 C 1.442670 -3.074079 -1.514612 0
M  V30 9 C 0.636763 -2.224417 -2.241549 0
M  V30 10 C -0.063264 -1.148681 -1.786746 0
M  V30 11 C 0.056459 -0.891946 -0.446976 0
M  V30 12 C -0.752755 0.274514 -0.169047 0
M  V30 13 C -1.008152 0.971596 0.976745 0
M  V30 14 C -1.828003 2.077008 1.012702 0
M  V30 15 C -2.440031 2.528914 -0.161209 0
M  V30 16 C -2.186545 1.829671 -1.322148 0
M  V30 17 C -1.359002 0.725782 -1.320184 0
M  V30 18 C -0.944931 -0.162444 -2.399561 0
M  V30 19 N -1.278224 -0.107352 -3.653260 0
M  V30 20 O -0.794977 -1.031899 -4.552516 0
M  V30 21 H 1.954922 0.167275 5.514331 0
M  V30 22 H 0.831388 -1.105684 6.203168 0
M  V30 23 H 0.211487 0.025774 4.982951 0
M  V30 24 H 2.660372 -1.526148 4.216195 0
M  V30 25 H 1.155963 -2.453816 4.474730 0
M  V30 26 H 2.165928 -3.438555 0.418072 0
M  V30 27 H 1.959452 -3.910089 -1.985033 0
M  V30 28 H 0.559042 -2.448198 -3.294974 0
M  V30 29 H -0.617483 0.750176 1.941725 0
M  V30 30 H -2.066308 2.666313 1.885196 0
M  V30 31 H -3.080910 3.381023 -0.171718 0
M  V30 32 H -2.636937 2.141169 -2.253753 0
M  V30 33 H -1.450537 -1.751605 -4.855378 0
M  V30 END ATOM
M  V30 BEGIN BOND
M  V30 1 1 1 2
M  V30 2 1 2 3
M  V30 3 1 3 4
M  V30 4 2 4 5
M  V30 5 1 4 6
M  V30 6 2 6 7
M  V30 7 1 7 8
M  V30 8 2 8 9
M  V30 9 1 9 10
M  V30 10 2 10 11
M  V30 11 1 11 12
M  V30 12 2 12 13
M  V30 13 1 13 14
M  V30 14 2 14 15
M  V30 15 1 15 16
M  V30 16 2 16 17
M  V30 17 1 17 18
M  V30 18 2 18 19
M  V30 19 1 19 20
M  V30 20 1 11 6
M  V30 21 1 17 12
M  V30 22 1 18 10
M  V30 23 1 1 21
M  V30 24 1 1 22
M  V30 25 1 1 23
M  V30 26 1 2 24
M  V30 27 1 2 25
M  V30 28 1 7 26
M  V30 29 1 8 27
M  V30 30 1 9 28
M  V30 31 1 13 29
M  V30 32 1 14 30
M  V30 33 1 15 31
M  V30 34 1 16 32
M  V30 35 1 20 33
M  V30 END BOND
M  V30 END CTAB
M  END
>  <Dataset>  (910) 
ChEMBL_Kinases

>  <Ligand_Instance>  (910) 
nan

>  <PDB_ID>  (910) 
nan

>  <Standardized_SMILES>  (910) 
CCOC(=O)c1cccc2c1-c1ccccc1/C2=N/O

>  <Name>  (910) 
nan

>  <Pocket>  (910) 
nan

>  <ATP_Site>  (910) 
nan

>  <Peripheral>  (910) 
nan

>  <Num_H_Atoms_ProtBoundConf>  (910) 
nan

>  <Num_Resolved_Atoms>  (910) 
nan

>  <Num_Not_Resolved_Atoms>  (910) 
nan

$$$$
CHEMBL199680
     RDKit          3D

  0  0  0  0  0  0  0  0  0  0999 V3000
M  V30 BEGIN CTAB
M  V30 COUNTS 65 69 0 0 0
M  V30 BEGIN ATOM
M  V30 1 C 5.000898 -1.517852 3.136150 0
M  V30 2 C 3.812484 -2.201059 2.493669 0
M  V30 3 C 4.176717 -3.601890 2.158634 0
M  V30 4 C 2.725747 -2.253164 3.548115 0
M  V30 5 N 3.401954 -1.392075 1.384837 0
M  V30 6 C 2.304448 -1.926864 0.615311 0
M  V30 7 C 2.071563 -1.008098 -0.564636 0
M  V30 8 C 1.429466 0.237962 -0.072389 0
M  V30 9 C -0.025420 0.331823 -0.299387 0
M  V30 10 C -0.521537 1.581795 -0.659224 0
M  V30 11 C -1.872798 1.830356 -0.918784 0
M  V30 12 C -2.395181 3.135152 -1.292707 0
M  V30 13 C -2.754705 3.839285 -0.138216 0
M  V30 14 C -3.289040 5.128002 -0.229517 0
M  V30 15 C -3.440758 5.660504 -1.511426 0
M  V30 16 C -3.090712 4.976254 -2.652612 0
M  V30 17 C -2.565743 3.707314 -2.532386 0
M  V30 18 Cl -2.067437 2.689118 -3.844149 0
M  V30 19 C -2.694619 0.732222 -0.791928 0
M  V30 20 C -4.042921 0.949511 -1.045979 0
M  V30 21 C -4.910652 -0.125986 -0.932426 0
M  V30 22 C -4.483979 -1.408020 -0.576675 0
M  V30 23 O -5.259114 -2.387645 -0.471574 0
M  V30 24 N -3.149780 -1.566959 -0.338251 0
M  V30 25 C -2.683512 -2.864986 0.020525 0
M  V30 26 C -2.077694 -3.473397 -1.059706 0
M  V30 27 Cl -1.900190 -2.764089 -2.670383 0
M  V30 28 C -1.528489 -4.759227 -0.981409 0
M  V30 29 C -1.632504 -5.379205 0.249570 0
M  V30 30 C -2.227285 -4.796082 1.331942 0
M  V30 31 C -2.759791 -3.529816 1.225867 0
M  V30 32 Cl -3.574272 -2.572276 2.469086 0
M  V30 33 C -2.298817 -0.531456 -0.444429 0
M  V30 34 C -0.952944 -0.682566 -0.207322 0
M  V30 35 C 1.757233 0.360527 1.425626 0
M  V30 36 C 3.193482 -0.021556 1.694144 0
M  V30 37 H 4.711613 -0.840110 3.963523 0
M  V30 38 H 5.684194 -2.305605 3.506611 0
M  V30 39 H 5.569730 -0.978770 2.337756 0
M  V30 40 H 4.321267 -4.129034 3.148370 0
M  V30 41 H 5.126199 -3.747036 1.630461 0
M  V30 42 H 3.335488 -4.177529 1.693942 0
M  V30 43 H 3.269561 -2.517779 4.504150 0
M  V30 44 H 2.251750 -1.292373 3.761377 0
M  V30 45 H 2.024381 -3.100608 3.391122 0
M  V30 46 H 1.431008 -1.966433 1.290700 0
M  V30 47 H 2.475296 -2.975320 0.297546 0
M  V30 48 H 3.043514 -0.735141 -1.057797 0
M  V30 49 H 1.503261 -1.514378 -1.375475 0
M  V30 50 H 1.889689 1.123217 -0.589588 0
M  V30 51 H 0.135504 2.436507 -0.755845 0
M  V30 52 H -2.675631 3.512939 0.894582 0
M  V30 53 H -3.584066 5.716584 0.629949 0
M  V30 54 H -3.847474 6.646207 -1.621317 0
M  V30 55 H -3.198327 5.364470 -3.655182 0
M  V30 56 H -4.498980 1.890757 -1.328440 0
M  V30 57 H -5.963525 -0.024726 -1.114369 0
M  V30 58 H -1.049929 -5.271791 -1.794266 0
M  V30 59 H -1.231803 -6.368609 0.385084 0
M  V30 60 H -2.350759 -5.214523 2.327395 0
M  V30 61 H -0.583130 -1.658712 0.069483 0
M  V30 62 H 1.018010 -0.159866 2.045702 0
M  V30 63 H 1.670114 1.475110 1.611632 0
M  V30 64 H 3.815909 0.680989 1.108581 0
M  V30 65 H 3.351975 0.128202 2.781143 0
M  V30 END ATOM
M  V30 BEGIN BOND
M  V30 1 1 1 2
M  V30 2 1 2 3
M  V30 3 1 2 4
M  V30 4 1 2 5
M  V30 5 1 5 6
M  V30 6 1 6 7
M  V30 7 1 7 8
M  V30 8 1 8 9
M  V30 9 2 9 10
M  V30 10 1 10 11
M  V30 11 1 11 12
M  V30 12 2 12 13
M  V30 13 1 13 14
M  V30 14 2 14 15
M  V30 15 1 15 16
M  V30 16 2 16 17
M  V30 17 1 17 18
M  V30 18 2 11 19
M  V30 19 1 19 20
M  V30 20 2 20 21
M  V30 21 1 21 22
M  V30 22 2 22 23
M  V30 23 1 22 24
M  V30 24 1 24 25
M  V30 25 2 25 26
M  V30 26 1 26 27
M  V30 27 1 26 28
M  V30 28 2 28 29
M  V30 29 1 29 30
M  V30 30 2 30 31
M  V30 31 1 31 32
M  V30 32 1 24 33
M  V30 33 2 33 34
M  V30 34 1 8 35
M  V30 35 1 35 36
M  V30 36 1 36 5
M  V30 37 1 34 9
M  V30 38 1 17 12
M  V30 39 1 33 19
M  V30 40 1 31 25
M  V30 41 1 1 37
M  V30 42 1 1 38
M  V30 43 1 1 39
M  V30 44 1 3 40
M  V30 45 1 3 41
M  V30 46 1 3 42
M  V30 47 1 4 43
M  V30 48 1 4 44
M  V30 49 1 4 45
M  V30 50 1 6 46
M  V30 51 1 6 47
M  V30 52 1 7 48
M  V30 53 1 7 49
M  V30 54 1 8 50
M  V30 55 1 10 51
M  V30 56 1 13 52
M  V30 57 1 14 53
M  V30 58 1 15 54
M  V30 59 1 16 55
M  V30 60 1 20 56
M  V30 61 1 21 57
M  V30 62 1 28 58
M  V30 63 1 29 59
M  V30 64 1 30 60
M  V30 65 1 34 61
M  V30 66 1 35 62
M  V30 67 1 35 63
M  V30 68 1 36 64
M  V30 69 1 36 65
M  V30 END BOND
M  V30 END CTAB
M  END
>  <Dataset>  (911) 
ChEMBL_Kinases

>  <Ligand_Instance>  (911) 
nan

>  <PDB_ID>  (911) 
nan

>  <Standardized_SMILES>  (911) 
CC(C)(C)N1CCC(c2cc(-c3ccccc3Cl)c3ccc(=O)n(-c4c(Cl)cccc4Cl)c3c2)CC1

>  <Name>  (911) 
nan

>  <Pocket>  (911) 
nan

>  <ATP_Site>  (911) 
nan

>  <Peripheral>  (911) 
nan

>  <Num_H_Atoms_ProtBoundConf>  (911) 
nan

>  <Num_Resolved_Atoms>  (911) 
nan

>  <Num_Not_Resolved_Atoms>  (911) 
nan

$$$$
CHEMBL199679
     RDKit          3D

  0  0  0  0  0  0  0  0  0  0999 V3000
M  V30 BEGIN CTAB
M  V30 COUNTS 65 69 0 0 0
M  V30 BEGIN ATOM
M  V30 1 C 1.467149 -1.760912 4.709659 0
M  V30 2 C 2.421247 -0.612621 4.642072 0
M  V30 3 C 2.269774 0.339908 5.789415 0
M  V30 4 C 3.828321 -1.189069 4.756955 0
M  V30 5 N 2.298968 0.164235 3.397034 0
M  V30 6 C 2.572971 -0.742544 2.330023 0
M  V30 7 C 2.034972 -0.301109 0.992323 0
M  V30 8 C 0.525307 -0.169152 1.233597 0
M  V30 9 C -0.224347 -0.209605 -0.023393 0
M  V30 10 C -0.080578 0.773224 -0.989048 0
M  V30 11 C -0.770784 0.764987 -2.182211 0
M  V30 12 C -0.549544 1.852054 -3.141796 0
M  V30 13 C 0.364685 1.920898 -4.146652 0
M  V30 14 C 0.428944 3.034627 -4.959465 0
M  V30 15 C -0.417304 4.131928 -4.806409 0
M  V30 16 F -0.343890 5.214019 -5.607660 0
M  V30 17 C -1.335100 4.019602 -3.768709 0
M  V30 18 C -1.428953 2.920339 -2.934540 0
M  V30 19 F -2.399535 3.022150 -1.984795 0
M  V30 20 C -1.659062 -0.276650 -2.441803 0
M  V30 21 C -2.357286 -0.285203 -3.648546 0
M  V30 22 C -3.230747 -1.361371 -3.839580 0
M  V30 23 C -3.393860 -2.353759 -2.895824 0
M  V30 24 O -4.178499 -3.325445 -3.061307 0
M  V30 25 N -2.702194 -2.311066 -1.742762 0
M  V30 26 C -2.806168 -3.290375 -0.712089 0
M  V30 27 C -2.150389 -4.473504 -0.975666 0
M  V30 28 Cl -1.257951 -4.744450 -2.469185 0
M  V30 29 C -2.148240 -5.540445 -0.075637 0
M  V30 30 C -2.847281 -5.330165 1.095910 0
M  V30 31 C -3.512146 -4.169032 1.395671 0
M  V30 32 C -3.494552 -3.123451 0.475625 0
M  V30 33 Cl -4.279665 -1.567875 0.673301 0
M  V30 34 C -1.848893 -1.297018 -1.510001 0
M  V30 35 C -1.121189 -1.216273 -0.341200 0
M  V30 36 C 0.389462 1.047027 2.066621 0
M  V30 37 C 1.050940 0.820202 3.381323 0
M  V30 38 H 1.905030 -2.750522 4.474300 0
M  V30 39 H 1.116641 -1.851836 5.779663 0
M  V30 40 H 0.543108 -1.641449 4.126660 0
M  V30 41 H 1.208032 0.643793 5.853435 0
M  V30 42 H 2.850537 1.261793 5.560998 0
M  V30 43 H 2.607557 -0.088473 6.754859 0
M  V30 44 H 4.008455 -1.343362 5.842772 0
M  V30 45 H 4.589357 -0.573184 4.269229 0
M  V30 46 H 3.900059 -2.202307 4.310046 0
M  V30 47 H 3.676811 -0.797076 2.228776 0
M  V30 48 H 2.158739 -1.752308 2.529418 0
M  V30 49 H 2.240273 -1.098083 0.261041 0
M  V30 50 H 2.461290 0.680313 0.733781 0
M  V30 51 H 0.229054 -1.059294 1.818202 0
M  V30 52 H 0.614644 1.579248 -0.774470 0
M  V30 53 H 0.996156 1.066056 -4.236756 0
M  V30 54 H 1.155987 3.069089 -5.744998 0
M  V30 55 H -1.990182 4.895344 -3.667843 0
M  V30 56 H -2.227324 0.493688 -4.385874 0
M  V30 57 H -3.800357 -1.418913 -4.761461 0
M  V30 58 H -1.632888 -6.470906 -0.282178 0
M  V30 59 H -2.878795 -6.132497 1.836692 0
M  V30 60 H -4.064698 -3.973515 2.296882 0
M  V30 61 H -1.254783 -2.009474 0.407508 0
M  V30 62 H -0.644920 1.378985 2.258909 0
M  V30 63 H 0.939604 1.883912 1.558238 0
M  V30 64 H 1.219625 1.849117 3.818299 0
M  V30 65 H 0.277344 0.379945 4.057413 0
M  V30 END ATOM
M  V30 BEGIN BOND
M  V30 1 1 1 2
M  V30 2 1 2 3
M  V30 3 1 2 4
M  V30 4 1 2 5
M  V30 5 1 5 6
M  V30 6 1 6 7
M  V30 7 1 7 8
M  V30 8 1 8 9
M  V30 9 2 9 10
M  V30 10 1 10 11
M  V30 11 1 11 12
M  V30 12 2 12 13
M  V30 13 1 13 14
M  V30 14 2 14 15
M  V30 15 1 15 16
M  V30 16 1 15 17
M  V30 17 2 17 18
M  V30 18 1 18 19
M  V30 19 2 11 20
M  V30 20 1 20 21
M  V30 21 2 21 22
M  V30 22 1 22 23
M  V30 23 2 23 24
M  V30 24 1 23 25
M  V30 25 1 25 26
M  V30 26 2 26 27
M  V30 27 1 27 28
M  V30 28 1 27 29
M  V30 29 2 29 30
M  V30 30 1 30 31
M  V30 31 2 31 32
M  V30 32 1 32 33
M  V30 33 1 25 34
M  V30 34 2 34 35
M  V30 35 1 8 36
M  V30 36 1 36 37
M  V30 37 1 37 5
M  V30 38 1 35 9
M  V30 39 1 18 12
M  V30 40 1 34 20
M  V30 41 1 32 26
M  V30 42 1 1 38
M  V30 43 1 1 39
M  V30 44 1 1 40
M  V30 45 1 3 41
M  V30 46 1 3 42
M  V30 47 1 3 43
M  V30 48 1 4 44
M  V30 49 1 4 45
M  V30 50 1 4 46
M  V30 51 1 6 47
M  V30 52 1 6 48
M  V30 53 1 7 49
M  V30 54 1 7 50
M  V30 55 1 8 51
M  V30 56 1 10 52
M  V30 57 1 13 53
M  V30 58 1 14 54
M  V30 59 1 17 55
M  V30 60 1 21 56
M  V30 61 1 22 57
M  V30 62 1 29 58
M  V30 63 1 30 59
M  V30 64 1 31 60
M  V30 65 1 35 61
M  V30 66 1 36 62
M  V30 67 1 36 63
M  V30 68 1 37 64
M  V30 69 1 37 65
M  V30 END BOND
M  V30 END CTAB
M  END
>  <Dataset>  (912) 
ChEMBL_Kinases

>  <Ligand_Instance>  (912) 
nan

>  <PDB_ID>  (912) 
nan

>  <Standardized_SMILES>  (912) 
CC(C)(C)N1CCC(c2cc(-c3ccc(F)cc3F)c3ccc(=O)n(-c4c(Cl)cccc4Cl)c3c2)CC1

>  <Name>  (912) 
nan

>  <Pocket>  (912) 
nan

>  <ATP_Site>  (912) 
nan

>  <Peripheral>  (912) 
nan

>  <Num_H_Atoms_ProtBoundConf>  (912) 
nan

>  <Num_Resolved_Atoms>  (912) 
nan

>  <Num_Not_Resolved_Atoms>  (912) 
nan

$$$$
CHEMBL199643
     RDKit          3D

  0  0  0  0  0  0  0  0  0  0999 V3000
M  V30 BEGIN CTAB
M  V30 COUNTS 37 40 0 0 0
M  V30 BEGIN ATOM
M  V30 1 O 0.543026 -3.844658 3.148164 0
M  V30 2 C 0.581523 -2.801980 2.414660 0
M  V30 3 N 1.621836 -1.879802 2.183939 0
M  V30 4 C 1.133679 -0.902177 1.274327 0
M  V30 5 C 1.828505 0.185287 0.779516 0
M  V30 6 C 1.143908 1.002098 -0.095804 0
M  V30 7 C 1.770941 2.187484 -0.691216 0
M  V30 8 C 1.379813 2.595236 -1.974371 0
M  V30 9 C 1.925237 3.711605 -2.612940 0
M  V30 10 C 2.880508 4.395455 -1.897778 0
M  V30 11 O 3.474925 5.527368 -2.469967 0
M  V30 12 C 3.325960 4.071413 -0.637414 0
M  V30 13 C 2.746943 2.954173 -0.058260 0
M  V30 14 C -0.165138 0.761207 -0.468406 0
M  V30 15 C -0.804699 -0.343194 0.061302 0
M  V30 16 C -0.174775 -1.218240 0.956160 0
M  V30 17 C -0.586410 -2.442667 1.668501 0
M  V30 18 C -1.808634 -2.889242 1.503005 0
M  V30 19 C -2.221777 -4.099425 2.247614 0
M  V30 20 C -2.818264 -5.096885 1.437338 0
M  V30 21 C -3.192006 -6.175233 2.222776 0
M  V30 22 N -2.836187 -5.845901 3.467463 0
M  V30 23 C -2.266580 -4.637097 3.515615 0
M  V30 24 H 2.542491 -2.034368 2.678276 0
M  V30 25 H 2.849106 0.390147 1.056776 0
M  V30 26 H 0.615673 2.021353 -2.510682 0
M  V30 27 H 1.592911 3.987399 -3.603941 0
M  V30 28 H 4.019945 5.433912 -3.332264 0
M  V30 29 H 4.089434 4.634369 -0.096897 0
M  V30 30 H 3.023247 2.614007 0.925917 0
M  V30 31 H -0.741646 1.352986 -1.135761 0
M  V30 32 H -1.844644 -0.559137 -0.219753 0
M  V30 33 H -2.551868 -2.409938 0.845474 0
M  V30 34 H -3.016749 -5.143109 0.356745 0
M  V30 35 H -3.670925 -7.097079 1.893566 0
M  V30 36 H -2.940927 -6.385039 4.351706 0
M  V30 37 H -1.850736 -3.976755 4.259584 0
M  V30 END ATOM
M  V30 BEGIN BOND
M  V30 1 2 1 2
M  V30 2 1 2 3
M  V30 3 1 3 4
M  V30 4 2 4 5
M  V30 5 1 5 6
M  V30 6 1 6 7
M  V30 7 2 7 8
M  V30 8 1 8 9
M  V30 9 2 9 10
M  V30 10 1 10 11
M  V30 11 1 10 12
M  V30 12 2 12 13
M  V30 13 2 6 14
M  V30 14 1 14 15
M  V30 15 2 15 16
M  V30 16 1 16 17
M  V30 17 2 17 18
M  V30 18 1 18 19
M  V30 19 1 19 20
M  V30 20 2 20 21
M  V30 21 1 21 22
M  V30 22 1 22 23
M  V30 23 1 17 2
M  V30 24 2 23 19
M  V30 25 1 16 4
M  V30 26 1 13 7
M  V30 27 1 3 24
M  V30 28 1 5 25
M  V30 29 1 8 26
M  V30 30 1 9 27
M  V30 31 1 11 28
M  V30 32 1 12 29
M  V30 33 1 13 30
M  V30 34 1 14 31
M  V30 35 1 15 32
M  V30 36 1 18 33
M  V30 37 1 20 34
M  V30 38 1 21 35
M  V30 39 1 22 36
M  V30 40 1 23 37
M  V30 END BOND
M  V30 END CTAB
M  END
>  <Dataset>  (913) 
ChEMBL_Kinases

>  <Ligand_Instance>  (913) 
nan

>  <PDB_ID>  (913) 
nan

>  <Standardized_SMILES>  (913) 
O=C1Nc2cc(-c3ccc(O)cc3)ccc2/C1=C/c1cc[nH]c1

>  <Name>  (913) 
nan

>  <Pocket>  (913) 
nan

>  <ATP_Site>  (913) 
nan

>  <Peripheral>  (913) 
nan

>  <Num_H_Atoms_ProtBoundConf>  (913) 
nan

>  <Num_Resolved_Atoms>  (913) 
nan

>  <Num_Not_Resolved_Atoms>  (913) 
nan

$$$$
CHEMBL199632
     RDKit          3D

  0  0  0  0  0  0  0  0  0  0999 V3000
M  V30 BEGIN CTAB
M  V30 COUNTS 68 72 0 0 0
M  V30 BEGIN ATOM
M  V30 1 C 4.662722 -1.490862 4.808260 0
M  V30 2 O 3.953920 -1.519311 3.613202 0
M  V30 3 C 3.866858 -2.642238 2.793950 0
M  V30 4 O 4.507314 -3.649530 3.259454 0
M  V30 5 C 3.175985 -2.864541 1.510595 0
M  V30 6 C 2.131823 -3.963225 1.683171 0
M  V30 7 C 4.226758 -3.409855 0.540256 0
M  V30 8 N 2.484495 -1.716107 1.010060 0
M  V30 9 C 1.764594 -2.019864 -0.199115 0
M  V30 10 C 1.820330 -0.948583 -1.249246 0
M  V30 11 C 1.383675 0.372944 -0.594267 0
M  V30 12 C -0.051223 0.228696 -0.279683 0
M  V30 13 C -0.578562 -0.229808 0.907285 0
M  V30 14 C -1.933056 -0.368824 1.167324 0
M  V30 15 C -2.335267 -0.868409 2.499023 0
M  V30 16 C -2.487684 0.216357 3.378754 0
M  V30 17 C -2.857444 0.010745 4.688517 0
M  V30 18 C -3.081788 -1.263664 5.149332 0
M  V30 19 F -3.448479 -1.516250 6.429054 0
M  V30 20 C -2.927704 -2.313433 4.273483 0
M  V30 21 C -2.559368 -2.142709 2.959012 0
M  V30 22 Cl -2.319911 -3.355199 1.732801 0
M  V30 23 C -2.843586 -0.023479 0.165378 0
M  V30 24 C -4.163816 -0.173281 0.449490 0
M  V30 25 C -5.094653 0.162732 -0.535448 0
M  V30 26 C -4.573206 0.626354 -1.731605 0
M  V30 27 O -5.418525 0.931684 -2.622672 0
M  V30 28 N -3.231476 0.753400 -1.951857 0
M  V30 29 C -2.876316 1.240827 -3.239957 0
M  V30 30 C -3.164775 2.581175 -3.375112 0
M  V30 31 Cl -3.888237 3.608494 -2.127002 0
M  V30 32 C -2.894687 3.245586 -4.565593 0
M  V30 33 C -2.334592 2.506389 -5.581875 0
M  V30 34 C -2.027251 1.153745 -5.489198 0
M  V30 35 C -2.325036 0.561309 -4.271732 0
M  V30 36 Cl -1.996066 -1.134315 -4.000837 0
M  V30 37 C -2.310488 0.437727 -1.024536 0
M  V30 38 C -0.965292 0.575850 -1.285006 0
M  V30 39 C 2.283160 0.617098 0.552772 0
M  V30 40 C 3.254063 -0.539237 0.810976 0
M  V30 41 H 4.892980 -2.504661 5.189062 0
M  V30 42 H 5.602683 -0.879457 4.680278 0
M  V30 43 H 4.034962 -0.992732 5.595703 0
M  V30 44 H 2.097535 -4.517346 0.720984 0
M  V30 45 H 1.137172 -3.542097 1.982723 0
M  V30 46 H 2.421543 -4.689520 2.474918 0
M  V30 47 H 3.818454 -4.047699 -0.239073 0
M  V30 48 H 4.920121 -2.612124 0.199124 0
M  V30 49 H 4.879188 -4.083588 1.172137 0
M  V30 50 H 2.185697 -2.933723 -0.682188 0
M  V30 51 H 0.676662 -2.189981 0.038651 0
M  V30 52 H 2.827896 -0.838556 -1.705124 0
M  V30 53 H 1.101785 -1.192942 -2.061835 0
M  V30 54 H 1.540451 1.129483 -1.422781 0
M  V30 55 H 0.097555 -0.496974 1.686947 0
M  V30 56 H -2.340681 1.281694 3.145728 0
M  V30 57 H -2.998095 0.787048 5.434707 0
M  V30 58 H -3.080871 -3.364951 4.539613 0
M  V30 59 H -4.503542 -0.535731 1.395562 0
M  V30 60 H -6.151077 0.075063 -0.394695 0
M  V30 61 H -3.075553 4.290024 -4.784844 0
M  V30 62 H -2.099949 2.978444 -6.545681 0
M  V30 63 H -1.586978 0.581578 -6.294665 0
M  V30 64 H -0.655274 0.949724 -2.265584 0
M  V30 65 H 2.974970 1.472205 0.280198 0
M  V30 66 H 1.808455 0.954168 1.487232 0
M  V30 67 H 3.882135 -0.248019 1.677036 0
M  V30 68 H 3.947346 -0.688578 -0.026778 0
M  V30 END ATOM
M  V30 BEGIN BOND
M  V30 1 1 1 2
M  V30 2 1 2 3
M  V30 3 2 3 4
M  V30 4 1 3 5
M  V30 5 1 5 6
M  V30 6 1 5 7
M  V30 7 1 5 8
M  V30 8 1 8 9
M  V30 9 1 9 10
M  V30 10 1 10 11
M  V30 11 1 11 12
M  V30 12 2 12 13
M  V30 13 1 13 14
M  V30 14 1 14 15
M  V30 15 2 15 16
M  V30 16 1 16 17
M  V30 17 2 17 18
M  V30 18 1 18 19
M  V30 19 1 18 20
M  V30 20 2 20 21
M  V30 21 1 21 22
M  V30 22 2 14 23
M  V30 23 1 23 24
M  V30 24 2 24 25
M  V30 25 1 25 26
M  V30 26 2 26 27
M  V30 27 1 26 28
M  V30 28 1 28 29
M  V30 29 2 29 30
M  V30 30 1 30 31
M  V30 31 1 30 32
M  V30 32 2 32 33
M  V30 33 1 33 34
M  V30 34 2 34 35
M  V30 35 1 35 36
M  V30 36 1 28 37
M  V30 37 2 37 38
M  V30 38 1 11 39
M  V30 39 1 39 40
M  V30 40 1 40 8
M  V30 41 1 38 12
M  V30 42 1 21 15
M  V30 43 1 37 23
M  V30 44 1 35 29
M  V30 45 1 1 41
M  V30 46 1 1 42
M  V30 47 1 1 43
M  V30 48 1 6 44
M  V30 49 1 6 45
M  V30 50 1 6 46
M  V30 51 1 7 47
M  V30 52 1 7 48
M  V30 53 1 7 49
M  V30 54 1 9 50
M  V30 55 1 9 51
M  V30 56 1 10 52
M  V30 57 1 10 53
M  V30 58 1 11 54
M  V30 59 1 13 55
M  V30 60 1 16 56
M  V30 61 1 17 57
M  V30 62 1 20 58
M  V30 63 1 24 59
M  V30 64 1 25 60
M  V30 65 1 32 61
M  V30 66 1 33 62
M  V30 67 1 34 63
M  V30 68 1 38 64
M  V30 69 1 39 65
M  V30 70 1 39 66
M  V30 71 1 40 67
M  V30 72 1 40 68
M  V30 END BOND
M  V30 END CTAB
M  END
>  <Dataset>  (914) 
ChEMBL_Kinases

>  <Ligand_Instance>  (914) 
nan

>  <PDB_ID>  (914) 
nan

>  <Standardized_SMILES>  (914) 
COC(=O)C(C)(C)N1CCC(c2cc(-c3ccc(F)cc3Cl)c3ccc(=O)n(-c4c(Cl)cccc4Cl)c3c2)CC1

>  <Name>  (914) 
nan

>  <Pocket>  (914) 
nan

>  <ATP_Site>  (914) 
nan

>  <Peripheral>  (914) 
nan

>  <Num_H_Atoms_ProtBoundConf>  (914) 
nan

>  <Num_Resolved_Atoms>  (914) 
nan

>  <Num_Not_Resolved_Atoms>  (914) 
nan

$$$$
CHEMBL2007612
     RDKit          3D

  0  0  0  0  0  0  0  0  0  0999 V3000
M  V30 BEGIN CTAB
M  V30 COUNTS 31 32 0 0 0
M  V30 BEGIN ATOM
M  V30 1 F -1.098572 -1.860187 4.434565 0
M  V30 2 C -0.494980 -2.309496 3.282863 0
M  V30 3 C -1.121309 -3.247574 2.537656 0
M  V30 4 C -0.433624 -3.642224 1.386931 0
M  V30 5 C 0.802398 -3.089902 1.062079 0
M  V30 6 N 1.378231 -3.569732 -0.139731 0
M  V30 7 C 1.538882 -3.081514 -1.436813 0
M  V30 8 S 2.286932 -4.016873 -2.551168 0
M  V30 9 N 1.079462 -1.779799 -1.861314 0
M  V30 10 N 0.424509 -0.802224 -1.128776 0
M  V30 11 C 0.902369 0.386398 -1.048079 0
M  V30 12 C 0.104196 1.332377 -0.235281 0
M  V30 13 C 0.678712 2.565981 -0.185113 0
M  V30 14 C -0.031357 3.493161 0.591896 0
M  V30 15 C -1.225431 3.212810 1.269387 0
M  V30 16 F -1.930972 4.080601 2.028163 0
M  V30 17 C -1.717717 1.900268 1.140433 0
M  V30 18 F -2.865464 1.513663 1.742384 0
M  V30 19 C -1.052438 0.944118 0.381857 0
M  V30 20 C 1.417773 -2.113516 1.870993 0
M  V30 21 C 0.710816 -1.734558 3.016383 0
M  V30 22 H -2.081643 -3.666833 2.804996 0
M  V30 23 H -0.905268 -4.394782 0.760867 0
M  V30 24 H 1.730297 -4.513938 0.130935 0
M  V30 25 H 1.230050 -1.436534 -2.828702 0
M  V30 26 H 1.824358 0.571556 -1.580638 0
M  V30 27 H 1.528210 3.063545 -0.570764 0
M  V30 28 H 0.231296 4.541604 0.783429 0
M  V30 29 H -1.377026 -0.072792 0.241466 0
M  V30 30 H 2.359880 -1.812347 1.451708 0
M  V30 31 H 1.262070 -0.985569 3.562854 0
M  V30 END ATOM
M  V30 BEGIN BOND
M  V30 1 1 1 2
M  V30 2 2 2 3
M  V30 3 1 3 4
M  V30 4 2 4 5
M  V30 5 1 5 6
M  V30 6 1 6 7
M  V30 7 2 7 8
M  V30 8 1 7 9
M  V30 9 1 9 10
M  V30 10 2 10 11
M  V30 11 1 11 12
M  V30 12 2 12 13
M  V30 13 1 13 14
M  V30 14 2 14 15
M  V30 15 1 15 16
M  V30 16 1 15 17
M  V30 17 1 17 18
M  V30 18 2 17 19
M  V30 19 1 5 20
M  V30 20 2 20 21
M  V30 21 1 21 2
M  V30 22 1 19 12
M  V30 23 1 3 22
M  V30 24 1 4 23
M  V30 25 1 6 24
M  V30 26 1 9 25
M  V30 27 1 11 26
M  V30 28 1 13 27
M  V30 29 1 14 28
M  V30 30 1 19 29
M  V30 31 1 20 30
M  V30 32 1 21 31
M  V30 END BOND
M  V30 END CTAB
M  END
>  <Dataset>  (915) 
ChEMBL_Kinases

>  <Ligand_Instance>  (915) 
nan

>  <PDB_ID>  (915) 
nan

>  <Standardized_SMILES>  (915) 
Fc1ccc(NC(=S)N/N=C/c2ccc(F)c(F)c2)cc1

>  <Name>  (915) 
nan

>  <Pocket>  (915) 
nan

>  <ATP_Site>  (915) 
nan

>  <Peripheral>  (915) 
nan

>  <Num_H_Atoms_ProtBoundConf>  (915) 
nan

>  <Num_Resolved_Atoms>  (915) 
nan

>  <Num_Not_Resolved_Atoms>  (915) 
nan

$$$$
CHEMBL199296
     RDKit          3D

  0  0  0  0  0  0  0  0  0  0999 V3000
M  V30 BEGIN CTAB
M  V30 COUNTS 47 51 0 0 0
M  V30 BEGIN ATOM
M  V30 1 C -1.915254 -6.257566 -2.613726 0
M  V30 2 O -0.540844 -6.495669 -2.699145 0
M  V30 3 C 0.452875 -5.725817 -2.149077 0
M  V30 4 C 0.261812 -4.573382 -1.403636 0
M  V30 5 C 1.292581 -3.817318 -0.861787 0
M  V30 6 C 1.000806 -2.616118 -0.086816 0
M  V30 7 C 1.788754 -2.153913 0.955879 0
M  V30 8 C 1.451037 -0.995713 1.662948 0
M  V30 9 C 0.298016 -0.348740 1.263312 0
M  V30 10 C -0.507593 -0.783966 0.229586 0
M  V30 11 C -0.161990 -1.930014 -0.461460 0
M  V30 12 N -1.620812 0.105688 0.077534 0
M  V30 13 C -1.504098 1.139373 1.058518 0
M  V30 14 O -2.357920 2.033134 1.122466 0
M  V30 15 C -0.296345 0.857799 1.808890 0
M  V30 16 C 0.052895 1.704396 2.759047 0
M  V30 17 C -0.600907 2.899660 3.261186 0
M  V30 18 C -1.929501 3.051426 3.677253 0
M  V30 19 N -2.219150 4.286869 4.043658 0
M  V30 20 C -1.102900 5.024705 3.892025 0
M  V30 21 C -0.812321 6.354262 4.112017 0
M  V30 22 C 0.447538 6.821426 3.856457 0
M  V30 23 C 1.434344 5.998692 3.384899 0
M  V30 24 C 1.191623 4.650364 3.146934 0
M  V30 25 C -0.096572 4.199847 3.414575 0
M  V30 26 C 2.569041 -4.280559 -1.106398 0
M  V30 27 C 2.818388 -5.428471 -1.845654 0
M  V30 28 C 1.761927 -6.145757 -2.363604 0
M  V30 29 O 2.004209 -7.312416 -3.115067 0
M  V30 30 H -2.163917 -5.701145 -1.689954 0
M  V30 31 H -2.252126 -5.591195 -3.459362 0
M  V30 32 H -2.510649 -7.199707 -2.610827 0
M  V30 33 H -0.780222 -4.278763 -1.255378 0
M  V30 34 H 2.664263 -2.718751 1.196808 0
M  V30 35 H 2.048925 -0.624568 2.473304 0
M  V30 36 H -0.810142 -2.253062 -1.270754 0
M  V30 37 H -2.380970 -0.019348 -0.652438 0
M  V30 38 H 1.003091 1.478999 3.270326 0
M  V30 39 H -2.704569 2.317080 3.746781 0
M  V30 40 H -3.091964 4.726786 4.395068 0
M  V30 41 H -1.588515 7.037538 4.490667 0
M  V30 42 H 0.670419 7.883125 4.033215 0
M  V30 43 H 2.416159 6.449089 3.205628 0
M  V30 44 H 1.978713 4.028676 2.778245 0
M  V30 45 H 3.407831 -3.736541 -0.711203 0
M  V30 46 H 3.817660 -5.793182 -2.037709 0
M  V30 47 H 1.706462 -8.211526 -2.801634 0
M  V30 END ATOM
M  V30 BEGIN BOND
M  V30 1 1 1 2
M  V30 2 1 2 3
M  V30 3 2 3 4
M  V30 4 1 4 5
M  V30 5 1 5 6
M  V30 6 2 6 7
M  V30 7 1 7 8
M  V30 8 2 8 9
M  V30 9 1 9 10
M  V30 10 2 10 11
M  V30 11 1 10 12
M  V30 12 1 12 13
M  V30 13 2 13 14
M  V30 14 1 13 15
M  V30 15 2 15 16
M  V30 16 1 16 17
M  V30 17 2 17 18
M  V30 18 1 18 19
M  V30 19 1 19 20
M  V30 20 2 20 21
M  V30 21 1 21 22
M  V30 22 2 22 23
M  V30 23 1 23 24
M  V30 24 2 24 25
M  V30 25 2 5 26
M  V30 26 1 26 27
M  V30 27 2 27 28
M  V30 28 1 28 29
M  V30 29 1 28 3
M  V30 30 1 11 6
M  V30 31 1 25 17
M  V30 32 1 15 9
M  V30 33 1 25 20
M  V30 34 1 1 30
M  V30 35 1 1 31
M  V30 36 1 1 32
M  V30 37 1 4 33
M  V30 38 1 7 34
M  V30 39 1 8 35
M  V30 40 1 11 36
M  V30 41 1 12 37
M  V30 42 1 16 38
M  V30 43 1 18 39
M  V30 44 1 19 40
M  V30 45 1 21 41
M  V30 46 1 22 42
M  V30 47 1 23 43
M  V30 48 1 24 44
M  V30 49 1 26 45
M  V30 50 1 27 46
M  V30 51 1 29 47
M  V30 END BOND
M  V30 END CTAB
M  END
>  <Dataset>  (916) 
ChEMBL_Kinases

>  <Ligand_Instance>  (916) 
nan

>  <PDB_ID>  (916) 
nan

>  <Standardized_SMILES>  (916) 
COc1cc(-c2ccc3c(c2)NC(=O)/C3=C\c2c[nH]c3ccccc23)ccc1O

>  <Name>  (916) 
nan

>  <Pocket>  (916) 
nan

>  <ATP_Site>  (916) 
nan

>  <Peripheral>  (916) 
nan

>  <Num_H_Atoms_ProtBoundConf>  (916) 
nan

>  <Num_Resolved_Atoms>  (916) 
nan

>  <Num_Not_Resolved_Atoms>  (916) 
nan

$$$$
CHEMBL199316
     RDKit          3D

  0  0  0  0  0  0  0  0  0  0999 V3000
M  V30 BEGIN CTAB
M  V30 COUNTS 65 69 0 0 0
M  V30 BEGIN ATOM
M  V30 1 C 3.440865 -0.220162 6.749777 0
M  V30 2 O 3.063363 1.077956 6.399863 0
M  V30 3 C 2.428318 1.513723 5.289372 0
M  V30 4 O 2.511588 0.282768 5.087617 0
M  V30 5 C 1.750435 2.047861 4.124293 0
M  V30 6 C 0.507307 2.789515 4.661486 0
M  V30 7 N 1.285841 1.158336 3.137204 0
M  V30 8 C 0.249372 0.318207 3.577748 0
M  V30 9 C -0.313691 -0.498884 2.408527 0
M  V30 10 C 0.314784 0.063511 1.160794 0
M  V30 11 C -0.322492 -0.332618 -0.094568 0
M  V30 12 C -0.648303 0.701287 -0.979878 0
M  V30 13 C -1.261330 0.322763 -2.180263 0
M  V30 14 C -1.579299 1.456350 -3.073794 0
M  V30 15 C -2.745440 2.193043 -3.081308 0
M  V30 16 C -2.942111 3.240484 -3.951975 0
M  V30 17 C -1.967342 3.596058 -4.860494 0
M  V30 18 F -2.222004 4.637156 -5.686639 0
M  V30 19 C -0.802989 2.856311 -4.849874 0
M  V30 20 C -0.578875 1.803087 -3.990002 0
M  V30 21 Cl 0.934958 0.904350 -4.033816 0
M  V30 22 C -1.549476 -0.997343 -2.516498 0
M  V30 23 C -2.158449 -1.254319 -3.729950 0
M  V30 24 C -2.410437 -2.606639 -3.982138 0
M  V30 25 C -2.075356 -3.625464 -3.080971 0
M  V30 26 O -2.327521 -4.817619 -3.364196 0
M  V30 27 N -1.484221 -3.223488 -1.933951 0
M  V30 28 C -1.173224 -4.306345 -1.067363 0
M  V30 29 C -2.316979 -4.860525 -0.487353 0
M  V30 30 Cl -3.936527 -4.298312 -0.780463 0
M  V30 31 C -2.168858 -5.928540 0.381668 0
M  V30 32 C -0.902178 -6.404197 0.641903 0
M  V30 33 C 0.246369 -5.882651 0.088274 0
M  V30 34 C 0.074970 -4.819817 -0.774043 0
M  V30 35 Cl 1.424950 -4.034002 -1.572042 0
M  V30 36 C -1.196567 -1.956616 -1.590219 0
M  V30 37 C -0.590948 -1.651287 -0.389795 0
M  V30 38 C 1.794218 -0.261503 1.211697 0
M  V30 39 C 2.330193 0.594486 2.357473 0
M  V30 40 H 2.631550 -0.945949 6.811957 0
M  V30 41 H 4.023706 -0.154243 7.698573 0
M  V30 42 H 4.190300 -0.577270 5.993453 0
M  V30 43 H 2.341093 2.894473 3.639118 0
M  V30 44 H -0.237443 2.977673 3.875067 0
M  V30 45 H 0.062754 2.103857 5.413156 0
M  V30 46 H 0.827273 3.719429 5.182611 0
M  V30 47 H 0.414497 -0.305846 4.457373 0
M  V30 48 H -0.621832 0.988389 3.866374 0
M  V30 49 H 0.093838 -1.539336 2.574336 0
M  V30 50 H -1.415133 -0.488967 2.383835 0
M  V30 51 H 0.281508 1.191937 1.231509 0
M  V30 52 H -0.443368 1.741186 -0.761960 0
M  V30 53 H -3.482907 1.882667 -2.353941 0
M  V30 54 H -3.877355 3.784952 -3.913108 0
M  V30 55 H -0.063727 3.158877 -5.572216 0
M  V30 56 H -2.414388 -0.479831 -4.420531 0
M  V30 57 H -2.889824 -2.890104 -4.920974 0
M  V30 58 H -3.030810 -6.402522 0.864467 0
M  V30 59 H -0.838467 -7.250043 1.334787 0
M  V30 60 H 1.237033 -6.260617 0.297152 0
M  V30 61 H -0.340595 -2.452073 0.293075 0
M  V30 62 H 2.253191 0.018319 0.259298 0
M  V30 63 H 1.979195 -1.337710 1.396640 0
M  V30 64 H 3.081022 -0.004911 2.864105 0
M  V30 65 H 2.874916 1.442938 1.884531 0
M  V30 END ATOM
M  V30 BEGIN BOND
M  V30 1 1 1 2
M  V30 2 1 2 3
M  V30 3 2 3 4
M  V30 4 1 3 5
M  V30 5 1 5 6
M  V30 6 1 5 7
M  V30 7 1 7 8
M  V30 8 1 8 9
M  V30 9 1 9 10
M  V30 10 1 10 11
M  V30 11 2 11 12
M  V30 12 1 12 13
M  V30 13 1 13 14
M  V30 14 2 14 15
M  V30 15 1 15 16
M  V30 16 2 16 17
M  V30 17 1 17 18
M  V30 18 1 17 19
M  V30 19 2 19 20
M  V30 20 1 20 21
M  V30 21 2 13 22
M  V30 22 1 22 23
M  V30 23 2 23 24
M  V30 24 1 24 25
M  V30 25 2 25 26
M  V30 26 1 25 27
M  V30 27 1 27 28
M  V30 28 2 28 29
M  V30 29 1 29 30
M  V30 30 1 29 31
M  V30 31 2 31 32
M  V30 32 1 32 33
M  V30 33 2 33 34
M  V30 34 1 34 35
M  V30 35 1 27 36
M  V30 36 2 36 37
M  V30 37 1 10 38
M  V30 38 1 38 39
M  V30 39 1 39 7
M  V30 40 1 37 11
M  V30 41 1 20 14
M  V30 42 1 36 22
M  V30 43 1 34 28
M  V30 44 1 1 40
M  V30 45 1 1 41
M  V30 46 1 1 42
M  V30 47 1 5 43
M  V30 48 1 6 44
M  V30 49 1 6 45
M  V30 50 1 6 46
M  V30 51 1 8 47
M  V30 52 1 8 48
M  V30 53 1 9 49
M  V30 54 1 9 50
M  V30 55 1 10 51
M  V30 56 1 12 52
M  V30 57 1 15 53
M  V30 58 1 16 54
M  V30 59 1 19 55
M  V30 60 1 23 56
M  V30 61 1 24 57
M  V30 62 1 31 58
M  V30 63 1 32 59
M  V30 64 1 33 60
M  V30 65 1 37 61
M  V30 66 1 38 62
M  V30 67 1 38 63
M  V30 68 1 39 64
M  V30 69 1 39 65
M  V30 END BOND
M  V30 END CTAB
M  END
>  <Dataset>  (917) 
ChEMBL_Kinases

>  <Ligand_Instance>  (917) 
nan

>  <PDB_ID>  (917) 
nan

>  <Standardized_SMILES>  (917) 
COC(=O)C(C)N1CCC(c2cc(-c3ccc(F)cc3Cl)c3ccc(=O)n(-c4c(Cl)cccc4Cl)c3c2)CC1

>  <Name>  (917) 
nan

>  <Pocket>  (917) 
nan

>  <ATP_Site>  (917) 
nan

>  <Peripheral>  (917) 
nan

>  <Num_H_Atoms_ProtBoundConf>  (917) 
nan

>  <Num_Resolved_Atoms>  (917) 
nan

>  <Num_Not_Resolved_Atoms>  (917) 
nan

$$$$
CHEMBL199319
     RDKit          3D

  0  0  0  0  0  0  0  0  0  0999 V3000
M  V30 BEGIN CTAB
M  V30 COUNTS 56 59 0 0 0
M  V30 BEGIN ATOM
M  V30 1 C 2.021645 1.260376 4.876358 0
M  V30 2 O 1.363103 0.676554 3.781308 0
M  V30 3 C 1.734516 0.777517 2.464444 0
M  V30 4 C 2.870791 1.539254 2.288192 0
M  V30 5 C 3.402257 1.756640 1.039929 0
M  V30 6 C 2.744187 1.173711 -0.049399 0
M  V30 7 C 3.318890 1.385345 -1.389841 0
M  V30 8 C 2.808854 2.676527 -1.967623 0
M  V30 9 C 1.339700 2.791853 -2.124446 0
M  V30 10 N 0.541917 2.719359 -0.948530 0
M  V30 11 C -0.877105 2.785975 -1.293862 0
M  V30 12 C 0.834229 3.731538 0.051324 0
M  V30 13 C 1.630826 0.437516 0.208465 0
M  V30 14 C 1.043137 0.176172 1.416705 0
M  V30 15 C -0.159542 -0.567298 1.681953 0
M  V30 16 N -0.765198 -0.483960 2.877806 0
M  V30 17 N -1.832928 -1.258646 2.928731 0
M  V30 18 C -1.996575 -1.912967 1.742355 0
M  V30 19 N -2.868998 -2.808700 1.224783 0
M  V30 20 C -2.738076 -3.285727 -0.024207 0
M  V30 21 N -3.730680 -4.220017 -0.428493 0
M  V30 22 C -3.609909 -5.643987 -0.260747 0
M  V30 23 C -2.444561 -6.139399 0.330785 0
M  V30 24 C -2.294931 -7.518892 0.506804 0
M  V30 25 C -3.335486 -8.316723 0.072977 0
M  V30 26 F -3.223805 -9.670523 0.228950 0
M  V30 27 C -4.498665 -7.863971 -0.514253 0
M  V30 28 C -4.616585 -6.497189 -0.674270 0
M  V30 29 F -5.744796 -6.012230 -1.247058 0
M  V30 30 N -1.687247 -2.830426 -0.752981 0
M  V30 31 C -0.814380 -1.941680 -0.252682 0
M  V30 32 C -0.934498 -1.452846 1.000035 0
M  V30 33 H 2.029010 2.372219 4.691972 0
M  V30 34 H 3.106170 0.968162 4.920547 0
M  V30 35 H 1.593397 0.989413 5.841334 0
M  V30 36 H 3.410392 2.007052 3.098857 0
M  V30 37 H 4.290536 2.352023 0.901985 0
M  V30 38 H 4.436976 1.461576 -1.260142 0
M  V30 39 H 3.115146 0.524257 -2.063124 0
M  V30 40 H 3.333780 2.815617 -2.972228 0
M  V30 41 H 3.181791 3.562665 -1.382728 0
M  V30 42 H 1.131894 3.801981 -2.583554 0
M  V30 43 H 0.931780 2.007143 -2.825786 0
M  V30 44 H -1.060592 2.087991 -2.111644 0
M  V30 45 H -1.443825 2.566097 -0.365001 0
M  V30 46 H -1.030329 3.840297 -1.653687 0
M  V30 47 H 1.879375 4.011900 0.060596 0
M  V30 48 H 0.180809 4.601084 -0.145096 0
M  V30 49 H 0.502067 3.273660 1.029036 0
M  V30 50 H 1.219490 0.061196 -0.687828 0
M  V30 51 H -0.715697 -0.025928 3.801967 0
M  V30 52 H -4.604618 -3.854794 -0.875018 0
M  V30 53 H -1.629526 -5.518337 0.670905 0
M  V30 54 H -1.411956 -7.975803 0.961038 0
M  V30 55 H -5.281268 -8.539351 -0.834699 0
M  V30 56 H -0.021384 -1.659140 -0.888365 0
M  V30 END ATOM
M  V30 BEGIN BOND
M  V30 1 1 1 2
M  V30 2 1 2 3
M  V30 3 2 3 4
M  V30 4 1 4 5
M  V30 5 2 5 6
M  V30 6 1 6 7
M  V30 7 1 7 8
M  V30 8 1 8 9
M  V30 9 1 9 10
M  V30 10 1 10 11
M  V30 11 1 10 12
M  V30 12 1 6 13
M  V30 13 2 13 14
M  V30 14 1 14 15
M  V30 15 1 15 16
M  V30 16 1 16 17
M  V30 17 2 17 18
M  V30 18 1 18 19
M  V30 19 2 19 20
M  V30 20 1 20 21
M  V30 21 1 21 22
M  V30 22 2 22 23
M  V30 23 1 23 24
M  V30 24 2 24 25
M  V30 25 1 25 26
M  V30 26 1 25 27
M  V30 27 2 27 28
M  V30 28 1 28 29
M  V30 29 1 20 30
M  V30 30 2 30 31
M  V30 31 1 31 32
M  V30 32 1 14 3
M  V30 33 2 32 15
M  V30 34 1 32 18
M  V30 35 1 28 22
M  V30 36 1 1 33
M  V30 37 1 1 34
M  V30 38 1 1 35
M  V30 39 1 4 36
M  V30 40 1 5 37
M  V30 41 1 7 38
M  V30 42 1 7 39
M  V30 43 1 8 40
M  V30 44 1 8 41
M  V30 45 1 9 42
M  V30 46 1 9 43
M  V30 47 1 11 44
M  V30 48 1 11 45
M  V30 49 1 11 46
M  V30 50 1 12 47
M  V30 51 1 12 48
M  V30 52 1 12 49
M  V30 53 1 13 50
M  V30 54 1 16 51
M  V30 55 1 21 52
M  V30 56 1 23 53
M  V30 57 1 24 54
M  V30 58 1 27 55
M  V30 59 1 31 56
M  V30 END BOND
M  V30 END CTAB
M  END
>  <Dataset>  (918) 
ChEMBL_Kinases

>  <Ligand_Instance>  (918) 
nan

>  <PDB_ID>  (918) 
nan

>  <Standardized_SMILES>  (918) 
COc1ccc(CCCN(C)C)cc1-c1[nH]nc2nc(Nc3ccc(F)cc3F)ncc12

>  <Name>  (918) 
nan

>  <Pocket>  (918) 
nan

>  <ATP_Site>  (918) 
nan

>  <Peripheral>  (918) 
nan

>  <Num_H_Atoms_ProtBoundConf>  (918) 
nan

>  <Num_Resolved_Atoms>  (918) 
nan

>  <Num_Not_Resolved_Atoms>  (918) 
nan

$$$$
CHEMBL199322
     RDKit          3D

  0  0  0  0  0  0  0  0  0  0999 V3000
M  V30 BEGIN CTAB
M  V30 COUNTS 56 60 0 0 0
M  V30 BEGIN ATOM
M  V30 1 C 4.230317 -2.578569 3.257122 0
M  V30 2 O 3.022345 -2.210870 2.689488 0
M  V30 3 C 2.490589 -0.971611 2.497973 0
M  V30 4 C 3.330162 0.021083 2.958918 0
M  V30 5 C 2.984741 1.347563 2.860932 0
M  V30 6 C 1.770727 1.653740 2.287138 0
M  V30 7 C 1.371512 3.044264 2.165384 0
M  V30 8 O 1.206289 3.778321 3.197694 0
M  V30 9 N 1.179965 3.521649 0.817207 0
M  V30 10 C 1.368916 2.701935 -0.356702 0
M  V30 11 C 1.919821 3.439984 -1.530500 0
M  V30 12 N 1.374134 4.773641 -1.667788 0
M  V30 13 C 1.557497 5.542003 -0.457342 0
M  V30 14 C 0.768678 4.898769 0.644196 0
M  V30 15 C 0.998387 0.612986 1.856691 0
M  V30 16 C 1.260341 -0.726160 1.912573 0
M  V30 17 C 0.443260 -1.823982 1.489020 0
M  V30 18 N 0.767736 -3.095724 1.773448 0
M  V30 19 N -0.095970 -3.944195 1.287441 0
M  V30 20 C -1.084130 -3.301405 0.628024 0
M  V30 21 N -2.216028 -3.616653 -0.065378 0
M  V30 22 C -3.015372 -2.697072 -0.631903 0
M  V30 23 N -4.181729 -3.104779 -1.340165 0
M  V30 24 C -4.381704 -4.520664 -1.382007 0
M  V30 25 C -5.435497 -5.261197 -0.908741 0
M  V30 26 C -5.424951 -6.632201 -1.051856 0
M  V30 27 C -4.373465 -7.298572 -1.665196 0
M  V30 28 F -4.434620 -8.662170 -1.770600 0
M  V30 29 C -3.311383 -6.572593 -2.144425 0
M  V30 30 C -3.326525 -5.201123 -1.998824 0
M  V30 31 F -2.218012 -4.577382 -2.513138 0
M  V30 32 C -2.654835 -1.372628 -0.493787 0
M  V30 33 C -1.518512 -1.053379 0.202050 0
M  V30 34 C -0.709058 -1.990900 0.777981 0
M  V30 35 H 5.088850 -1.942057 2.972778 0
M  V30 36 H 4.514142 -3.645160 3.004232 0
M  V30 37 H 4.185760 -2.596846 4.386819 0
M  V30 38 H 4.290580 -0.146920 3.418498 0
M  V30 39 H 3.632825 2.139787 3.216825 0
M  V30 40 H 2.103029 1.908352 -0.098215 0
M  V30 41 H 0.430286 2.179802 -0.650385 0
M  V30 42 H 1.627740 2.902902 -2.463081 0
M  V30 43 H 3.031495 3.519293 -1.518153 0
M  V30 44 H 0.386721 4.795768 -2.002727 0
M  V30 45 H 1.231140 6.568293 -0.654727 0
M  V30 46 H 2.645344 5.537090 -0.243693 0
M  V30 47 H -0.311262 4.941808 0.319034 0
M  V30 48 H 0.931035 5.505148 1.574451 0
M  V30 49 H 0.077599 0.973348 1.446251 0
M  V30 50 H 1.477472 -3.667753 2.259562 0
M  V30 51 H -4.788804 -2.342569 -1.766540 0
M  V30 52 H -6.209949 -4.666754 -0.446771 0
M  V30 53 H -6.296026 -7.136568 -0.649465 0
M  V30 54 H -2.498752 -7.108898 -2.619016 0
M  V30 55 H -3.285544 -0.632488 -0.940346 0
M  V30 56 H -1.303803 -0.013552 0.252590 0
M  V30 END ATOM
M  V30 BEGIN BOND
M  V30 1 1 1 2
M  V30 2 1 2 3
M  V30 3 2 3 4
M  V30 4 1 4 5
M  V30 5 2 5 6
M  V30 6 1 6 7
M  V30 7 2 7 8
M  V30 8 1 7 9
M  V30 9 1 9 10
M  V30 10 1 10 11
M  V30 11 1 11 12
M  V30 12 1 12 13
M  V30 13 1 13 14
M  V30 14 1 6 15
M  V30 15 2 15 16
M  V30 16 1 16 17
M  V30 17 1 17 18
M  V30 18 1 18 19
M  V30 19 2 19 20
M  V30 20 1 20 21
M  V30 21 2 21 22
M  V30 22 1 22 23
M  V30 23 1 23 24
M  V30 24 2 24 25
M  V30 25 1 25 26
M  V30 26 2 26 27
M  V30 27 1 27 28
M  V30 28 1 27 29
M  V30 29 2 29 30
M  V30 30 1 30 31
M  V30 31 1 22 32
M  V30 32 2 32 33
M  V30 33 1 33 34
M  V30 34 1 16 3
M  V30 35 2 34 17
M  V30 36 1 14 9
M  V30 37 1 34 20
M  V30 38 1 30 24
M  V30 39 1 1 35
M  V30 40 1 1 36
M  V30 41 1 1 37
M  V30 42 1 4 38
M  V30 43 1 5 39
M  V30 44 1 10 40
M  V30 45 1 10 41
M  V30 46 1 11 42
M  V30 47 1 11 43
M  V30 48 1 12 44
M  V30 49 1 13 45
M  V30 50 1 13 46
M  V30 51 1 14 47
M  V30 52 1 14 48
M  V30 53 1 15 49
M  V30 54 1 18 50
M  V30 55 1 23 51
M  V30 56 1 25 52
M  V30 57 1 26 53
M  V30 58 1 29 54
M  V30 59 1 32 55
M  V30 60 1 33 56
M  V30 END BOND
M  V30 END CTAB
M  END
>  <Dataset>  (919) 
ChEMBL_Kinases

>  <Ligand_Instance>  (919) 
nan

>  <PDB_ID>  (919) 
nan

>  <Standardized_SMILES>  (919) 
COc1ccc(C(=O)N2CCNCC2)cc1-c1[nH]nc2nc(Nc3ccc(F)cc3F)ccc12

>  <Name>  (919) 
nan

>  <Pocket>  (919) 
nan

>  <ATP_Site>  (919) 
nan

>  <Peripheral>  (919) 
nan

>  <Num_H_Atoms_ProtBoundConf>  (919) 
nan

>  <Num_Resolved_Atoms>  (919) 
nan

>  <Num_Not_Resolved_Atoms>  (919) 
nan

$$$$
CHEMBL1993796
     RDKit          3D

  0  0  0  0  0  0  0  0  0  0999 V3000
M  V30 BEGIN CTAB
M  V30 COUNTS 56 59 0 0 0
M  V30 BEGIN ATOM
M  V30 1 C 9.731332 -2.703457 -0.925206 0
M  V30 2 O 8.488249 -3.133651 -1.435210 0
M  V30 3 C 7.288540 -2.591215 -0.994681 0
M  V30 4 C 7.124863 -1.601147 -0.043388 0
M  V30 5 C 5.866824 -1.152232 0.302228 0
M  V30 6 C 4.714298 -1.654671 -0.269958 0
M  V30 7 C 3.404226 -1.172682 0.104895 0
M  V30 8 N 3.295819 -0.247828 0.997384 0
M  V30 9 N 1.994994 0.167839 1.308509 0
M  V30 10 C 1.108855 1.117237 0.731300 0
M  V30 11 O 1.548927 1.734812 -0.271445 0
M  V30 12 C -0.205037 1.282007 1.346750 0
M  V30 13 C -0.711396 0.619869 2.444442 0
M  V30 14 C -1.987331 0.914357 2.881808 0
M  V30 15 C -2.811168 1.863668 2.263565 0
M  V30 16 C -4.115413 1.991995 2.936615 0
M  V30 17 O -5.102447 1.114447 2.557835 0
M  V30 18 C -5.734741 0.847152 1.403350 0
M  V30 19 C -5.650995 1.347208 0.131380 0
M  V30 20 C -6.371751 0.972903 -0.969114 0
M  V30 21 C -7.293875 -0.031139 -0.765897 0
M  V30 22 C -7.452083 -0.596965 0.475988 0
M  V30 23 C -8.408136 -1.589537 0.536970 0
M  V30 24 C -8.631983 -2.211768 1.745353 0
M  V30 25 C -7.861445 -1.771162 2.797246 0
M  V30 26 N -6.933711 -0.808768 2.740931 0
M  V30 27 C -6.686354 -0.175822 1.572611 0
M  V30 28 C -2.278128 2.508339 1.170655 0
M  V30 29 C -1.006106 2.218094 0.730371 0
M  V30 30 C 4.863390 -2.646506 -1.224103 0
M  V30 31 C 6.127046 -3.080001 -1.554324 0
M  V30 32 O 6.187673 -4.068471 -2.511445 0
M  V30 33 C 5.093185 -4.643094 -3.149359 0
M  V30 34 H 9.664340 -2.427523 0.155641 0
M  V30 35 H 10.468222 -3.514639 -1.097562 0
M  V30 36 H 10.144943 -1.815452 -1.455328 0
M  V30 37 H 8.041768 -1.216529 0.396893 0
M  V30 38 H 5.816077 -0.367408 1.062104 0
M  V30 39 H 2.528468 -1.595065 -0.369393 0
M  V30 40 H 1.808039 -0.435870 2.139207 0
M  V30 41 H -0.051228 -0.101647 2.893377 0
M  V30 42 H -2.266655 0.318872 3.760794 0
M  V30 43 H -4.412307 3.064064 2.813119 0
M  V30 44 H -4.011043 1.892626 4.060149 0
M  V30 45 H -4.914926 2.129409 0.039740 0
M  V30 46 H -6.185311 1.464736 -1.896549 0
M  V30 47 H -7.879617 -0.342300 -1.638196 0
M  V30 48 H -8.984814 -1.896495 -0.320211 0
M  V30 49 H -9.362482 -2.991524 1.856676 0
M  V30 50 H -8.010418 -2.240012 3.768051 0
M  V30 51 H -2.954886 3.231340 0.742337 0
M  V30 52 H -0.729411 2.809066 -0.141364 0
M  V30 53 H 3.967404 -3.042677 -1.674570 0
M  V30 54 H 5.420844 -5.603688 -3.617516 0
M  V30 55 H 4.673182 -4.001010 -3.957300 0
M  V30 56 H 4.257195 -4.943949 -2.463309 0
M  V30 END ATOM
M  V30 BEGIN BOND
M  V30 1 1 1 2
M  V30 2 1 2 3
M  V30 3 2 3 4
M  V30 4 1 4 5
M  V30 5 2 5 6
M  V30 6 1 6 7
M  V30 7 2 7 8
M  V30 8 1 8 9
M  V30 9 1 9 10
M  V30 10 2 10 11
M  V30 11 1 10 12
M  V30 12 2 12 13
M  V30 13 1 13 14
M  V30 14 2 14 15
M  V30 15 1 15 16
M  V30 16 1 16 17
M  V30 17 1 17 18
M  V30 18 2 18 19
M  V30 19 1 19 20
M  V30 20 2 20 21
M  V30 21 1 21 22
M  V30 22 2 22 23
M  V30 23 1 23 24
M  V30 24 2 24 25
M  V30 25 1 25 26
M  V30 26 2 26 27
M  V30 27 1 15 28
M  V30 28 2 28 29
M  V30 29 1 6 30
M  V30 30 2 30 31
M  V30 31 1 31 32
M  V30 32 1 32 33
M  V30 33 1 31 3
M  V30 34 1 29 12
M  V30 35 1 27 18
M  V30 36 1 27 22
M  V30 37 1 1 34
M  V30 38 1 1 35
M  V30 39 1 1 36
M  V30 40 1 4 37
M  V30 41 1 5 38
M  V30 42 1 7 39
M  V30 43 1 9 40
M  V30 44 1 13 41
M  V30 45 1 14 42
M  V30 46 1 16 43
M  V30 47 1 16 44
M  V30 48 1 19 45
M  V30 49 1 20 46
M  V30 50 1 21 47
M  V30 51 1 23 48
M  V30 52 1 24 49
M  V30 53 1 25 50
M  V30 54 1 28 51
M  V30 55 1 29 52
M  V30 56 1 30 53
M  V30 57 1 33 54
M  V30 58 1 33 55
M  V30 59 1 33 56
M  V30 END BOND
M  V30 END CTAB
M  END
>  <Dataset>  (920) 
ChEMBL_Kinases

>  <Ligand_Instance>  (920) 
nan

>  <PDB_ID>  (920) 
nan

>  <Standardized_SMILES>  (920) 
COc1ccc(/C=N/NC(=O)c2ccc(COc3cccc4cccnc34)cc2)cc1OC

>  <Name>  (920) 
nan

>  <Pocket>  (920) 
nan

>  <ATP_Site>  (920) 
nan

>  <Peripheral>  (920) 
nan

>  <Num_H_Atoms_ProtBoundConf>  (920) 
nan

>  <Num_Resolved_Atoms>  (920) 
nan

>  <Num_Not_Resolved_Atoms>  (920) 
nan

$$$$
CHEMBL199395
     RDKit          3D

  0  0  0  0  0  0  0  0  0  0999 V3000
M  V30 BEGIN CTAB
M  V30 COUNTS 45 49 0 0 0
M  V30 BEGIN ATOM
M  V30 1 C 4.312792 -2.389798 2.937896 0
M  V30 2 C 3.615444 -1.680898 2.046607 0
M  V30 3 C 3.933279 -1.424289 0.625745 0
M  V30 4 N 2.862786 -1.950727 -0.210358 0
M  V30 5 N 2.747494 -3.167298 -0.741735 0
M  V30 6 C 1.617127 -3.274293 -1.453742 0
M  V30 7 N 1.166552 -4.422137 -2.158258 0
M  V30 8 C 0.954897 -2.065808 -1.387134 0
M  V30 9 C -0.234584 -1.557445 -1.899706 0
M  V30 10 C -0.596771 -0.253678 -1.618234 0
M  V30 11 C -1.860926 0.167024 -2.208229 0
M  V30 12 C -2.974198 0.582407 -1.495494 0
M  V30 13 C -3.168121 0.704465 -0.056353 0
M  V30 14 C -2.401641 1.603727 0.661279 0
M  V30 15 C -2.534993 1.769892 2.033214 0
M  V30 16 C -3.457678 1.024960 2.735310 0
M  V30 17 C -4.231959 0.123118 2.041105 0
M  V30 18 C -4.076331 -0.017429 0.688048 0
M  V30 19 N -3.951574 0.892062 -2.348527 0
M  V30 20 N -3.528665 0.697637 -3.604254 0
M  V30 21 C -4.168788 0.877497 -4.779027 0
M  V30 22 C -3.473478 0.591476 -5.934772 0
M  V30 23 C -2.171109 0.138497 -5.884537 0
M  V30 24 C -1.537649 -0.037563 -4.670366 0
M  V30 25 C -2.257106 0.256257 -3.528492 0
M  V30 26 N 0.227723 0.470978 -0.852916 0
M  V30 27 N 1.361751 0.005715 -0.356818 0
M  V30 28 C 1.764908 -1.270826 -0.603567 0
M  V30 29 H 5.221755 -2.818165 2.537229 0
M  V30 30 H 3.837546 -2.410355 3.917433 0
M  V30 31 H 2.674839 -1.159536 2.212759 0
M  V30 32 H 4.138736 -0.355925 0.419215 0
M  V30 33 H 4.846520 -1.992163 0.348106 0
M  V30 34 H 1.835572 -4.572133 -2.949265 0
M  V30 35 H 0.342809 -5.037480 -1.976887 0
M  V30 36 H -0.819492 -2.249886 -2.510204 0
M  V30 37 H -1.649883 2.240488 0.223469 0
M  V30 38 H -1.922434 2.486327 2.596469 0
M  V30 39 H -3.541455 1.175789 3.812985 0
M  V30 40 H -4.958464 -0.461294 2.603585 0
M  V30 41 H -4.692518 -0.736291 0.129898 0
M  V30 42 H -5.189606 1.232358 -4.831053 0
M  V30 43 H -3.980083 0.732841 -6.882849 0
M  V30 44 H -1.604025 -0.093702 -6.799615 0
M  V30 45 H -0.501582 -0.396475 -4.598592 0
M  V30 END ATOM
M  V30 BEGIN BOND
M  V30 1 2 1 2
M  V30 2 1 2 3
M  V30 3 1 3 4
M  V30 4 1 4 5
M  V30 5 2 5 6
M  V30 6 1 6 7
M  V30 7 1 6 8
M  V30 8 2 8 9
M  V30 9 1 9 10
M  V30 10 1 10 11
M  V30 11 1 11 12
M  V30 12 1 12 13
M  V30 13 2 13 14
M  V30 14 1 14 15
M  V30 15 2 15 16
M  V30 16 1 16 17
M  V30 17 2 17 18
M  V30 18 2 12 19
M  V30 19 1 19 20
M  V30 20 1 20 21
M  V30 21 2 21 22
M  V30 22 1 22 23
M  V30 23 2 23 24
M  V30 24 1 24 25
M  V30 25 2 10 26
M  V30 26 1 26 27
M  V30 27 2 27 28
M  V30 28 1 28 4
M  V30 29 1 28 8
M  V30 30 2 25 11
M  V30 31 1 18 13
M  V30 32 1 25 20
M  V30 33 1 1 29
M  V30 34 1 1 30
M  V30 35 1 2 31
M  V30 36 1 3 32
M  V30 37 1 3 33
M  V30 38 1 7 34
M  V30 39 1 7 35
M  V30 40 1 9 36
M  V30 41 1 14 37
M  V30 42 1 15 38
M  V30 43 1 16 39
M  V30 44 1 17 40
M  V30 45 1 18 41
M  V30 46 1 21 42
M  V30 47 1 22 43
M  V30 48 1 23 44
M  V30 49 1 24 45
M  V30 END BOND
M  V30 END CTAB
M  END
>  <Dataset>  (921) 
ChEMBL_Kinases

>  <Ligand_Instance>  (921) 
nan

>  <PDB_ID>  (921) 
nan

>  <Standardized_SMILES>  (921) 
C=CCn1nc(N)c2cc(-c3c(-c4ccccc4)nn4ccccc34)nnc21

>  <Name>  (921) 
nan

>  <Pocket>  (921) 
nan

>  <ATP_Site>  (921) 
nan

>  <Peripheral>  (921) 
nan

>  <Num_H_Atoms_ProtBoundConf>  (921) 
nan

>  <Num_Resolved_Atoms>  (921) 
nan

>  <Num_Not_Resolved_Atoms>  (921) 
nan

$$$$
CHEMBL199435
     RDKit          3D

  0  0  0  0  0  0  0  0  0  0999 V3000
M  V30 BEGIN CTAB
M  V30 COUNTS 66 70 0 0 0
M  V30 BEGIN ATOM
M  V30 1 C 5.233523 -0.192987 4.027822 0
M  V30 2 C 3.816348 0.135603 3.632301 0
M  V30 3 C 2.867172 -0.183579 4.794445 0
M  V30 4 C 3.739865 1.636125 3.438441 0
M  V30 5 N 3.323106 -0.536483 2.494459 0
M  V30 6 C 3.279716 -1.954998 2.547893 0
M  V30 7 C 2.085640 -2.468328 1.766946 0
M  V30 8 C 1.708976 -1.400278 0.772173 0
M  V30 9 O 0.772974 -1.766966 -0.158598 0
M  V30 10 C -0.436535 -1.114802 -0.261911 0
M  V30 11 C -1.041838 -0.063888 0.391573 0
M  V30 12 C -2.302865 0.361376 0.035992 0
M  V30 13 C -2.766928 1.483239 0.844466 0
M  V30 14 C -3.472550 1.438241 2.027823 0
M  V30 15 C -3.845351 2.583560 2.683793 0
M  V30 16 C -3.495363 3.814687 2.128621 0
M  V30 17 F -3.852479 4.972516 2.758630 0
M  V30 18 C -2.783262 3.901511 0.935407 0
M  V30 19 C -2.426950 2.705788 0.305837 0
M  V30 20 F -1.734847 2.888295 -0.851221 0
M  V30 21 C -3.033777 -0.223160 -0.978790 0
M  V30 22 C -4.282859 0.300350 -1.230643 0
M  V30 23 C -4.989275 -0.304430 -2.249428 0
M  V30 24 C -4.416016 -1.371585 -2.938239 0
M  V30 25 O -5.049791 -1.931702 -3.869250 0
M  V30 26 N -3.192568 -1.814857 -2.623857 0
M  V30 27 C -2.647612 -2.906742 -3.354048 0
M  V30 28 C -2.871528 -4.104914 -2.696619 0
M  V30 29 Cl -3.706683 -4.295960 -1.171427 0
M  V30 30 C -2.419015 -5.312373 -3.238953 0
M  V30 31 C -1.742771 -5.279605 -4.447374 0
M  V30 32 C -1.525438 -4.081962 -5.092918 0
M  V30 33 C -1.968286 -2.892131 -4.563995 0
M  V30 34 Cl -1.770239 -1.298872 -5.260084 0
M  V30 35 C -2.444642 -1.276821 -1.644672 0
M  V30 36 C -1.163127 -1.723839 -1.297938 0
M  V30 37 C 3.016343 -0.906729 0.160120 0
M  V30 38 C 3.692894 -0.014171 1.210453 0
M  V30 39 H 5.310630 -0.064346 5.143953 0
M  V30 40 H 5.892304 0.531470 3.521219 0
M  V30 41 H 5.417956 -1.244061 3.790630 0
M  V30 42 H 2.994594 0.646862 5.520269 0
M  V30 43 H 1.835529 -0.149947 4.432894 0
M  V30 44 H 3.158616 -1.137208 5.278228 0
M  V30 45 H 2.838159 1.938389 2.863197 0
M  V30 46 H 3.630367 2.085882 4.455273 0
M  V30 47 H 4.671662 2.071057 3.026290 0
M  V30 48 H 4.234036 -2.384680 2.143336 0
M  V30 49 H 3.158767 -2.293026 3.580770 0
M  V30 50 H 2.420561 -3.360400 1.199849 0
M  V30 51 H 1.247377 -2.748699 2.437576 0
M  V30 52 H 1.342578 -0.551674 1.377049 0
M  V30 53 H -0.419300 0.333781 1.158240 0
M  V30 54 H -3.698386 0.426282 2.380360 0
M  V30 55 H -4.396309 2.514996 3.607060 0
M  V30 56 H -2.548012 4.884833 0.566118 0
M  V30 57 H -4.680792 1.131701 -0.664370 0
M  V30 58 H -5.980342 0.035753 -2.522188 0
M  V30 59 H -2.549305 -6.283093 -2.797126 0
M  V30 60 H -1.331096 -6.120339 -4.996571 0
M  V30 61 H -1.005339 -3.981210 -6.038519 0
M  V30 62 H -0.875620 -2.557699 -1.933844 0
M  V30 63 H 2.857675 -0.275579 -0.723266 0
M  V30 64 H 3.676110 -1.755562 -0.094330 0
M  V30 65 H 4.787741 -0.100955 1.047933 0
M  V30 66 H 3.412661 1.034040 1.129980 0
M  V30 END ATOM
M  V30 BEGIN BOND
M  V30 1 1 1 2
M  V30 2 1 2 3
M  V30 3 1 2 4
M  V30 4 1 2 5
M  V30 5 1 5 6
M  V30 6 1 6 7
M  V30 7 1 7 8
M  V30 8 1 8 9
M  V30 9 1 9 10
M  V30 10 2 10 11
M  V30 11 1 11 12
M  V30 12 1 12 13
M  V30 13 2 13 14
M  V30 14 1 14 15
M  V30 15 2 15 16
M  V30 16 1 16 17
M  V30 17 1 16 18
M  V30 18 2 18 19
M  V30 19 1 19 20
M  V30 20 2 12 21
M  V30 21 1 21 22
M  V30 22 2 22 23
M  V30 23 1 23 24
M  V30 24 2 24 25
M  V30 25 1 24 26
M  V30 26 1 26 27
M  V30 27 2 27 28
M  V30 28 1 28 29
M  V30 29 1 28 30
M  V30 30 2 30 31
M  V30 31 1 31 32
M  V30 32 2 32 33
M  V30 33 1 33 34
M  V30 34 1 26 35
M  V30 35 2 35 36
M  V30 36 1 8 37
M  V30 37 1 37 38
M  V30 38 1 38 5
M  V30 39 1 36 10
M  V30 40 1 19 13
M  V30 41 1 35 21
M  V30 42 1 33 27
M  V30 43 1 1 39
M  V30 44 1 1 40
M  V30 45 1 1 41
M  V30 46 1 3 42
M  V30 47 1 3 43
M  V30 48 1 3 44
M  V30 49 1 4 45
M  V30 50 1 4 46
M  V30 51 1 4 47
M  V30 52 1 6 48
M  V30 53 1 6 49
M  V30 54 1 7 50
M  V30 55 1 7 51
M  V30 56 1 8 52
M  V30 57 1 11 53
M  V30 58 1 14 54
M  V30 59 1 15 55
M  V30 60 1 18 56
M  V30 61 1 22 57
M  V30 62 1 23 58
M  V30 63 1 30 59
M  V30 64 1 31 60
M  V30 65 1 32 61
M  V30 66 1 36 62
M  V30 67 1 37 63
M  V30 68 1 37 64
M  V30 69 1 38 65
M  V30 70 1 38 66
M  V30 END BOND
M  V30 END CTAB
M  END
>  <Dataset>  (922) 
ChEMBL_Kinases

>  <Ligand_Instance>  (922) 
nan

>  <PDB_ID>  (922) 
nan

>  <Standardized_SMILES>  (922) 
CC(C)(C)N1CCC(Oc2cc(-c3ccc(F)cc3F)c3ccc(=O)n(-c4c(Cl)cccc4Cl)c3c2)CC1

>  <Name>  (922) 
nan

>  <Pocket>  (922) 
nan

>  <ATP_Site>  (922) 
nan

>  <Peripheral>  (922) 
nan

>  <Num_H_Atoms_ProtBoundConf>  (922) 
nan

>  <Num_Resolved_Atoms>  (922) 
nan

>  <Num_Not_Resolved_Atoms>  (922) 
nan

$$$$
CHEMBL199625
     RDKit          3D

  0  0  0  0  0  0  0  0  0  0999 V3000
M  V30 BEGIN CTAB
M  V30 COUNTS 64 68 0 0 0
M  V30 BEGIN ATOM
M  V30 1 C 1.822119 -0.470700 5.418699 0
M  V30 2 C 1.733272 -1.722936 4.579213 0
M  V30 3 C 2.621247 -2.767144 5.269964 0
M  V30 4 C 0.308139 -2.260457 4.771413 0
M  V30 5 N 2.075924 -1.503632 3.256779 0
M  V30 6 C 2.024027 -2.581139 2.340214 0
M  V30 7 C 1.100487 -2.227823 1.177790 0
M  V30 8 C 0.707531 -0.783603 1.303881 0
M  V30 9 C -0.191399 -0.290774 0.263046 0
M  V30 10 C -0.148722 -0.878912 -0.984200 0
M  V30 11 C -0.974433 -0.433864 -1.986082 0
M  V30 12 C -1.860994 0.604355 -1.776817 0
M  V30 13 C -2.685947 1.059115 -2.757999 0
M  V30 14 C -2.636162 0.457855 -4.012973 0
M  V30 15 C -1.755772 -0.590151 -4.256935 0
M  V30 16 O -1.700995 -1.141145 -5.381622 0
M  V30 17 N -0.975031 -0.978803 -3.235733 0
M  V30 18 C -0.082640 -2.060420 -3.516045 0
M  V30 19 C -0.780351 -3.265559 -3.378818 0
M  V30 20 Cl -2.473232 -3.467190 -2.930785 0
M  V30 21 C -0.147108 -4.489879 -3.597568 0
M  V30 22 C 1.191791 -4.490377 -3.955344 0
M  V30 23 C 1.843941 -3.299905 -4.080592 0
M  V30 24 C 1.227776 -2.066492 -3.865722 0
M  V30 25 Cl 1.940130 -0.488974 -3.988953 0
M  V30 26 C -1.891333 1.189201 -0.507533 0
M  V30 27 C -2.788746 2.298720 -0.224217 0
M  V30 28 C -4.159877 2.279600 -0.334936 0
M  V30 29 C -5.041169 3.298945 -0.069274 0
M  V30 30 C -4.446739 4.484252 0.362974 0
M  V30 31 F -5.273192 5.538826 0.641635 0
M  V30 32 C -3.077342 4.623436 0.512738 0
M  V30 33 C -2.284348 3.509162 0.209615 0
M  V30 34 F -0.950871 3.704813 0.372988 0
M  V30 35 N -1.058956 0.717624 0.450939 0
M  V30 36 C 1.959231 0.074397 1.443928 0
M  V30 37 C 2.591880 -0.303674 2.781167 0
M  V30 38 H 1.243415 0.374149 5.008706 0
M  V30 39 H 1.329712 -0.680026 6.415847 0
M  V30 40 H 2.867661 -0.228664 5.693039 0
M  V30 41 H 3.659589 -2.446742 5.351385 0
M  V30 42 H 2.480761 -3.720605 4.712869 0
M  V30 43 H 2.143664 -2.934070 6.266576 0
M  V30 44 H -0.456765 -1.483978 4.604614 0
M  V30 45 H 0.146969 -3.167682 4.163174 0
M  V30 46 H 0.244499 -2.567048 5.834747 0
M  V30 47 H 3.038325 -2.709566 1.910291 0
M  V30 48 H 1.744729 -3.527513 2.805640 0
M  V30 49 H 0.214556 -2.865417 1.205823 0
M  V30 50 H 1.633519 -2.345736 0.206923 0
M  V30 51 H 0.182435 -0.655245 2.295276 0
M  V30 52 H 0.476211 -1.681099 -1.292212 0
M  V30 53 H -3.376143 1.861400 -2.626250 0
M  V30 54 H -3.281286 0.799838 -4.811379 0
M  V30 55 H -0.604392 -5.456167 -3.513986 0
M  V30 56 H 1.741534 -5.411940 -4.139568 0
M  V30 57 H 2.892820 -3.217088 -4.358899 0
M  V30 58 H -4.632647 1.345426 -0.672334 0
M  V30 59 H -6.104383 3.180904 -0.187829 0
M  V30 60 H -2.638697 5.544762 0.844906 0
M  V30 61 H 2.643637 -0.039423 0.597277 0
M  V30 62 H 1.606199 1.108718 1.489899 0
M  V30 63 H 3.685963 -0.469574 2.547403 0
M  V30 64 H 2.566445 0.530257 3.466939 0
M  V30 END ATOM
M  V30 BEGIN BOND
M  V30 1 1 1 2
M  V30 2 1 2 3
M  V30 3 1 2 4
M  V30 4 1 2 5
M  V30 5 1 5 6
M  V30 6 1 6 7
M  V30 7 1 7 8
M  V30 8 1 8 9
M  V30 9 2 9 10
M  V30 10 1 10 11
M  V30 11 2 11 12
M  V30 12 1 12 13
M  V30 13 2 13 14
M  V30 14 1 14 15
M  V30 15 2 15 16
M  V30 16 1 15 17
M  V30 17 1 17 18
M  V30 18 2 18 19
M  V30 19 1 19 20
M  V30 20 1 19 21
M  V30 21 2 21 22
M  V30 22 1 22 23
M  V30 23 2 23 24
M  V30 24 1 24 25
M  V30 25 1 12 26
M  V30 26 1 26 27
M  V30 27 2 27 28
M  V30 28 1 28 29
M  V30 29 2 29 30
M  V30 30 1 30 31
M  V30 31 1 30 32
M  V30 32 2 32 33
M  V30 33 1 33 34
M  V30 34 2 26 35
M  V30 35 1 8 36
M  V30 36 1 36 37
M  V30 37 1 37 5
M  V30 38 1 35 9
M  V30 39 1 17 11
M  V30 40 1 24 18
M  V30 41 1 33 27
M  V30 42 1 1 38
M  V30 43 1 1 39
M  V30 44 1 1 40
M  V30 45 1 3 41
M  V30 46 1 3 42
M  V30 47 1 3 43
M  V30 48 1 4 44
M  V30 49 1 4 45
M  V30 50 1 4 46
M  V30 51 1 6 47
M  V30 52 1 6 48
M  V30 53 1 7 49
M  V30 54 1 7 50
M  V30 55 1 8 51
M  V30 56 1 10 52
M  V30 57 1 13 53
M  V30 58 1 14 54
M  V30 59 1 21 55
M  V30 60 1 22 56
M  V30 61 1 23 57
M  V30 62 1 28 58
M  V30 63 1 29 59
M  V30 64 1 32 60
M  V30 65 1 36 61
M  V30 66 1 36 62
M  V30 67 1 37 63
M  V30 68 1 37 64
M  V30 END BOND
M  V30 END CTAB
M  END
>  <Dataset>  (923) 
ChEMBL_Kinases

>  <Ligand_Instance>  (923) 
nan

>  <PDB_ID>  (923) 
nan

>  <Standardized_SMILES>  (923) 
CC(C)(C)N1CCC(c2cc3c(ccc(=O)n3-c3c(Cl)cccc3Cl)c(-c3ccc(F)cc3F)n2)CC1

>  <Name>  (923) 
nan

>  <Pocket>  (923) 
nan

>  <ATP_Site>  (923) 
nan

>  <Peripheral>  (923) 
nan

>  <Num_H_Atoms_ProtBoundConf>  (923) 
nan

>  <Num_Resolved_Atoms>  (923) 
nan

>  <Num_Not_Resolved_Atoms>  (923) 
nan

$$$$
CHEMBL1994830
     RDKit          3D

  0  0  0  0  0  0  0  0  0  0999 V3000
M  V30 BEGIN CTAB
M  V30 COUNTS 32 35 0 0 0
M  V30 BEGIN ATOM
M  V30 1 N -0.010400 -5.527322 4.698920 0
M  V30 2 C 0.318130 -4.501979 3.743061 0
M  V30 3 N 1.482373 -3.863097 3.523379 0
M  V30 4 N 1.244210 -3.013583 2.531493 0
M  V30 5 C -0.016472 -3.121807 2.152084 0
M  V30 6 C -0.704199 -2.385205 1.103506 0
M  V30 7 C -0.172619 -1.378774 0.247199 0
M  V30 8 C -1.004107 -0.822292 -0.667162 0
M  V30 9 C -0.744634 0.152228 -1.603674 0
M  V30 10 O 0.509499 0.723363 -1.719339 0
M  V30 11 C 1.012172 1.418616 -0.632809 0
M  V30 12 C 2.324134 1.809695 -0.926741 0
M  V30 13 C 3.092063 2.533376 -0.012377 0
M  V30 14 C 2.549371 2.872541 1.209151 0
M  V30 15 Cl 3.401116 3.780371 2.454781 0
M  V30 16 C 1.259641 2.479551 1.478903 0
M  V30 17 C 0.496736 1.765567 0.580991 0
M  V30 18 C -1.743101 0.557496 -2.430382 0
M  V30 19 N -3.010629 0.109978 -2.453688 0
M  V30 20 C -3.351056 -0.824897 -1.590998 0
M  V30 21 C -2.345944 -1.267437 -0.722289 0
M  V30 22 S -2.397745 -2.575375 0.641148 0
M  V30 23 O -0.594462 -4.034354 2.890910 0
M  V30 24 H -0.944023 -5.513145 5.180956 0
M  V30 25 H 0.717637 -6.262266 4.875426 0
M  V30 26 H 0.863738 -1.121020 0.380577 0
M  V30 27 H 2.905041 1.625386 -1.841825 0
M  V30 28 H 4.098071 2.862939 -0.172578 0
M  V30 29 H 0.773060 2.712313 2.417475 0
M  V30 30 H -0.515575 1.422458 0.699442 0
M  V30 31 H -1.503533 1.340153 -3.170649 0
M  V30 32 H -4.290608 -1.297774 -1.457515 0
M  V30 END ATOM
M  V30 BEGIN BOND
M  V30 1 1 1 2
M  V30 2 2 2 3
M  V30 3 1 3 4
M  V30 4 2 4 5
M  V30 5 1 5 6
M  V30 6 2 6 7
M  V30 7 1 7 8
M  V30 8 2 8 9
M  V30 9 1 9 10
M  V30 10 1 10 11
M  V30 11 2 11 12
M  V30 12 1 12 13
M  V30 13 2 13 14
M  V30 14 1 14 15
M  V30 15 1 14 16
M  V30 16 2 16 17
M  V30 17 1 9 18
M  V30 18 2 18 19
M  V30 19 1 19 20
M  V30 20 2 20 21
M  V30 21 1 21 22
M  V30 22 1 5 23
M  V30 23 1 23 2
M  V30 24 1 22 6
M  V30 25 1 21 8
M  V30 26 1 17 11
M  V30 27 1 1 24
M  V30 28 1 1 25
M  V30 29 1 7 26
M  V30 30 1 12 27
M  V30 31 1 13 28
M  V30 32 1 16 29
M  V30 33 1 17 30
M  V30 34 1 18 31
M  V30 35 1 20 32
M  V30 END BOND
M  V30 END CTAB
M  END
>  <Dataset>  (924) 
ChEMBL_Kinases

>  <Ligand_Instance>  (924) 
nan

>  <PDB_ID>  (924) 
nan

>  <Standardized_SMILES>  (924) 
Nc1nnc(-c2cc3c(Oc4ccc(Cl)cc4)cncc3s2)o1

>  <Name>  (924) 
nan

>  <Pocket>  (924) 
nan

>  <ATP_Site>  (924) 
nan

>  <Peripheral>  (924) 
nan

>  <Num_H_Atoms_ProtBoundConf>  (924) 
nan

>  <Num_Resolved_Atoms>  (924) 
nan

>  <Num_Not_Resolved_Atoms>  (924) 
nan

$$$$
CHEMBL199484
     RDKit          3D

  0  0  0  0  0  0  0  0  0  0999 V3000
M  V30 BEGIN CTAB
M  V30 COUNTS 65 69 0 0 0
M  V30 BEGIN ATOM
M  V30 1 C 1.340067 -1.407490 4.958289 0
M  V30 2 C 2.285872 -0.266777 4.743373 0
M  V30 3 C 2.088531 0.815957 5.809730 0
M  V30 4 C 3.700492 -0.792176 4.995384 0
M  V30 5 N 2.196074 0.317457 3.406118 0
M  V30 6 C 2.500088 -0.692676 2.463839 0
M  V30 7 C 2.004554 -0.434095 1.070364 0
M  V30 8 C 0.505321 -0.268086 1.220829 0
M  V30 9 C -0.207776 -0.357499 -0.072545 0
M  V30 10 C 0.097625 0.593949 -1.006954 0
M  V30 11 C -0.540571 0.561026 -2.241223 0
M  V30 12 C -0.198029 1.586164 -3.220605 0
M  V30 13 C 0.776741 1.555227 -4.174307 0
M  V30 14 C 0.976245 2.614536 -5.032200 0
M  V30 15 C 0.187049 3.756571 -4.954686 0
M  V30 16 F 0.416269 4.782870 -5.821687 0
M  V30 17 C -0.802025 3.794699 -3.991164 0
M  V30 18 C -1.002952 2.717643 -3.120816 0
M  V30 19 Cl -2.289118 2.917067 -1.961182 0
M  V30 20 C -1.468704 -0.421346 -2.513153 0
M  V30 21 C -2.091549 -0.436965 -3.744640 0
M  V30 22 C -3.011958 -1.438410 -3.969884 0
M  V30 23 C -3.324570 -2.400035 -3.033517 0
M  V30 24 O -4.163060 -3.320445 -3.225587 0
M  V30 25 N -2.707814 -2.371838 -1.834793 0
M  V30 26 C -2.973882 -3.334580 -0.802346 0
M  V30 27 C -2.219749 -4.502881 -0.807165 0
M  V30 28 F -1.257526 -4.738354 -1.754198 0
M  V30 29 C -2.434144 -5.466271 0.165375 0
M  V30 30 C -3.416633 -5.200224 1.113222 0
M  V30 31 C -4.169802 -4.045955 1.127456 0
M  V30 32 C -3.943323 -3.090718 0.146884 0
M  V30 33 F -4.656590 -1.946538 0.121821 0
M  V30 34 C -1.798355 -1.396790 -1.588576 0
M  V30 35 C -1.144883 -1.336984 -0.367320 0
M  V30 36 C 0.313090 1.021365 1.942110 0
M  V30 37 C 0.907699 0.920427 3.306051 0
M  V30 38 H 0.570838 -1.527715 4.168300 0
M  V30 39 H 1.873553 -2.378430 5.023642 0
M  V30 40 H 0.856862 -1.286556 5.971442 0
M  V30 41 H 1.170006 1.374220 5.619367 0
M  V30 42 H 3.023623 1.411625 5.782759 0
M  V30 43 H 2.088495 0.269288 6.786138 0
M  V30 44 H 3.804646 -0.868284 6.101549 0
M  V30 45 H 4.482370 -0.105573 4.655489 0
M  V30 46 H 3.822837 -1.813996 4.582804 0
M  V30 47 H 3.625732 -0.752507 2.404297 0
M  V30 48 H 2.078135 -1.658561 2.799408 0
M  V30 49 H 2.304034 -1.260139 0.426385 0
M  V30 50 H 2.406714 0.527593 0.661803 0
M  V30 51 H 0.146226 -1.101690 1.845413 0
M  V30 52 H 0.823275 1.369654 -0.806717 0
M  V30 53 H 1.349115 0.636814 -4.174478 0
M  V30 54 H 1.761254 2.542349 -5.770861 0
M  V30 55 H -1.410481 4.699100 -3.946233 0
M  V30 56 H -1.886651 0.298726 -4.530411 0
M  V30 57 H -3.553264 -1.523190 -4.924036 0
M  V30 58 H -1.889624 -6.401727 0.230688 0
M  V30 59 H -3.608836 -5.939583 1.892030 0
M  V30 60 H -4.911160 -3.911879 1.892650 0
M  V30 61 H -1.347221 -2.069401 0.418083 0
M  V30 62 H -0.761282 1.290394 2.085594 0
M  V30 63 H 0.859973 1.827318 1.405377 0
M  V30 64 H 1.018081 1.983495 3.672743 0
M  V30 65 H 0.148983 0.473022 3.979268 0
M  V30 END ATOM
M  V30 BEGIN BOND
M  V30 1 1 1 2
M  V30 2 1 2 3
M  V30 3 1 2 4
M  V30 4 1 2 5
M  V30 5 1 5 6
M  V30 6 1 6 7
M  V30 7 1 7 8
M  V30 8 1 8 9
M  V30 9 2 9 10
M  V30 10 1 10 11
M  V30 11 1 11 12
M  V30 12 2 12 13
M  V30 13 1 13 14
M  V30 14 2 14 15
M  V30 15 1 15 16
M  V30 16 1 15 17
M  V30 17 2 17 18
M  V30 18 1 18 19
M  V30 19 2 11 20
M  V30 20 1 20 21
M  V30 21 2 21 22
M  V30 22 1 22 23
M  V30 23 2 23 24
M  V30 24 1 23 25
M  V30 25 1 25 26
M  V30 26 2 26 27
M  V30 27 1 27 28
M  V30 28 1 27 29
M  V30 29 2 29 30
M  V30 30 1 30 31
M  V30 31 2 31 32
M  V30 32 1 32 33
M  V30 33 1 25 34
M  V30 34 2 34 35
M  V30 35 1 8 36
M  V30 36 1 36 37
M  V30 37 1 37 5
M  V30 38 1 35 9
M  V30 39 1 18 12
M  V30 40 1 34 20
M  V30 41 1 32 26
M  V30 42 1 1 38
M  V30 43 1 1 39
M  V30 44 1 1 40
M  V30 45 1 3 41
M  V30 46 1 3 42
M  V30 47 1 3 43
M  V30 48 1 4 44
M  V30 49 1 4 45
M  V30 50 1 4 46
M  V30 51 1 6 47
M  V30 52 1 6 48
M  V30 53 1 7 49
M  V30 54 1 7 50
M  V30 55 1 8 51
M  V30 56 1 10 52
M  V30 57 1 13 53
M  V30 58 1 14 54
M  V30 59 1 17 55
M  V30 60 1 21 56
M  V30 61 1 22 57
M  V30 62 1 29 58
M  V30 63 1 30 59
M  V30 64 1 31 60
M  V30 65 1 35 61
M  V30 66 1 36 62
M  V30 67 1 36 63
M  V30 68 1 37 64
M  V30 69 1 37 65
M  V30 END BOND
M  V30 END CTAB
M  END
>  <Dataset>  (925) 
ChEMBL_Kinases

>  <Ligand_Instance>  (925) 
nan

>  <PDB_ID>  (925) 
nan

>  <Standardized_SMILES>  (925) 
CC(C)(C)N1CCC(c2cc(-c3ccc(F)cc3Cl)c3ccc(=O)n(-c4c(F)cccc4F)c3c2)CC1

>  <Name>  (925) 
nan

>  <Pocket>  (925) 
nan

>  <ATP_Site>  (925) 
nan

>  <Peripheral>  (925) 
nan

>  <Num_H_Atoms_ProtBoundConf>  (925) 
nan

>  <Num_Resolved_Atoms>  (925) 
nan

>  <Num_Not_Resolved_Atoms>  (925) 
nan

$$$$
CHEMBL199547
     RDKit          3D

  0  0  0  0  0  0  0  0  0  0999 V3000
M  V30 BEGIN CTAB
M  V30 COUNTS 52 56 0 0 0
M  V30 BEGIN ATOM
M  V30 1 C 5.531640 -3.283602 1.432199 0
M  V30 2 O 5.454853 -3.238938 0.036004 0
M  V30 3 C 4.861550 -2.237874 -0.704296 0
M  V30 4 C 4.846365 -2.301390 -2.087961 0
M  V30 5 C 4.246505 -1.288005 -2.817059 0
M  V30 6 C 3.667512 -0.220542 -2.153169 0
M  V30 7 C 3.649704 -0.099193 -0.777676 0
M  V30 8 C 4.264589 -1.140707 -0.072310 0
M  V30 9 C 3.128656 0.885069 0.181459 0
M  V30 10 N 1.907146 1.538613 -0.251559 0
M  V30 11 C 1.400232 1.905511 -1.535885 0
M  V30 12 C 0.253734 2.701028 -1.459083 0
M  V30 13 N -0.233914 3.024891 -0.156433 0
M  V30 14 C -1.189087 2.133727 0.446294 0
M  V30 15 C -1.702654 2.392714 1.714027 0
M  V30 16 N -2.607140 1.547531 2.283075 0
M  V30 17 C -2.996174 0.456033 1.597150 0
M  V30 18 N -3.932119 -0.530959 2.042232 0
M  V30 19 C -3.457453 -1.663889 2.769314 0
M  V30 20 O -2.216936 -1.734164 2.983487 0
M  V30 21 C -4.401018 -2.673455 3.226449 0
M  V30 22 C -5.766065 -2.683941 3.041833 0
M  V30 23 C -6.552894 -3.703679 3.526789 0
M  V30 24 C -6.002132 -4.772799 4.227452 0
M  V30 25 C -4.636071 -4.797547 4.432767 0
M  V30 26 C -3.870805 -3.755511 3.931789 0
M  V30 27 N -2.521004 0.166912 0.360921 0
M  V30 28 C -1.623009 0.999190 -0.212787 0
M  V30 29 N -0.306319 3.103440 -2.627070 0
M  V30 30 C 0.236913 2.739601 -3.806001 0
M  V30 31 N 1.350410 1.966883 -3.871482 0
M  V30 32 C 1.959035 1.531219 -2.746244 0
M  V30 33 O 3.087820 0.749955 -2.992588 0
M  V30 34 H 4.516541 -3.170773 1.860430 0
M  V30 35 H 5.898190 -4.311671 1.709463 0
M  V30 36 H 6.259140 -2.574859 1.827819 0
M  V30 37 H 5.292558 -3.125928 -2.628967 0
M  V30 38 H 4.205794 -1.287320 -3.909044 0
M  V30 39 H 4.296607 -1.126711 1.008921 0
M  V30 40 H 3.910399 1.658505 0.386753 0
M  V30 41 H 2.948861 0.400776 1.160932 0
M  V30 42 H 1.262230 1.797272 0.517005 0
M  V30 43 H 0.056172 3.853150 0.372775 0
M  V30 44 H -1.401324 3.260953 2.274485 0
M  V30 45 H -4.932123 -0.369472 1.808436 0
M  V30 46 H -6.166847 -1.841302 2.494249 0
M  V30 47 H -7.617320 -3.696635 3.373951 0
M  V30 48 H -6.629614 -5.565915 4.602462 0
M  V30 49 H -4.150439 -5.604829 4.971585 0
M  V30 50 H -2.789106 -3.802691 4.110469 0
M  V30 51 H -1.209994 0.829058 -1.183566 0
M  V30 52 H -0.217257 3.065731 -4.736105 0
M  V30 END ATOM
M  V30 BEGIN BOND
M  V30 1 1 1 2
M  V30 2 1 2 3
M  V30 3 2 3 4
M  V30 4 1 4 5
M  V30 5 2 5 6
M  V30 6 1 6 7
M  V30 7 2 7 8
M  V30 8 1 7 9
M  V30 9 1 9 10
M  V30 10 1 10 11
M  V30 11 2 11 12
M  V30 12 1 12 13
M  V30 13 1 13 14
M  V30 14 2 14 15
M  V30 15 1 15 16
M  V30 16 2 16 17
M  V30 17 1 17 18
M  V30 18 1 18 19
M  V30 19 2 19 20
M  V30 20 1 19 21
M  V30 21 2 21 22
M  V30 22 1 22 23
M  V30 23 2 23 24
M  V30 24 1 24 25
M  V30 25 2 25 26
M  V30 26 1 17 27
M  V30 27 2 27 28
M  V30 28 1 12 29
M  V30 29 2 29 30
M  V30 30 1 30 31
M  V30 31 2 31 32
M  V30 32 1 32 33
M  V30 33 1 8 3
M  V30 34 1 32 11
M  V30 35 1 33 6
M  V30 36 1 28 14
M  V30 37 1 26 21
M  V30 38 1 1 34
M  V30 39 1 1 35
M  V30 40 1 1 36
M  V30 41 1 4 37
M  V30 42 1 5 38
M  V30 43 1 8 39
M  V30 44 1 9 40
M  V30 45 1 9 41
M  V30 46 1 10 42
M  V30 47 1 13 43
M  V30 48 1 15 44
M  V30 49 1 18 45
M  V30 50 1 22 46
M  V30 51 1 23 47
M  V30 52 1 24 48
M  V30 53 1 25 49
M  V30 54 1 26 50
M  V30 55 1 28 51
M  V30 56 1 30 52
M  V30 END BOND
M  V30 END CTAB
M  END
>  <Dataset>  (926) 
ChEMBL_Kinases

>  <Ligand_Instance>  (926) 
nan

>  <PDB_ID>  (926) 
nan

>  <Standardized_SMILES>  (926) 
COc1ccc2c(c1)CNc1c(Nc3cnc(NC(=O)c4ccccc4)nc3)ncnc1O2

>  <Name>  (926) 
nan

>  <Pocket>  (926) 
nan

>  <ATP_Site>  (926) 
nan

>  <Peripheral>  (926) 
nan

>  <Num_H_Atoms_ProtBoundConf>  (926) 
nan

>  <Num_Resolved_Atoms>  (926) 
nan

>  <Num_Not_Resolved_Atoms>  (926) 
nan

$$$$
CHEMBL199565
     RDKit          3D

  0  0  0  0  0  0  0  0  0  0999 V3000
M  V30 BEGIN CTAB
M  V30 COUNTS 62 66 0 0 0
M  V30 BEGIN ATOM
M  V30 1 C 4.529387 -1.621683 3.781689 0
M  V30 2 C 3.106308 -1.545447 4.288393 0 CFG=1
M  V30 3 C 2.792799 -0.099355 4.481863 0
M  V30 4 O 3.640960 0.444640 5.201997 0
M  V30 5 O 2.235932 1.172522 4.463650 0
M  V30 6 N 2.149615 -2.131321 3.475557 0
M  V30 7 C 0.779543 -2.117726 3.825312 0
M  V30 8 C -0.014742 -1.421226 2.763537 0
M  V30 9 C 0.788890 -0.736001 1.712343 0
M  V30 10 C -0.132019 -0.395425 0.591854 0
M  V30 11 C -0.401758 0.947775 0.302191 0
M  V30 12 C -1.241163 1.377677 -0.716830 0
M  V30 13 C -1.438782 2.808113 -0.914088 0
M  V30 14 C -2.513747 3.296931 -0.173899 0
M  V30 15 C -2.870964 4.637306 -0.221157 0
M  V30 16 C -2.113010 5.460164 -1.033788 0
M  V30 17 F -2.384892 6.782990 -1.145412 0
M  V30 18 C -1.029712 5.002537 -1.788284 0
M  V30 19 C -0.693259 3.663869 -1.724821 0
M  V30 20 Cl 0.616231 2.919747 -2.589514 0
M  V30 21 C -1.831967 0.371646 -1.475219 0
M  V30 22 C -2.676582 0.787519 -2.500463 0
M  V30 23 C -3.251979 -0.250541 -3.240143 0
M  V30 24 C -2.974903 -1.567651 -2.940654 0
M  V30 25 O -3.578276 -2.358741 -3.706785 0
M  V30 26 N -2.152566 -1.915272 -1.940616 0
M  V30 27 C -1.961080 -3.315560 -1.749413 0
M  V30 28 C -2.723112 -4.212704 -1.063477 0
M  V30 29 Cl -4.158335 -3.507452 -0.307691 0
M  V30 30 C -2.360492 -5.533024 -0.998880 0
M  V30 31 C -1.213057 -5.957777 -1.634285 0
M  V30 32 C -0.406454 -5.074965 -2.345463 0
M  V30 33 C -0.801762 -3.735924 -2.393526 0
M  V30 34 Cl 0.305526 -2.725570 -3.323466 0
M  V30 35 C -1.575682 -0.963439 -1.201791 0
M  V30 36 C -0.736347 -1.337672 -0.180913 0
M  V30 37 C 1.977735 -1.484453 1.216574 0
M  V30 38 C 2.489296 -2.534912 2.165833 0
M  V30 39 H 4.559529 -1.104108 2.801268 0
M  V30 40 H 5.151371 -1.053765 4.496651 0
M  V30 41 H 4.928092 -2.627618 3.671888 0
M  V30 42 H 3.070413 -2.008049 5.300682 0
M  V30 43 H 1.348379 1.323115 4.939278 0
M  V30 44 H 0.446432 -3.167310 3.976603 0
M  V30 45 H 0.676233 -1.616565 4.813751 0
M  V30 46 H -0.679770 -2.175788 2.293838 0
M  V30 47 H -0.678230 -0.685521 3.262338 0
M  V30 48 H 1.134124 0.233663 2.128796 0
M  V30 49 H 0.074001 1.725646 0.911113 0
M  V30 50 H -3.142091 2.703978 0.476574 0
M  V30 51 H -3.701552 5.044163 0.344329 0
M  V30 52 H -0.431117 5.615310 -2.420505 0
M  V30 53 H -2.847205 1.841077 -2.677882 0
M  V30 54 H -3.911517 0.091809 -4.039649 0
M  V30 55 H -3.011573 -6.183788 -0.438502 0
M  V30 56 H -0.928070 -7.009957 -1.579308 0
M  V30 57 H 0.481930 -5.468556 -2.823468 0
M  V30 58 H -0.567890 -2.382283 -0.006219 0
M  V30 59 H 1.704823 -1.987272 0.259295 0
M  V30 60 H 2.832255 -0.816608 0.983798 0
M  V30 61 H 1.957892 -3.490391 1.956855 0
M  V30 62 H 3.556782 -2.753019 2.091971 0
M  V30 END ATOM
M  V30 BEGIN BOND
M  V30 1 1 1 2
M  V30 2 1 2 3
M  V30 3 2 3 4
M  V30 4 1 3 5
M  V30 5 1 2 6
M  V30 6 1 6 7
M  V30 7 1 7 8
M  V30 8 1 8 9
M  V30 9 1 9 10
M  V30 10 2 10 11
M  V30 11 1 11 12
M  V30 12 1 12 13
M  V30 13 2 13 14
M  V30 14 1 14 15
M  V30 15 2 15 16
M  V30 16 1 16 17
M  V30 17 1 16 18
M  V30 18 2 18 19
M  V30 19 1 19 20
M  V30 20 2 12 21
M  V30 21 1 21 22
M  V30 22 2 22 23
M  V30 23 1 23 24
M  V30 24 2 24 25
M  V30 25 1 24 26
M  V30 26 1 26 27
M  V30 27 2 27 28
M  V30 28 1 28 29
M  V30 29 1 28 30
M  V30 30 2 30 31
M  V30 31 1 31 32
M  V30 32 2 32 33
M  V30 33 1 33 34
M  V30 34 1 26 35
M  V30 35 2 35 36
M  V30 36 1 9 37
M  V30 37 1 37 38
M  V30 38 1 38 6
M  V30 39 1 36 10
M  V30 40 1 19 13
M  V30 41 1 35 21
M  V30 42 1 33 27
M  V30 43 1 1 39
M  V30 44 1 1 40
M  V30 45 1 1 41
M  V30 46 1 2 42 CFG=1
M  V30 47 1 5 43
M  V30 48 1 7 44
M  V30 49 1 7 45
M  V30 50 1 8 46
M  V30 51 1 8 47
M  V30 52 1 9 48
M  V30 53 1 11 49
M  V30 54 1 14 50
M  V30 55 1 15 51
M  V30 56 1 18 52
M  V30 57 1 22 53
M  V30 58 1 23 54
M  V30 59 1 30 55
M  V30 60 1 31 56
M  V30 61 1 32 57
M  V30 62 1 36 58
M  V30 63 1 37 59
M  V30 64 1 37 60
M  V30 65 1 38 61
M  V30 66 1 38 62
M  V30 END BOND
M  V30 END CTAB
M  END
>  <Dataset>  (927) 
ChEMBL_Kinases

>  <Ligand_Instance>  (927) 
nan

>  <PDB_ID>  (927) 
nan

>  <Standardized_SMILES>  (927) 
C[C@@H](C(=O)O)N1CCC(c2cc(-c3ccc(F)cc3Cl)c3ccc(=O)n(-c4c(Cl)cccc4Cl)c3c2)CC1

>  <Name>  (927) 
nan

>  <Pocket>  (927) 
nan

>  <ATP_Site>  (927) 
nan

>  <Peripheral>  (927) 
nan

>  <Num_H_Atoms_ProtBoundConf>  (927) 
nan

>  <Num_Resolved_Atoms>  (927) 
nan

>  <Num_Not_Resolved_Atoms>  (927) 
nan

$$$$
CHEMBL199593
     RDKit          3D

  0  0  0  0  0  0  0  0  0  0999 V3000
M  V30 BEGIN CTAB
M  V30 COUNTS 63 67 0 0 0
M  V30 BEGIN ATOM
M  V30 1 C 1.268216 -1.472482 5.486222 0
M  V30 2 C 1.817563 -2.059645 4.189761 0
M  V30 3 C 2.670582 -3.250995 4.567533 0
M  V30 4 C 0.625625 -2.598865 3.434432 0
M  V30 5 N 2.495060 -1.104318 3.419123 0
M  V30 6 C 3.065489 -1.517471 2.171268 0
M  V30 7 C 1.961199 -1.448728 1.173272 0
M  V30 8 C 1.368392 -0.271646 1.037675 0
M  V30 9 C 0.272733 0.004432 0.120121 0
M  V30 10 C -0.316615 1.245488 0.009874 0
M  V30 11 C -1.354461 1.501928 -0.860962 0
M  V30 12 C -1.946211 2.814796 -0.948217 0
M  V30 13 C -3.024147 3.049607 -0.087908 0
M  V30 14 C -3.680567 4.280762 -0.078278 0
M  V30 15 C -3.278587 5.304247 -0.924184 0
M  V30 16 F -3.913543 6.501924 -0.918067 0
M  V30 17 C -2.213744 5.058212 -1.767395 0
M  V30 18 C -1.555136 3.842846 -1.786456 0
M  V30 19 Cl -0.199608 3.490269 -2.841240 0
M  V30 20 C -1.857326 0.507476 -1.675337 0
M  V30 21 C -2.896849 0.795562 -2.536635 0
M  V30 22 C -3.327580 -0.258586 -3.305182 0
M  V30 23 C -2.781885 -1.524716 -3.244141 0
M  V30 24 O -3.230502 -2.437993 -3.979825 0
M  V30 25 N -1.784158 -1.694690 -2.380102 0
M  V30 26 C -1.214760 -3.007716 -2.313573 0
M  V30 27 C -1.512666 -3.988854 -1.416024 0
M  V30 28 Cl -2.725459 -3.572283 -0.227374 0
M  V30 29 C -0.864675 -5.213872 -1.490817 0
M  V30 30 C 0.084397 -5.474054 -2.457768 0
M  V30 31 C 0.397153 -4.483669 -3.377887 0
M  V30 32 C -0.255498 -3.248427 -3.303348 0
M  V30 33 Cl 0.197221 -2.042407 -4.508032 0
M  V30 34 C -1.278632 -0.741046 -1.577575 0
M  V30 35 C -0.240772 -0.972408 -0.697926 0
M  V30 36 C 1.970466 0.719968 1.946358 0
M  V30 37 C 2.036251 0.223215 3.374632 0
M  V30 38 H 1.103096 -2.335291 6.169539 0
M  V30 39 H 1.972472 -0.796597 5.980481 0
M  V30 40 H 0.276926 -1.007599 5.302070 0
M  V30 41 H 2.588661 -4.028084 3.768994 0
M  V30 42 H 2.207115 -3.709112 5.472800 0
M  V30 43 H 3.734965 -2.961356 4.730774 0
M  V30 44 H -0.038047 -1.835467 3.021500 0
M  V30 45 H 0.940647 -3.305478 2.622211 0
M  V30 46 H -0.022893 -3.230510 4.098652 0
M  V30 47 H 3.400410 -2.580422 2.190716 0
M  V30 48 H 3.937075 -0.898068 1.876087 0
M  V30 49 H 1.629713 -2.285231 0.571084 0
M  V30 50 H 0.009264 2.061411 0.597726 0
M  V30 51 H -3.378059 2.269659 0.599596 0
M  V30 52 H -4.509118 4.401786 0.611105 0
M  V30 53 H -1.854147 5.828350 -2.455366 0
M  V30 54 H -3.308497 1.794898 -2.567160 0
M  V30 55 H -4.148853 -0.094691 -4.008002 0
M  V30 56 H -1.143115 -5.958081 -0.748508 0
M  V30 57 H 0.577404 -6.442206 -2.494481 0
M  V30 58 H 1.147700 -4.648675 -4.165362 0
M  V30 59 H 0.113960 -1.970704 -0.719706 0
M  V30 60 H 3.025788 0.894430 1.581466 0
M  V30 61 H 1.512593 1.724935 1.917023 0
M  V30 62 H 1.048862 0.347631 3.877677 0
M  V30 63 H 2.743651 0.876044 3.963360 0
M  V30 END ATOM
M  V30 BEGIN BOND
M  V30 1 1 1 2
M  V30 2 1 2 3
M  V30 3 1 2 4
M  V30 4 1 2 5
M  V30 5 1 5 6
M  V30 6 1 6 7
M  V30 7 2 7 8
M  V30 8 1 8 9
M  V30 9 2 9 10
M  V30 10 1 10 11
M  V30 11 1 11 12
M  V30 12 2 12 13
M  V30 13 1 13 14
M  V30 14 2 14 15
M  V30 15 1 15 16
M  V30 16 1 15 17
M  V30 17 2 17 18
M  V30 18 1 18 19
M  V30 19 2 11 20
M  V30 20 1 20 21
M  V30 21 2 21 22
M  V30 22 1 22 23
M  V30 23 2 23 24
M  V30 24 1 23 25
M  V30 25 1 25 26
M  V30 26 2 26 27
M  V30 27 1 27 28
M  V30 28 1 27 29
M  V30 29 2 29 30
M  V30 30 1 30 31
M  V30 31 2 31 32
M  V30 32 1 32 33
M  V30 33 1 25 34
M  V30 34 2 34 35
M  V30 35 1 8 36
M  V30 36 1 36 37
M  V30 37 1 37 5
M  V30 38 1 35 9
M  V30 39 1 18 12
M  V30 40 1 34 20
M  V30 41 1 32 26
M  V30 42 1 1 38
M  V30 43 1 1 39
M  V30 44 1 1 40
M  V30 45 1 3 41
M  V30 46 1 3 42
M  V30 47 1 3 43
M  V30 48 1 4 44
M  V30 49 1 4 45
M  V30 50 1 4 46
M  V30 51 1 6 47
M  V30 52 1 6 48
M  V30 53 1 7 49
M  V30 54 1 10 50
M  V30 55 1 13 51
M  V30 56 1 14 52
M  V30 57 1 17 53
M  V30 58 1 21 54
M  V30 59 1 22 55
M  V30 60 1 29 56
M  V30 61 1 30 57
M  V30 62 1 31 58
M  V30 63 1 35 59
M  V30 64 1 36 60
M  V30 65 1 36 61
M  V30 66 1 37 62
M  V30 67 1 37 63
M  V30 END BOND
M  V30 END CTAB
M  END
>  <Dataset>  (928) 
ChEMBL_Kinases

>  <Ligand_Instance>  (928) 
nan

>  <PDB_ID>  (928) 
nan

>  <Standardized_SMILES>  (928) 
CC(C)(C)N1CC=C(c2cc(-c3ccc(F)cc3Cl)c3ccc(=O)n(-c4c(Cl)cccc4Cl)c3c2)CC1

>  <Name>  (928) 
nan

>  <Pocket>  (928) 
nan

>  <ATP_Site>  (928) 
nan

>  <Peripheral>  (928) 
nan

>  <Num_H_Atoms_ProtBoundConf>  (928) 
nan

>  <Num_Resolved_Atoms>  (928) 
nan

>  <Num_Not_Resolved_Atoms>  (928) 
nan

$$$$
CHEMBL1995948
     RDKit          3D

  0  0  0  0  0  0  0  0  0  0999 V3000
M  V30 BEGIN CTAB
M  V30 COUNTS 27 28 0 0 0
M  V30 BEGIN ATOM
M  V30 1 O 1.685607 -1.649785 4.448630 0
M  V30 2 C 1.165857 -2.497089 3.679417 0
M  V30 3 O 0.961873 -3.770907 4.209906 0
M  V30 4 C 0.759701 -2.281076 2.301790 0
M  V30 5 C 0.194004 -3.266723 1.520670 0
M  V30 6 C -0.176727 -3.017368 0.217029 0
M  V30 7 C 0.036104 -1.744037 -0.287177 0
M  V30 8 C 0.608989 -0.738349 0.497211 0
M  V30 9 N 0.719964 0.469459 -0.246692 0
M  V30 10 C 1.802211 0.518183 -1.076408 0
M  V30 11 C 1.789228 1.748248 -1.740587 0
M  V30 12 C 0.679548 2.436003 -1.293944 0
M  V30 13 C 0.044732 1.625632 -0.378998 0
M  V30 14 C -1.163982 1.800521 0.422082 0
M  V30 15 N -2.143060 1.431463 -0.333076 0
M  V30 16 O -3.463831 1.442996 0.048604 0
M  V30 17 C 0.970272 -1.014715 1.797128 0
M  V30 18 H 0.806806 -3.959723 5.191909 0
M  V30 19 H 0.072281 -4.207817 1.997304 0
M  V30 20 H -0.616965 -3.824050 -0.355820 0
M  V30 21 H -0.292128 -1.652724 -1.326860 0
M  V30 22 H 2.626205 -0.153735 -1.319709 0
M  V30 23 H 2.480747 2.159120 -2.478787 0
M  V30 24 H 0.294135 3.416813 -1.545261 0
M  V30 25 H -1.395185 2.143379 1.425916 0
M  V30 26 H -4.000602 0.602741 -0.193169 0
M  V30 27 H 1.399875 -0.160823 2.297125 0
M  V30 END ATOM
M  V30 BEGIN BOND
M  V30 1 2 1 2
M  V30 2 1 2 3
M  V30 3 1 2 4
M  V30 4 2 4 5
M  V30 5 1 5 6
M  V30 6 2 6 7
M  V30 7 1 7 8
M  V30 8 1 8 9
M  V30 9 1 9 10
M  V30 10 2 10 11
M  V30 11 1 11 12
M  V30 12 2 12 13
M  V30 13 1 13 14
M  V30 14 2 14 15
M  V30 15 1 15 16
M  V30 16 2 8 17
M  V30 17 1 17 4
M  V30 18 1 13 9
M  V30 19 1 3 18
M  V30 20 1 5 19
M  V30 21 1 6 20
M  V30 22 1 7 21
M  V30 23 1 10 22
M  V30 24 1 11 23
M  V30 25 1 12 24
M  V30 26 1 14 25
M  V30 27 1 16 26
M  V30 28 1 17 27
M  V30 END BOND
M  V30 END CTAB
M  END
>  <Dataset>  (929) 
ChEMBL_Kinases

>  <Ligand_Instance>  (929) 
nan

>  <PDB_ID>  (929) 
nan

>  <Standardized_SMILES>  (929) 
O=C(O)c1cccc(-n2cccc2/C=N/O)c1

>  <Name>  (929) 
nan

>  <Pocket>  (929) 
nan

>  <ATP_Site>  (929) 
nan

>  <Peripheral>  (929) 
nan

>  <Num_H_Atoms_ProtBoundConf>  (929) 
nan

>  <Num_Resolved_Atoms>  (929) 
nan

>  <Num_Not_Resolved_Atoms>  (929) 
nan

$$$$
CHEMBL199595
     RDKit          3D

  0  0  0  0  0  0  0  0  0  0999 V3000
M  V30 BEGIN CTAB
M  V30 COUNTS 55 58 0 0 0
M  V30 BEGIN ATOM
M  V30 1 C 0.798434 -2.264957 3.291537 0
M  V30 2 O 0.389218 -1.520051 2.198151 0
M  V30 3 C 0.988254 -0.400259 1.669843 0
M  V30 4 C 2.119015 0.031142 2.306183 0
M  V30 5 C 2.742108 1.154010 1.817258 0
M  V30 6 C 2.238466 1.819465 0.720853 0
M  V30 7 C 2.904556 2.996417 0.220435 0
M  V30 8 C 2.502412 4.338463 0.666314 0
M  V30 9 C 2.583664 4.672790 2.107729 0
M  V30 10 C 2.116444 6.142798 2.227099 0
M  V30 11 C 1.711400 3.880738 3.035665 0
M  V30 12 O 3.877543 4.649774 2.616272 0
M  V30 13 C 1.096177 1.284144 0.170531 0
M  V30 14 C 0.375507 0.144178 0.582734 0
M  V30 15 C -0.730590 -0.241433 -0.244153 0
M  V30 16 N -1.422899 0.681818 -0.983181 0
M  V30 17 N -2.364292 0.116577 -1.698319 0
M  V30 18 C -2.388677 -1.210954 -1.510390 0
M  V30 19 N -3.090141 -2.255028 -1.972025 0
M  V30 20 C -2.849066 -3.523667 -1.598637 0
M  V30 21 N -3.642247 -4.569229 -2.137453 0
M  V30 22 C -3.562613 -5.956681 -1.886519 0
M  V30 23 C -2.672562 -6.578579 -1.045266 0
M  V30 24 C -2.585365 -7.927738 -0.792972 0
M  V30 25 C -3.477166 -8.751712 -1.445047 0
M  V30 26 F -3.438109 -10.088130 -1.235492 0
M  V30 27 C -4.397685 -8.192393 -2.304036 0
M  V30 28 C -4.424049 -6.833262 -2.505755 0
M  V30 29 F -5.370264 -6.363170 -3.374892 0
M  V30 30 N -1.847943 -3.690801 -0.722162 0
M  V30 31 C -1.127871 -2.675385 -0.239809 0
M  V30 32 C -1.369089 -1.393430 -0.611061 0
M  V30 33 H -0.103255 -2.831963 3.665918 0
M  V30 34 H 1.108068 -1.651604 4.163506 0
M  V30 35 H 1.514526 -3.045611 2.997981 0
M  V30 36 H 2.493426 -0.504132 3.160135 0
M  V30 37 H 3.635344 1.506240 2.308316 0
M  V30 38 H 4.033390 2.951175 0.349639 0
M  V30 39 H 2.815231 2.951539 -0.910804 0
M  V30 40 H 1.525526 4.689174 0.205931 0
M  V30 41 H 3.229382 5.052494 0.159744 0
M  V30 42 H 2.999495 6.734138 1.899707 0
M  V30 43 H 1.218499 6.318978 1.631234 0
M  V30 44 H 1.961006 6.401827 3.299310 0
M  V30 45 H 2.209897 3.212748 3.727058 0
M  V30 46 H 1.080634 4.559581 3.689987 0
M  V30 47 H 0.961465 3.304984 2.456854 0
M  V30 48 H 3.823356 4.785674 3.590952 0
M  V30 49 H 0.756725 1.858372 -0.689465 0
M  V30 50 H -1.322906 1.733679 -1.065079 0
M  V30 51 H -4.399706 -4.278093 -2.822103 0
M  V30 52 H -1.948934 -5.990971 -0.505488 0
M  V30 53 H -1.875088 -8.361250 -0.129919 0
M  V30 54 H -5.100170 -8.837126 -2.818257 0
M  V30 55 H -0.353398 -2.976246 0.418657 0
M  V30 END ATOM
M  V30 BEGIN BOND
M  V30 1 1 1 2
M  V30 2 1 2 3
M  V30 3 2 3 4
M  V30 4 1 4 5
M  V30 5 2 5 6
M  V30 6 1 6 7
M  V30 7 1 7 8
M  V30 8 1 8 9
M  V30 9 1 9 10
M  V30 10 1 9 11
M  V30 11 1 9 12
M  V30 12 1 6 13
M  V30 13 2 13 14
M  V30 14 1 14 15
M  V30 15 1 15 16
M  V30 16 1 16 17
M  V30 17 2 17 18
M  V30 18 1 18 19
M  V30 19 2 19 20
M  V30 20 1 20 21
M  V30 21 1 21 22
M  V30 22 2 22 23
M  V30 23 1 23 24
M  V30 24 2 24 25
M  V30 25 1 25 26
M  V30 26 1 25 27
M  V30 27 2 27 28
M  V30 28 1 28 29
M  V30 29 1 20 30
M  V30 30 2 30 31
M  V30 31 1 31 32
M  V30 32 1 14 3
M  V30 33 2 32 15
M  V30 34 1 32 18
M  V30 35 1 28 22
M  V30 36 1 1 33
M  V30 37 1 1 34
M  V30 38 1 1 35
M  V30 39 1 4 36
M  V30 40 1 5 37
M  V30 41 1 7 38
M  V30 42 1 7 39
M  V30 43 1 8 40
M  V30 44 1 8 41
M  V30 45 1 10 42
M  V30 46 1 10 43
M  V30 47 1 10 44
M  V30 48 1 11 45
M  V30 49 1 11 46
M  V30 50 1 11 47
M  V30 51 1 12 48
M  V30 52 1 13 49
M  V30 53 1 16 50
M  V30 54 1 21 51
M  V30 55 1 23 52
M  V30 56 1 24 53
M  V30 57 1 27 54
M  V30 58 1 31 55
M  V30 END BOND
M  V30 END CTAB
M  END
>  <Dataset>  (930) 
ChEMBL_Kinases

>  <Ligand_Instance>  (930) 
nan

>  <PDB_ID>  (930) 
nan

>  <Standardized_SMILES>  (930) 
COc1ccc(CCC(C)(C)O)cc1-c1[nH]nc2nc(Nc3ccc(F)cc3F)ncc12

>  <Name>  (930) 
nan

>  <Pocket>  (930) 
nan

>  <ATP_Site>  (930) 
nan

>  <Peripheral>  (930) 
nan

>  <Num_H_Atoms_ProtBoundConf>  (930) 
nan

>  <Num_Resolved_Atoms>  (930) 
nan

>  <Num_Not_Resolved_Atoms>  (930) 
nan

$$$$
CHEMBL199620
     RDKit          3D

  0  0  0  0  0  0  0  0  0  0999 V3000
M  V30 BEGIN CTAB
M  V30 COUNTS 54 57 0 0 0
M  V30 BEGIN ATOM
M  V30 1 C 6.436853 -2.657720 -4.255210 0
M  V30 2 O 7.053854 -2.499914 -3.011266 0
M  V30 3 C 6.454065 -2.143757 -1.836804 0
M  V30 4 C 5.115846 -1.847573 -1.544387 0
M  V30 5 C 4.718801 -1.505653 -0.274744 0
M  V30 6 C 3.290028 -1.222206 -0.096326 0
M  V30 7 C 2.456319 -0.661182 -1.073048 0
M  V30 8 C 1.107166 -0.446324 -0.772354 0
M  V30 9 C 0.670746 -0.803535 0.483878 0
M  V30 10 C 1.458604 -1.358253 1.472361 0
M  V30 11 C 2.794083 -1.567676 1.166015 0
M  V30 12 N 0.683122 -1.610496 2.652137 0
M  V30 13 C -0.641804 -1.183200 2.352159 0
M  V30 14 O -1.481726 -1.315988 3.257950 0
M  V30 15 C -0.691422 -0.666405 0.987403 0
M  V30 16 C -1.834848 -0.183019 0.522733 0
M  V30 17 C -3.138944 -0.126449 1.166494 0
M  V30 18 N -3.821330 -1.130204 1.780135 0
M  V30 19 C -5.003374 -0.703668 2.290560 0
M  V30 20 C -5.998172 -1.545859 3.027754 0
M  V30 21 C -5.100787 0.660239 1.992682 0
M  V30 22 C -6.280758 1.429799 2.415737 0
M  V30 23 C -7.466768 1.121519 1.517316 0
M  V30 24 O -7.200405 1.449005 0.183856 0
M  V30 25 C -3.955093 0.977814 1.311027 0
M  V30 26 C -3.692904 2.338737 0.826755 0
M  V30 27 C 5.584612 -1.432644 0.769004 0
M  V30 28 C 6.913798 -1.717430 0.523986 0
M  V30 29 C 7.345850 -2.068286 -0.759174 0
M  V30 30 O 8.721153 -2.336409 -0.887825 0
M  V30 31 H 5.978753 -3.679358 -4.289617 0
M  V30 32 H 7.186727 -2.547827 -5.093770 0
M  V30 33 H 5.646406 -1.932083 -4.490947 0
M  V30 34 H 4.502634 -1.931823 -2.436673 0
M  V30 35 H 2.910995 -0.422901 -2.018596 0
M  V30 36 H 0.464536 -0.015684 -1.523588 0
M  V30 37 H 3.424267 -1.998242 1.921369 0
M  V30 38 H 1.118249 -2.035608 3.515587 0
M  V30 39 H -1.742966 0.223231 -0.498280 0
M  V30 40 H -3.550663 -2.143142 1.875948 0
M  V30 41 H -6.679262 -2.000443 2.289705 0
M  V30 42 H -5.411853 -2.372993 3.511257 0
M  V30 43 H -6.521888 -0.948249 3.791953 0
M  V30 44 H -6.086034 2.502063 2.451373 0
M  V30 45 H -6.615844 1.108198 3.441377 0
M  V30 46 H -7.691588 0.024835 1.518351 0
M  V30 47 H -8.386357 1.613256 1.847243 0
M  V30 48 H -8.028691 1.611723 -0.324736 0
M  V30 49 H -3.818280 3.060916 1.682210 0
M  V30 50 H -2.729312 2.432236 0.322682 0
M  V30 51 H -4.499290 2.624084 0.102954 0
M  V30 52 H 5.289654 -1.165639 1.770055 0
M  V30 53 H 7.645494 -1.669731 1.345256 0
M  V30 54 H 8.988705 -3.103538 -1.491214 0
M  V30 END ATOM
M  V30 BEGIN BOND
M  V30 1 1 1 2
M  V30 2 1 2 3
M  V30 3 2 3 4
M  V30 4 1 4 5
M  V30 5 1 5 6
M  V30 6 2 6 7
M  V30 7 1 7 8
M  V30 8 2 8 9
M  V30 9 1 9 10
M  V30 10 2 10 11
M  V30 11 1 10 12
M  V30 12 1 12 13
M  V30 13 2 13 14
M  V30 14 1 13 15
M  V30 15 2 15 16
M  V30 16 1 16 17
M  V30 17 1 17 18
M  V30 18 1 18 19
M  V30 19 1 19 20
M  V30 20 2 19 21
M  V30 21 1 21 22
M  V30 22 1 22 23
M  V30 23 1 23 24
M  V30 24 1 21 25
M  V30 25 1 25 26
M  V30 26 2 5 27
M  V30 27 1 27 28
M  V30 28 2 28 29
M  V30 29 1 29 30
M  V30 30 1 29 3
M  V30 31 1 11 6
M  V30 32 2 25 17
M  V30 33 1 15 9
M  V30 34 1 1 31
M  V30 35 1 1 32
M  V30 36 1 1 33
M  V30 37 1 4 34
M  V30 38 1 7 35
M  V30 39 1 8 36
M  V30 40 1 11 37
M  V30 41 1 12 38
M  V30 42 1 16 39
M  V30 43 1 18 40
M  V30 44 1 20 41
M  V30 45 1 20 42
M  V30 46 1 20 43
M  V30 47 1 22 44
M  V30 48 1 22 45
M  V30 49 1 23 46
M  V30 50 1 23 47
M  V30 51 1 24 48
M  V30 52 1 26 49
M  V30 53 1 26 50
M  V30 54 1 26 51
M  V30 55 1 27 52
M  V30 56 1 28 53
M  V30 57 1 30 54
M  V30 END BOND
M  V30 END CTAB
M  END
>  <Dataset>  (931) 
ChEMBL_Kinases

>  <Ligand_Instance>  (931) 
nan

>  <PDB_ID>  (931) 
nan

>  <Standardized_SMILES>  (931) 
COc1cc(-c2ccc3c(c2)NC(=O)/C3=C\c2[nH]c(C)c(CCO)c2C)ccc1O

>  <Name>  (931) 
nan

>  <Pocket>  (931) 
nan

>  <ATP_Site>  (931) 
nan

>  <Peripheral>  (931) 
nan

>  <Num_H_Atoms_ProtBoundConf>  (931) 
nan

>  <Num_Resolved_Atoms>  (931) 
nan

>  <Num_Not_Resolved_Atoms>  (931) 
nan

$$$$
CHEMBL199476
     RDKit          3D

  0  0  0  0  0  0  0  0  0  0999 V3000
M  V30 BEGIN CTAB
M  V30 COUNTS 48 52 0 0 0
M  V30 BEGIN ATOM
M  V30 1 O -0.930039 -2.645607 0.234891 0
M  V30 2 C -1.237518 -3.345682 1.249364 0
M  V30 3 N -0.371529 -3.107499 2.323885 0
M  V30 4 C 0.717866 -2.211408 2.301334 0
M  V30 5 N 0.995688 -1.568382 1.178688 0
M  V30 6 C 2.005740 -0.689107 1.086779 0
M  V30 7 C 2.835482 -0.371942 2.118253 0
M  V30 8 N 3.875894 0.591162 2.003638 0
M  V30 9 C 3.887522 1.206556 0.708631 0
M  V30 10 N 4.832315 1.032996 -0.258199 0
M  V30 11 C 4.693773 1.640145 -1.447550 0
M  V30 12 N 3.669923 2.437549 -1.798496 0
M  V30 13 C 2.678260 2.664469 -0.888594 0
M  V30 14 C 2.817041 2.037544 0.352055 0
M  V30 15 N 1.903808 2.141433 1.464214 0
M  V30 16 C 0.470729 2.412124 1.536562 0
M  V30 17 C -0.159139 2.584341 0.217008 0
M  V30 18 C -1.471422 2.143647 0.372159 0
M  V30 19 C -2.398640 2.148705 -0.645768 0
M  V30 20 C -1.983093 2.620564 -1.879356 0
M  V30 21 C -0.697044 3.064956 -2.076413 0
M  V30 22 C 0.205458 3.050777 -1.055738 0
M  V30 23 O 1.557410 3.496855 -1.204952 0
M  V30 24 C 2.513812 -1.070593 3.288879 0
M  V30 25 N 1.486686 -1.956252 3.357382 0
M  V30 26 C -2.378187 -4.245827 1.167539 0
M  V30 27 C -2.712711 -5.071708 2.217801 0
M  V30 28 C -3.803948 -5.896096 2.079604 0
M  V30 29 C -4.575694 -5.929018 0.934525 0
M  V30 30 C -4.225896 -5.099824 -0.097980 0
M  V30 31 C -3.140475 -4.270496 0.021121 0
M  V30 32 H -0.640291 -3.703400 3.170912 0
M  V30 33 H 2.107781 -0.256346 0.097819 0
M  V30 34 H 4.546311 0.820485 2.766720 0
M  V30 35 H 5.423123 1.519830 -2.231327 0
M  V30 36 H 2.303021 2.001266 2.443104 0
M  V30 37 H 0.277584 3.260215 2.240153 0
M  V30 38 H 0.054042 1.479231 2.027830 0
M  V30 39 H -1.876609 1.757981 1.299955 0
M  V30 40 H -3.419714 1.808895 -0.554884 0
M  V30 41 H -2.590422 2.686742 -2.774187 0
M  V30 42 H -0.263646 3.458563 -3.001815 0
M  V30 43 H 3.120737 -0.889049 4.175801 0
M  V30 44 H -2.160910 -5.101942 3.138957 0
M  V30 45 H -4.120144 -6.566367 2.865088 0
M  V30 46 H -5.452899 -6.580514 0.806295 0
M  V30 47 H -4.775880 -5.049480 -1.052179 0
M  V30 48 H -2.850128 -3.607704 -0.784780 0
M  V30 END ATOM
M  V30 BEGIN BOND
M  V30 1 2 1 2
M  V30 2 1 2 3
M  V30 3 1 3 4
M  V30 4 2 4 5
M  V30 5 1 5 6
M  V30 6 2 6 7
M  V30 7 1 7 8
M  V30 8 1 8 9
M  V30 9 2 9 10
M  V30 10 1 10 11
M  V30 11 2 11 12
M  V30 12 1 12 13
M  V30 13 2 13 14
M  V30 14 1 14 15
M  V30 15 1 15 16
M  V30 16 1 16 17
M  V30 17 2 17 18
M  V30 18 1 18 19
M  V30 19 2 19 20
M  V30 20 1 20 21
M  V30 21 2 21 22
M  V30 22 1 22 23
M  V30 23 1 7 24
M  V30 24 2 24 25
M  V30 25 1 2 26
M  V30 26 2 26 27
M  V30 27 1 27 28
M  V30 28 2 28 29
M  V30 29 1 29 30
M  V30 30 2 30 31
M  V30 31 1 25 4
M  V30 32 1 31 26
M  V30 33 1 14 9
M  V30 34 1 22 17
M  V30 35 1 23 13
M  V30 36 1 3 32
M  V30 37 1 6 33
M  V30 38 1 8 34
M  V30 39 1 11 35
M  V30 40 1 15 36
M  V30 41 1 16 37
M  V30 42 1 16 38
M  V30 43 1 18 39
M  V30 44 1 19 40
M  V30 45 1 20 41
M  V30 46 1 21 42
M  V30 47 1 24 43
M  V30 48 1 27 44
M  V30 49 1 28 45
M  V30 50 1 29 46
M  V30 51 1 30 47
M  V30 52 1 31 48
M  V30 END BOND
M  V30 END CTAB
M  END
>  <Dataset>  (932) 
ChEMBL_Kinases

>  <Ligand_Instance>  (932) 
nan

>  <PDB_ID>  (932) 
nan

>  <Standardized_SMILES>  (932) 
O=C(Nc1ncc(Nc2ncnc3c2NCc2ccccc2O3)cn1)c1ccccc1

>  <Name>  (932) 
nan

>  <Pocket>  (932) 
nan

>  <ATP_Site>  (932) 
nan

>  <Peripheral>  (932) 
nan

>  <Num_H_Atoms_ProtBoundConf>  (932) 
nan

>  <Num_Resolved_Atoms>  (932) 
nan

>  <Num_Not_Resolved_Atoms>  (932) 
nan

$$$$
CHEMBL2007601
     RDKit          3D

  0  0  0  0  0  0  0  0  0  0999 V3000
M  V30 BEGIN CTAB
M  V30 COUNTS 46 49 0 0 0
M  V30 BEGIN ATOM
M  V30 1 C 1.563355 -2.869619 6.613157 0
M  V30 2 C 1.322553 -2.206430 5.285867 0
M  V30 3 C 2.073702 -2.456529 4.154862 0
M  V30 4 C 1.545493 -1.660786 3.151794 0
M  V30 5 C 2.029400 -1.599627 1.790953 0
M  V30 6 C 1.333589 -1.616351 0.571630 0
M  V30 7 C 2.052651 -1.543213 -0.601993 0
M  V30 8 C 3.427670 -1.453892 -0.654644 0
M  V30 9 C 4.142570 -1.435222 0.526704 0
M  V30 10 C 3.425412 -1.508352 1.699170 0
M  V30 11 N 0.518814 -0.961501 3.661657 0
M  V30 12 C -0.346633 -0.014350 3.051371 0
M  V30 13 C 0.092815 0.912643 2.132310 0
M  V30 14 C -0.883828 1.754294 1.649166 0
M  V30 15 N -0.600315 2.760265 0.684984 0
M  V30 16 N -0.881576 2.674900 -0.704330 0
M  V30 17 C -1.226876 1.625442 -1.293165 0
M  V30 18 C -1.632641 0.650128 -2.291975 0
M  V30 19 C -1.810194 -0.602050 -1.735850 0
M  V30 20 C -2.197126 -1.633268 -2.569039 0
M  V30 21 C -2.371991 -1.310094 -3.896379 0
M  V30 22 C -2.206694 -0.080175 -4.488737 0
M  V30 23 C -1.821095 0.931520 -3.640575 0
M  V30 24 O -1.609458 2.221985 -4.056715 0
M  V30 25 N -2.178478 1.697325 2.030053 0
M  V30 26 C -2.586839 0.784790 2.928236 0
M  V30 27 N -1.641484 -0.035327 3.400436 0
M  V30 28 N 0.410832 -1.308489 4.935072 0
M  V30 29 H 2.006824 -2.119577 7.304991 0
M  V30 30 H 0.564555 -3.198970 6.971393 0
M  V30 31 H 2.192314 -3.757222 6.482182 0
M  V30 32 H 2.898178 -3.141417 4.096954 0
M  V30 33 H 0.285598 -1.687118 0.717029 0
M  V30 34 H 1.447875 -1.560670 -1.502124 0
M  V30 35 H 3.964191 -1.398589 -1.588753 0
M  V30 36 H 5.216227 -1.366925 0.484890 0
M  V30 37 H 4.075878 -1.486875 2.589472 0
M  V30 38 H 1.106169 0.971789 1.824584 0
M  V30 39 H -0.247445 3.652766 0.297883 0
M  V30 40 H -1.080858 2.629862 -1.726422 0
M  V30 41 H -1.674625 -0.859211 -0.695558 0
M  V30 42 H -2.356391 -2.644836 -2.215093 0
M  V30 43 H -2.674864 -2.122517 -4.540604 0
M  V30 44 H -2.360707 0.100515 -5.532173 0
M  V30 45 H -0.789744 2.455205 -4.621030 0
M  V30 46 H -3.628504 0.769308 3.206260 0
M  V30 END ATOM
M  V30 BEGIN BOND
M  V30 1 1 1 2
M  V30 2 1 2 3
M  V30 3 2 3 4
M  V30 4 1 4 5
M  V30 5 2 5 6
M  V30 6 1 6 7
M  V30 7 2 7 8
M  V30 8 1 8 9
M  V30 9 2 9 10
M  V30 10 1 4 11
M  V30 11 1 11 12
M  V30 12 2 12 13
M  V30 13 1 13 14
M  V30 14 1 14 15
M  V30 15 1 15 16
M  V30 16 2 16 17
M  V30 17 1 17 18
M  V30 18 2 18 19
M  V30 19 1 19 20
M  V30 20 2 20 21
M  V30 21 1 21 22
M  V30 22 2 22 23
M  V30 23 1 23 24
M  V30 24 2 14 25
M  V30 25 1 25 26
M  V30 26 2 26 27
M  V30 27 1 11 28
M  V30 28 2 28 2
M  V30 29 1 10 5
M  V30 30 1 27 12
M  V30 31 1 23 18
M  V30 32 1 1 29
M  V30 33 1 1 30
M  V30 34 1 1 31
M  V30 35 1 3 32
M  V30 36 1 6 33
M  V30 37 1 7 34
M  V30 38 1 8 35
M  V30 39 1 9 36
M  V30 40 1 10 37
M  V30 41 1 13 38
M  V30 42 1 15 39
M  V30 43 1 17 40
M  V30 44 1 19 41
M  V30 45 1 20 42
M  V30 46 1 21 43
M  V30 47 1 22 44
M  V30 48 1 24 45
M  V30 49 1 26 46
M  V30 END BOND
M  V30 END CTAB
M  END
>  <Dataset>  (933) 
ChEMBL_Kinases

>  <Ligand_Instance>  (933) 
nan

>  <PDB_ID>  (933) 
nan

>  <Standardized_SMILES>  (933) 
Cc1cc(-c2ccccc2)n(-c2cc(N/N=C/c3ccccc3O)ncn2)n1

>  <Name>  (933) 
nan

>  <Pocket>  (933) 
nan

>  <ATP_Site>  (933) 
nan

>  <Peripheral>  (933) 
nan

>  <Num_H_Atoms_ProtBoundConf>  (933) 
nan

>  <Num_Resolved_Atoms>  (933) 
nan

>  <Num_Not_Resolved_Atoms>  (933) 
nan

$$$$
CHEMBL2007419
     RDKit          3D

  0  0  0  0  0  0  0  0  0  0999 V3000
M  V30 BEGIN CTAB
M  V30 COUNTS 56 59 0 0 0
M  V30 BEGIN ATOM
M  V30 1 C 2.478452 -0.731883 2.038023 0
M  V30 2 C 2.016509 -0.360478 0.679829 0
M  V30 3 C 1.603938 0.913430 0.072487 0
M  V30 4 C 0.467785 1.655299 0.655759 0
M  V30 5 C 0.608176 2.070478 2.075710 0
M  V30 6 C 0.274597 1.272235 3.155236 0
M  V30 7 C 0.395508 1.616784 4.478897 0
M  V30 8 C 0.891235 2.865097 4.787511 0
M  V30 9 C 1.254059 3.739343 3.786952 0
M  V30 10 C 1.100491 3.314102 2.496759 0
M  V30 11 C -0.895378 1.287367 0.271754 0
M  V30 12 C -1.821439 2.227784 -0.169626 0
M  V30 13 O -1.453173 3.583289 -0.274750 0
M  V30 14 O -3.076054 2.069735 -0.535218 0
M  V30 15 C -3.610757 0.850428 -0.504127 0
M  V30 16 C -4.921527 0.653166 -0.881153 0
M  V30 17 C -5.476067 -0.613564 -0.848583 0
M  V30 18 C -4.649570 -1.633310 -0.425130 0
M  V30 19 C -3.335285 -1.457459 -0.043513 0
M  V30 20 C -2.810486 -0.190688 -0.085367 0
M  V30 21 C -1.506101 0.052031 0.282289 0
M  V30 22 O -0.856037 -0.927027 0.646482 0
M  V30 23 N 2.043794 -1.451468 -0.059410 0
M  V30 24 N 2.462433 -2.661168 0.502255 0
M  V30 25 C 1.679991 -3.531553 -0.322085 0
M  V30 26 C 0.394042 -3.938042 0.014133 0
M  V30 27 C -0.349041 -4.776793 -0.789288 0
M  V30 28 C 0.193172 -5.230306 -1.963540 0
M  V30 29 N -0.556051 -6.095920 -2.806599 0 CHG=1 VAL=4
M  V30 30 O -1.700555 -6.453843 -2.500898 0
M  V30 31 O -0.004809 -6.545230 -3.980938 0 CHG=-1 VAL=1
M  V30 32 C 1.469708 -4.863847 -2.358492 0
M  V30 33 C 2.201633 -4.012387 -1.525316 0
M  V30 34 N 3.512834 -3.591860 -1.858050 0 CHG=1 VAL=4
M  V30 35 O 3.812260 -3.541788 -3.065052 0
M  V30 36 O 4.493118 -3.231396 -0.973126 0 CHG=-1 VAL=1
M  V30 37 H 1.716506 -1.187953 2.674067 0
M  V30 38 H 3.329287 -1.460665 2.030567 0
M  V30 39 H 2.847762 0.240031 2.485304 0
M  V30 40 H 2.492767 1.639569 0.053938 0
M  V30 41 H 1.462871 0.746628 -1.045602 0
M  V30 42 H 0.575477 2.712626 0.124704 0
M  V30 43 H -0.119952 0.292457 2.982914 0
M  V30 44 H 0.117002 0.946614 5.280361 0
M  V30 45 H 1.006902 3.186341 5.801459 0
M  V30 46 H 1.646692 4.726711 3.982944 0
M  V30 47 H 1.393284 4.020135 1.703430 0
M  V30 48 H -1.959719 4.282071 0.207852 0
M  V30 49 H -5.490914 1.516098 -1.198899 0
M  V30 50 H -6.504097 -0.776263 -1.143047 0
M  V30 51 H -5.079640 -2.623205 -0.398635 0
M  V30 52 H -2.720726 -2.267492 0.279738 0
M  V30 53 H 3.000300 -3.291338 1.157465 0
M  V30 54 H -0.020107 -3.570589 0.945889 0
M  V30 55 H -1.349013 -5.081853 -0.509642 0
M  V30 56 H 1.947414 -5.186341 -3.265776 0
M  V30 END ATOM
M  V30 BEGIN BOND
M  V30 1 1 1 2
M  V30 2 1 2 3
M  V30 3 1 3 4
M  V30 4 1 4 5
M  V30 5 2 5 6
M  V30 6 1 6 7
M  V30 7 2 7 8
M  V30 8 1 8 9
M  V30 9 2 9 10
M  V30 10 1 4 11
M  V30 11 2 11 12
M  V30 12 1 12 13
M  V30 13 1 12 14
M  V30 14 1 14 15
M  V30 15 2 15 16
M  V30 16 1 16 17
M  V30 17 2 17 18
M  V30 18 1 18 19
M  V30 19 2 19 20
M  V30 20 1 20 21
M  V30 21 2 21 22
M  V30 22 2 2 23
M  V30 23 1 23 24
M  V30 24 1 24 25
M  V30 25 2 25 26
M  V30 26 1 26 27
M  V30 27 2 27 28
M  V30 28 1 28 29
M  V30 29 2 29 30
M  V30 30 1 29 31
M  V30 31 1 28 32
M  V30 32 2 32 33
M  V30 33 1 33 34
M  V30 34 2 34 35
M  V30 35 1 34 36
M  V30 36 1 10 5
M  V30 37 1 21 11
M  V30 38 1 33 25
M  V30 39 1 20 15
M  V30 40 1 1 37
M  V30 41 1 1 38
M  V30 42 1 1 39
M  V30 43 1 3 40
M  V30 44 1 3 41
M  V30 45 1 4 42
M  V30 46 1 6 43
M  V30 47 1 7 44
M  V30 48 1 8 45
M  V30 49 1 9 46
M  V30 50 1 10 47
M  V30 51 1 13 48
M  V30 52 1 16 49
M  V30 53 1 17 50
M  V30 54 1 18 51
M  V30 55 1 19 52
M  V30 56 1 24 53
M  V30 57 1 26 54
M  V30 58 1 27 55
M  V30 59 1 32 56
M  V30 END BOND
M  V30 END CTAB
M  END
>  <Dataset>  (934) 
ChEMBL_Kinases

>  <Ligand_Instance>  (934) 
nan

>  <PDB_ID>  (934) 
nan

>  <Standardized_SMILES>  (934) 
C/C(CC(c1ccccc1)c1c(O)oc2ccccc2c1=O)=N\Nc1ccc([N+](=O)[O-])cc1[N+](=O)[O-]

>  <Name>  (934) 
nan

>  <Pocket>  (934) 
nan

>  <ATP_Site>  (934) 
nan

>  <Peripheral>  (934) 
nan

>  <Num_H_Atoms_ProtBoundConf>  (934) 
nan

>  <Num_Resolved_Atoms>  (934) 
nan

>  <Num_Not_Resolved_Atoms>  (934) 
nan

$$$$
CHEMBL2007329
     RDKit          3D

  0  0  0  0  0  0  0  0  0  0999 V3000
M  V30 BEGIN CTAB
M  V30 COUNTS 56 59 0 0 0
M  V30 BEGIN ATOM
M  V30 1 C 3.672386 -3.959020 5.840227 0
M  V30 2 C 3.885539 -4.141560 4.374554 0
M  V30 3 S 4.589995 -2.733663 3.523772 0
M  V30 4 C 3.513333 -1.304642 3.486107 0
M  V30 5 C 2.251326 -1.513016 2.667044 0
M  V30 6 O 1.440159 -0.338597 2.677459 0
M  V30 7 C 0.224745 -0.268314 2.047996 0
M  V30 8 O -0.553521 -1.314647 2.478636 0
M  V30 9 C -0.189989 0.626934 1.167638 0
M  V30 10 C 0.759667 1.674508 0.817081 0
M  V30 11 C 2.127710 1.714991 1.430807 0
M  V30 12 N 0.374188 2.559131 -0.038553 0
M  V30 13 C -0.879736 2.606843 -0.665992 0
M  V30 14 C -1.760797 1.670508 -0.368272 0
M  V30 15 C -3.038240 1.763176 -1.040999 0
M  V30 16 O -4.097392 1.244673 -0.600372 0
M  V30 17 C -3.273225 2.474176 -2.328586 0
M  V30 18 C -1.993278 3.128961 -2.806935 0
M  V30 19 C -1.213531 3.670131 -1.633386 0
M  V30 20 C -1.558818 0.532681 0.592742 0
M  V30 21 C -1.796548 -0.710684 -0.165473 0
M  V30 22 C -2.569375 -1.736157 0.359466 0
M  V30 23 O -2.834736 -2.880091 -0.246866 0
M  V30 24 C -2.361818 -3.145098 -1.454944 0
M  V30 25 C -2.654021 -4.358309 -2.076642 0
M  V30 26 C -2.138073 -4.591463 -3.339191 0
M  V30 27 C -1.360623 -3.610115 -3.917499 0
M  V30 28 C -1.052545 -2.400844 -3.331476 0
M  V30 29 C -1.582124 -2.188150 -2.061908 0
M  V30 30 C -1.300025 -0.977891 -1.422925 0
M  V30 31 O -0.581452 -0.089423 -1.975733 0
M  V30 32 H 2.884313 -4.701561 6.142254 0
M  V30 33 H 4.566713 -4.187855 6.458320 0
M  V30 34 H 3.298228 -2.967699 6.139968 0
M  V30 35 H 2.953615 -4.438211 3.850641 0
M  V30 36 H 4.606138 -4.995553 4.231791 0
M  V30 37 H 4.081101 -0.483929 2.973187 0
M  V30 38 H 3.254778 -1.011280 4.514100 0
M  V30 39 H 1.673897 -2.367390 3.030285 0
M  V30 40 H 2.485104 -1.686378 1.597132 0
M  V30 41 H -0.956770 -1.364661 3.408475 0
M  V30 42 H 2.649994 2.615199 0.990184 0
M  V30 43 H 2.758820 0.863317 1.090158 0
M  V30 44 H 2.118771 1.890366 2.506030 0
M  V30 45 H -4.102623 3.205791 -2.221706 0
M  V30 46 H -3.596318 1.742403 -3.117065 0
M  V30 47 H -1.415068 2.356267 -3.352481 0
M  V30 48 H -2.235612 3.984814 -3.466947 0
M  V30 49 H -0.257599 4.066770 -2.043045 0
M  V30 50 H -1.813456 4.421660 -1.115229 0
M  V30 51 H -2.342772 0.620119 1.370308 0
M  V30 52 H -3.025024 -1.670695 1.334395 0
M  V30 53 H -3.262474 -5.083037 -1.581044 0
M  V30 54 H -2.355334 -5.531909 -3.839568 0
M  V30 55 H -0.963830 -3.804849 -4.903939 0
M  V30 56 H -0.430267 -1.682590 -3.861135 0
M  V30 END ATOM
M  V30 BEGIN BOND
M  V30 1 1 1 2
M  V30 2 1 2 3
M  V30 3 1 3 4
M  V30 4 1 4 5
M  V30 5 1 5 6
M  V30 6 1 6 7
M  V30 7 1 7 8
M  V30 8 2 7 9
M  V30 9 1 9 10
M  V30 10 1 10 11
M  V30 11 2 10 12
M  V30 12 1 12 13
M  V30 13 2 13 14
M  V30 14 1 14 15
M  V30 15 2 15 16
M  V30 16 1 15 17
M  V30 17 1 17 18
M  V30 18 1 18 19
M  V30 19 1 14 20
M  V30 20 1 20 21
M  V30 21 2 21 22
M  V30 22 1 22 23
M  V30 23 1 23 24
M  V30 24 2 24 25
M  V30 25 1 25 26
M  V30 26 2 26 27
M  V30 27 1 27 28
M  V30 28 2 28 29
M  V30 29 1 29 30
M  V30 30 2 30 31
M  V30 31 1 20 9
M  V30 32 1 30 21
M  V30 33 1 19 13
M  V30 34 1 29 24
M  V30 35 1 1 32
M  V30 36 1 1 33
M  V30 37 1 1 34
M  V30 38 1 2 35
M  V30 39 1 2 36
M  V30 40 1 4 37
M  V30 41 1 4 38
M  V30 42 1 5 39
M  V30 43 1 5 40
M  V30 44 1 8 41
M  V30 45 1 11 42
M  V30 46 1 11 43
M  V30 47 1 11 44
M  V30 48 1 17 45
M  V30 49 1 17 46
M  V30 50 1 18 47
M  V30 51 1 18 48
M  V30 52 1 19 49
M  V30 53 1 19 50
M  V30 54 1 20 51
M  V30 55 1 22 52
M  V30 56 1 25 53
M  V30 57 1 26 54
M  V30 58 1 27 55
M  V30 59 1 28 56
M  V30 END BOND
M  V30 END CTAB
M  END
>  <Dataset>  (935) 
ChEMBL_Kinases

>  <Ligand_Instance>  (935) 
nan

>  <PDB_ID>  (935) 
nan

>  <Standardized_SMILES>  (935) 
CCSCCO/C(O)=C1\C(C)=NC2=C(C(=O)CCC2)C1c1coc2ccccc2c1=O

>  <Name>  (935) 
nan

>  <Pocket>  (935) 
nan

>  <ATP_Site>  (935) 
nan

>  <Peripheral>  (935) 
nan

>  <Num_H_Atoms_ProtBoundConf>  (935) 
nan

>  <Num_Resolved_Atoms>  (935) 
nan

>  <Num_Not_Resolved_Atoms>  (935) 
nan

$$$$
CHEMBL200721
     RDKit          3D

  0  0  0  0  0  0  0  0  0  0999 V3000
M  V30 BEGIN CTAB
M  V30 COUNTS 41 44 0 0 0
M  V30 BEGIN ATOM
M  V30 1 C 0.148558 -6.782188 -0.245877 0
M  V30 2 O 1.165763 -6.469324 0.680169 0
M  V30 3 C 1.249868 -5.163006 1.136603 0
M  V30 4 C 0.412846 -4.135780 0.754419 0
M  V30 5 C 0.607761 -2.880483 1.287500 0
M  V30 6 C -0.242489 -1.760740 0.923280 0
M  V30 7 C -1.583794 -1.975514 0.605778 0
M  V30 8 C -2.393997 -0.908225 0.259654 0
M  V30 9 C -1.866032 0.372238 0.230583 0
M  V30 10 C -0.537619 0.539787 0.550645 0
M  V30 11 C 0.310081 -0.487084 0.901270 0
M  V30 12 C -0.255509 1.963238 0.442897 0
M  V30 13 C 0.834255 2.686429 0.599249 0
M  V30 14 C 1.064066 4.119723 0.484734 0
M  V30 15 C 1.955322 4.920279 -0.162815 0
M  V30 16 C 1.670073 6.241545 0.196983 0
M  V30 17 C 0.582313 6.187467 1.076829 0
M  V30 18 N 0.227176 4.888013 1.240422 0
M  V30 19 C -1.481505 2.596545 0.046896 0
M  V30 20 O -1.753676 3.800961 -0.178428 0
M  V30 21 N -2.496832 1.619938 -0.089922 0
M  V30 22 C 1.635026 -2.693609 2.186546 0
M  V30 23 C 2.501750 -3.701518 2.598754 0
M  V30 24 C 2.270861 -4.952099 2.037744 0
M  V30 25 O 3.170502 -5.933005 2.484093 0
M  V30 26 H 0.025897 -7.880488 -0.367709 0
M  V30 27 H 0.437308 -6.285676 -1.217361 0
M  V30 28 H -0.800025 -6.335808 0.074645 0
M  V30 29 H -0.374877 -4.347107 0.044508 0
M  V30 30 H -2.024271 -2.975370 0.621270 0
M  V30 31 H -3.438324 -1.111416 0.017006 0
M  V30 32 H 1.359877 -0.291704 1.145636 0
M  V30 33 H 1.750437 2.132318 0.862727 0
M  V30 34 H 2.679609 4.419204 -0.801563 0
M  V30 35 H 2.294578 7.029596 -0.234706 0
M  V30 36 H 0.305395 7.200925 1.400516 0
M  V30 37 H -0.587359 4.901683 1.918052 0
M  V30 38 H -3.492584 1.726049 -0.358964 0
M  V30 39 H 1.794489 -1.703326 2.612054 0
M  V30 40 H 3.282546 -3.453179 3.314649 0
M  V30 41 H 3.145372 -6.215339 3.476315 0
M  V30 END ATOM
M  V30 BEGIN BOND
M  V30 1 1 1 2
M  V30 2 1 2 3
M  V30 3 2 3 4
M  V30 4 1 4 5
M  V30 5 1 5 6
M  V30 6 2 6 7
M  V30 7 1 7 8
M  V30 8 2 8 9
M  V30 9 1 9 10
M  V30 10 2 10 11
M  V30 11 1 10 12
M  V30 12 2 12 13
M  V30 13 1 13 14
M  V30 14 2 14 15
M  V30 15 1 15 16
M  V30 16 2 16 17
M  V30 17 1 17 18
M  V30 18 1 12 19
M  V30 19 2 19 20
M  V30 20 1 19 21
M  V30 21 2 5 22
M  V30 22 1 22 23
M  V30 23 2 23 24
M  V30 24 1 24 25
M  V30 25 1 24 3
M  V30 26 1 11 6
M  V30 27 1 18 14
M  V30 28 1 21 9
M  V30 29 1 1 26
M  V30 30 1 1 27
M  V30 31 1 1 28
M  V30 32 1 4 29
M  V30 33 1 7 30
M  V30 34 1 8 31
M  V30 35 1 11 32
M  V30 36 1 13 33
M  V30 37 1 15 34
M  V30 38 1 16 35
M  V30 39 1 17 36
M  V30 40 1 18 37
M  V30 41 1 21 38
M  V30 42 1 22 39
M  V30 43 1 23 40
M  V30 44 1 25 41
M  V30 END BOND
M  V30 END CTAB
M  END
>  <Dataset>  (936) 
ChEMBL_Kinases

>  <Ligand_Instance>  (936) 
nan

>  <PDB_ID>  (936) 
nan

>  <Standardized_SMILES>  (936) 
COc1cc(-c2ccc3c(c2)/C(=C/c2ccc[nH]2)C(=O)N3)ccc1O

>  <Name>  (936) 
nan

>  <Pocket>  (936) 
nan

>  <ATP_Site>  (936) 
nan

>  <Peripheral>  (936) 
nan

>  <Num_H_Atoms_ProtBoundConf>  (936) 
nan

>  <Num_Resolved_Atoms>  (936) 
nan

>  <Num_Not_Resolved_Atoms>  (936) 
nan

$$$$
CHEMBL2007064
     RDKit          3D

  0  0  0  0  0  0  0  0  0  0999 V3000
M  V30 BEGIN CTAB
M  V30 COUNTS 41 43 0 0 0
M  V30 BEGIN ATOM
M  V30 1 C 0.408101 -3.841582 2.433981 0
M  V30 2 C 0.009071 -2.495311 1.923340 0
M  V30 3 N 0.804782 -1.600424 1.270984 0
M  V30 4 C 0.122912 -0.466945 0.925179 0
M  V30 5 C 0.773239 0.626761 0.200882 0
M  V30 6 C 1.536241 0.454714 -0.890341 0
M  V30 7 C 2.002366 -0.609803 -1.726980 0
M  V30 8 O 1.672965 -1.797566 -1.517201 0
M  V30 9 N 2.837450 -0.129616 -2.758999 0
M  V30 10 C 2.902142 1.278902 -2.572398 0
M  V30 11 C 3.605514 2.177118 -3.349704 0
M  V30 12 C 3.534260 3.509753 -2.999365 0
M  V30 13 C 2.803545 3.974160 -1.924917 0
M  V30 14 C 2.133488 3.010449 -1.204661 0
M  V30 15 C 2.148712 1.663728 -1.482408 0
M  V30 16 C -1.153072 -0.691629 1.396785 0
M  V30 17 C -2.214600 0.318737 1.220722 0
M  V30 18 C -1.248455 -1.934357 2.015112 0
M  V30 19 C -2.485325 -2.426048 2.616700 0
M  V30 20 C -2.619239 -2.304913 4.086642 0
M  V30 21 C -1.659814 -2.985975 4.928828 0
M  V30 22 O -1.881182 -2.710280 6.159313 0
M  V30 23 O -0.746084 -3.637038 5.701391 0
M  V30 24 H -0.495716 -4.389157 2.693224 0
M  V30 25 H 1.135438 -3.704210 3.240344 0
M  V30 26 H 0.931906 -4.387816 1.587131 0
M  V30 27 H 1.820811 -1.884023 1.132859 0
M  V30 28 H 0.545623 1.546078 0.668736 0
M  V30 29 H 3.265495 -0.755868 -3.457031 0
M  V30 30 H 4.191029 1.855291 -4.200523 0
M  V30 31 H 4.092136 4.234615 -3.613561 0
M  V30 32 H 2.766457 5.023096 -1.675226 0
M  V30 33 H 1.556978 3.369834 -0.359131 0
M  V30 34 H -2.286897 0.511844 0.114520 0
M  V30 35 H -1.965085 1.209288 1.803466 0
M  V30 36 H -3.216710 -0.024144 1.531610 0
M  V30 37 H -2.621711 -3.525945 2.372325 0
M  V30 38 H -3.370604 -1.962764 2.092374 0
M  V30 39 H -2.629242 -1.197696 4.328854 0
M  V30 40 H -3.648874 -2.625501 4.445041 0
M  V30 41 H 0.194782 -3.771807 5.397184 0
M  V30 END ATOM
M  V30 BEGIN BOND
M  V30 1 1 1 2
M  V30 2 1 2 3
M  V30 3 1 3 4
M  V30 4 1 4 5
M  V30 5 2 5 6 CFG=2
M  V30 6 1 6 7
M  V30 7 2 7 8
M  V30 8 1 7 9
M  V30 9 1 9 10
M  V30 10 2 10 11
M  V30 11 1 11 12
M  V30 12 2 12 13
M  V30 13 1 13 14
M  V30 14 2 14 15
M  V30 15 2 4 16
M  V30 16 1 16 17
M  V30 17 1 16 18
M  V30 18 1 18 19
M  V30 19 1 19 20
M  V30 20 1 20 21
M  V30 21 2 21 22
M  V30 22 1 21 23
M  V30 23 2 18 2
M  V30 24 1 15 6
M  V30 25 1 15 10
M  V30 26 1 1 24
M  V30 27 1 1 25
M  V30 28 1 1 26
M  V30 29 1 3 27
M  V30 30 1 5 28
M  V30 31 1 9 29
M  V30 32 1 11 30
M  V30 33 1 12 31
M  V30 34 1 13 32
M  V30 35 1 14 33
M  V30 36 1 17 34
M  V30 37 1 17 35
M  V30 38 1 17 36
M  V30 39 1 19 37
M  V30 40 1 19 38
M  V30 41 1 20 39
M  V30 42 1 20 40
M  V30 43 1 23 41
M  V30 END BOND
M  V30 END CTAB
M  END
>  <Dataset>  (937) 
ChEMBL_Kinases

>  <Ligand_Instance>  (937) 
nan

>  <PDB_ID>  (937) 
nan

>  <Standardized_SMILES>  (937) 
Cc1[nH]c(C=C2C(=O)Nc3ccccc32)c(C)c1CCC(=O)O

>  <Name>  (937) 
nan

>  <Pocket>  (937) 
nan

>  <ATP_Site>  (937) 
nan

>  <Peripheral>  (937) 
nan

>  <Num_H_Atoms_ProtBoundConf>  (937) 
nan

>  <Num_Resolved_Atoms>  (937) 
nan

>  <Num_Not_Resolved_Atoms>  (937) 
nan

$$$$
CHEMBL2006168
     RDKit          3D

  0  0  0  0  0  0  0  0  0  0999 V3000
M  V30 BEGIN CTAB
M  V30 COUNTS 37 39 0 0 0
M  V30 BEGIN ATOM
M  V30 1 C -0.089650 -3.746660 3.104503 0
M  V30 2 N 1.371845 -3.577911 3.119337 0
M  V30 3 N 2.162911 -4.260482 3.947755 0
M  V30 4 N 3.414861 -3.896042 3.727075 0
M  V30 5 N 3.427530 -2.976437 2.753763 0
M  V30 6 C 2.173676 -2.767773 2.366528 0
M  V30 7 N 1.558320 -1.947281 1.414923 0
M  V30 8 N 1.811926 -1.839912 0.198980 0
M  V30 9 C 1.025665 -0.922425 -0.545304 0
M  V30 10 N 1.567453 0.233374 -0.407149 0
M  V30 11 N 1.052064 1.378078 -1.009907 0
M  V30 12 C 0.825247 2.095914 0.219142 0
M  V30 13 C 1.820961 2.894450 0.765798 0
M  V30 14 C 1.694639 3.620235 1.950665 0
M  V30 15 C 0.493971 3.530347 2.615281 0
M  V30 16 C -0.533248 2.755128 2.124793 0
M  V30 17 C -0.355311 2.048435 0.934256 0
M  V30 18 C -0.139472 -1.239163 -1.292901 0
M  V30 19 C -1.001786 -0.521115 -2.041941 0
M  V30 20 C -2.106315 -0.977121 -2.719799 0
M  V30 21 C -2.390930 -2.323950 -2.642698 0
M  V30 22 C -1.548093 -3.115680 -1.892214 0
M  V30 23 C -0.456625 -2.586639 -1.238504 0
M  V30 24 H -0.582045 -2.771305 2.863598 0
M  V30 25 H -0.416541 -4.032006 4.120308 0
M  V30 26 H -0.415835 -4.512799 2.395382 0
M  V30 27 H 0.676084 2.198557 -1.560263 0
M  V30 28 H 2.785714 2.973922 0.243363 0
M  V30 29 H 2.508059 4.220057 2.318044 0
M  V30 30 H 0.349357 4.080199 3.545965 0
M  V30 31 H -1.493455 2.654618 2.612878 0
M  V30 32 H -1.150174 1.433441 0.531173 0
M  V30 33 H -0.802507 0.525744 -2.115641 0
M  V30 34 H -2.719177 -0.317959 -3.282438 0
M  V30 35 H -3.242742 -2.756185 -3.148836 0
M  V30 36 H -1.795872 -4.163020 -1.850866 0
M  V30 37 H 0.117141 -3.347059 -0.682078 0
M  V30 END ATOM
M  V30 BEGIN BOND
M  V30 1 1 1 2
M  V30 2 1 2 3
M  V30 3 2 3 4
M  V30 4 1 4 5
M  V30 5 2 5 6
M  V30 6 1 6 7
M  V30 7 2 7 8
M  V30 8 1 8 9
M  V30 9 2 9 10
M  V30 10 1 10 11
M  V30 11 1 11 12
M  V30 12 2 12 13
M  V30 13 1 13 14
M  V30 14 2 14 15
M  V30 15 1 15 16
M  V30 16 2 16 17
M  V30 17 1 9 18
M  V30 18 2 18 19
M  V30 19 1 19 20
M  V30 20 2 20 21
M  V30 21 1 21 22
M  V30 22 2 22 23
M  V30 23 1 6 2
M  V30 24 1 17 12
M  V30 25 1 23 18
M  V30 26 1 1 24
M  V30 27 1 1 25
M  V30 28 1 1 26
M  V30 29 1 11 27
M  V30 30 1 13 28
M  V30 31 1 14 29
M  V30 32 1 15 30
M  V30 33 1 16 31
M  V30 34 1 17 32
M  V30 35 1 19 33
M  V30 36 1 20 34
M  V30 37 1 21 35
M  V30 38 1 22 36
M  V30 39 1 23 37
M  V30 END BOND
M  V30 END CTAB
M  END
>  <Dataset>  (938) 
ChEMBL_Kinases

>  <Ligand_Instance>  (938) 
nan

>  <PDB_ID>  (938) 
nan

>  <Standardized_SMILES>  (938) 
Cn1nnnc1N=N/C(=N/Nc1ccccc1)c1ccccc1

>  <Name>  (938) 
nan

>  <Pocket>  (938) 
nan

>  <ATP_Site>  (938) 
nan

>  <Peripheral>  (938) 
nan

>  <Num_H_Atoms_ProtBoundConf>  (938) 
nan

>  <Num_Resolved_Atoms>  (938) 
nan

>  <Num_Not_Resolved_Atoms>  (938) 
nan

$$$$
CHEMBL2005690
     RDKit          3D

  0  0  0  0  0  0  0  0  0  0999 V3000
M  V30 BEGIN CTAB
M  V30 COUNTS 30 32 0 0 0
M  V30 BEGIN ATOM
M  V30 1 C 3.125905 -0.798174 4.371020 0
M  V30 2 O 2.217307 -0.524651 3.364533 0
M  V30 3 C 1.772289 -1.258844 2.336291 0
M  V30 4 O 2.605215 -1.916997 3.008128 0
M  V30 5 C 1.119511 -1.775370 1.173436 0
M  V30 6 C 1.485000 -3.078587 0.843029 0
M  V30 7 C 0.926053 -3.688749 -0.256136 0
M  V30 8 C 0.020462 -2.923408 -0.955967 0
M  V30 9 C -0.375211 -1.650059 -0.683019 0
M  V30 10 C 0.204413 -1.068166 0.425474 0
M  V30 11 C -0.345077 0.255223 0.530259 0
M  V30 12 C -0.140344 1.278153 1.425588 0
M  V30 13 C -0.773600 2.502354 1.360872 0
M  V30 14 C -1.685808 2.737830 0.325893 0
M  V30 15 C -1.917450 1.719023 -0.601703 0
M  V30 16 C -1.248751 0.514556 -0.478973 0
M  V30 17 C -1.297664 -0.697339 -1.289186 0
M  V30 18 N -2.023923 -0.908283 -2.358768 0
M  V30 19 O -1.954688 -2.121849 -3.017194 0
M  V30 20 H 3.210309 0.138190 5.008257 0
M  V30 21 H 4.179972 -0.961779 4.024669 0
M  V30 22 H 2.856590 -1.606799 5.074545 0
M  V30 23 H 2.203792 -3.655074 1.417602 0
M  V30 24 H 1.186884 -4.697308 -0.540323 0
M  V30 25 H -0.418187 -3.399903 -1.817113 0
M  V30 26 H 0.530924 1.229510 2.264014 0
M  V30 27 H -0.632385 3.318022 2.046287 0
M  V30 28 H -2.192566 3.690642 0.257560 0
M  V30 29 H -2.621105 1.895717 -1.403112 0
M  V30 30 H -2.814991 -2.565021 -3.273058 0
M  V30 END ATOM
M  V30 BEGIN BOND
M  V30 1 1 1 2
M  V30 2 1 2 3
M  V30 3 2 3 4
M  V30 4 1 3 5
M  V30 5 2 5 6
M  V30 6 1 6 7
M  V30 7 2 7 8
M  V30 8 1 8 9
M  V30 9 2 9 10
M  V30 10 1 10 11
M  V30 11 2 11 12
M  V30 12 1 12 13
M  V30 13 2 13 14
M  V30 14 1 14 15
M  V30 15 2 15 16
M  V30 16 1 16 17
M  V30 17 2 17 18
M  V30 18 1 18 19
M  V30 19 1 10 5
M  V30 20 1 16 11
M  V30 21 1 17 9
M  V30 22 1 1 20
M  V30 23 1 1 21
M  V30 24 1 1 22
M  V30 25 1 6 23
M  V30 26 1 7 24
M  V30 27 1 8 25
M  V30 28 1 12 26
M  V30 29 1 13 27
M  V30 30 1 14 28
M  V30 31 1 15 29
M  V30 32 1 19 30
M  V30 END BOND
M  V30 END CTAB
M  END
>  <Dataset>  (939) 
ChEMBL_Kinases

>  <Ligand_Instance>  (939) 
nan

>  <PDB_ID>  (939) 
nan

>  <Standardized_SMILES>  (939) 
COC(=O)c1cccc2c1-c1ccccc1/C2=N/O

>  <Name>  (939) 
nan

>  <Pocket>  (939) 
nan

>  <ATP_Site>  (939) 
nan

>  <Peripheral>  (939) 
nan

>  <Num_H_Atoms_ProtBoundConf>  (939) 
nan

>  <Num_Resolved_Atoms>  (939) 
nan

>  <Num_Not_Resolved_Atoms>  (939) 
nan

$$$$
CHEMBL2005602
     RDKit          3D

  0  0  0  0  0  0  0  0  0  0999 V3000
M  V30 BEGIN CTAB
M  V30 COUNTS 52 56 0 0 0
M  V30 BEGIN ATOM
M  V30 1 C 4.720139 -1.680004 4.682133 0
M  V30 2 O 4.643996 -1.113632 3.400677 0
M  V30 3 C 5.352390 -1.859756 2.463763 0
M  V30 4 C 5.182555 -1.132263 1.127434 0
M  V30 5 N 3.765006 -1.074264 0.799166 0
M  V30 6 C 3.131678 -2.022569 0.089437 0
M  V30 7 N 1.825600 -1.928069 -0.189246 0
M  V30 8 C 1.058994 -0.897707 0.210657 0
M  V30 9 C 1.712054 0.062881 0.932526 0
M  V30 10 C 3.038070 -0.020068 1.222971 0
M  V30 11 O 3.632579 0.873311 1.891052 0
M  V30 12 C 0.781000 1.028968 1.253350 0
M  V30 13 N 0.905721 2.171881 1.945799 0
M  V30 14 C -0.171887 2.958176 2.125315 0
M  V30 15 C -0.082878 4.141083 2.831783 0
M  V30 16 C -1.235217 4.885376 2.967955 0
M  V30 17 C -2.459024 4.540391 2.456255 0
M  V30 18 C -2.511363 3.352909 1.756511 0
M  V30 19 C -1.394434 2.563951 1.585484 0
M  V30 20 N -1.516212 1.416804 0.891336 0
M  V30 21 C -0.436456 0.643704 0.719997 0
M  V30 22 N -0.238839 -0.526510 0.094028 0
M  V30 23 N -1.210378 -1.293248 -0.597007 0
M  V30 24 C -2.445036 -1.363160 -0.230313 0
M  V30 25 C -3.465906 -2.160976 -0.945654 0
M  V30 26 C -4.758483 -2.162154 -0.462474 0
M  V30 27 C -5.662853 -2.924124 -1.172197 0
M  V30 28 C -5.254429 -3.632374 -2.300347 0
M  V30 29 C -3.946609 -3.612800 -2.763909 0
M  V30 30 O -3.596703 -4.327126 -3.878512 0
M  V30 31 C -2.288840 -4.361388 -4.416069 0
M  V30 32 C -3.016912 -2.845853 -2.056828 0
M  V30 33 H 5.784894 -1.707319 4.961614 0
M  V30 34 H 4.097249 -1.041881 5.343907 0
M  V30 35 H 4.240347 -2.684122 4.699942 0
M  V30 36 H 5.046852 -2.911895 2.396832 0
M  V30 37 H 6.445620 -1.781593 2.692453 0
M  V30 38 H 5.553406 -0.093218 1.315381 0
M  V30 39 H 5.749420 -1.612999 0.329232 0
M  V30 40 H 3.701884 -2.880553 -0.260936 0
M  V30 41 H 0.866267 4.469636 3.263914 0
M  V30 42 H -1.221419 5.836645 3.521282 0
M  V30 43 H -3.355901 5.131154 2.568897 0
M  V30 44 H -3.447698 3.029399 1.330597 0
M  V30 45 H -2.688836 -0.788208 0.652475 0
M  V30 46 H -4.975031 -1.582840 0.416200 0
M  V30 47 H -6.683072 -2.940012 -0.811484 0
M  V30 48 H -6.037969 -4.204742 -2.794350 0
M  V30 49 H -2.119749 -5.254075 -5.047269 0
M  V30 50 H -2.159187 -3.453262 -5.040061 0
M  V30 51 H -1.506405 -4.334978 -3.618313 0
M  V30 52 H -1.983656 -2.793070 -2.371694 0
M  V30 END ATOM
M  V30 BEGIN BOND
M  V30 1 1 1 2
M  V30 2 1 2 3
M  V30 3 1 3 4
M  V30 4 1 4 5
M  V30 5 1 5 6
M  V30 6 2 6 7
M  V30 7 1 7 8
M  V30 8 2 8 9
M  V30 9 1 9 10
M  V30 10 2 10 11
M  V30 11 1 9 12
M  V30 12 2 12 13
M  V30 13 1 13 14
M  V30 14 2 14 15
M  V30 15 1 15 16
M  V30 16 2 16 17
M  V30 17 1 17 18
M  V30 18 2 18 19
M  V30 19 1 19 20
M  V30 20 2 20 21
M  V30 21 1 21 22
M  V30 22 1 22 23
M  V30 23 2 23 24
M  V30 24 1 24 25
M  V30 25 2 25 26
M  V30 26 1 26 27
M  V30 27 2 27 28
M  V30 28 1 28 29
M  V30 29 1 29 30
M  V30 30 1 30 31
M  V30 31 2 29 32
M  V30 32 1 10 5
M  V30 33 1 21 12
M  V30 34 1 32 25
M  V30 35 1 22 8
M  V30 36 1 19 14
M  V30 37 1 1 33
M  V30 38 1 1 34
M  V30 39 1 1 35
M  V30 40 1 3 36
M  V30 41 1 3 37
M  V30 42 1 4 38
M  V30 43 1 4 39
M  V30 44 1 6 40
M  V30 45 1 15 41
M  V30 46 1 16 42
M  V30 47 1 17 43
M  V30 48 1 18 44
M  V30 49 1 24 45
M  V30 50 1 26 46
M  V30 51 1 27 47
M  V30 52 1 28 48
M  V30 53 1 31 49
M  V30 54 1 31 50
M  V30 55 1 31 51
M  V30 56 1 32 52
M  V30 END BOND
M  V30 END CTAB
M  END
>  <Dataset>  (940) 
ChEMBL_Kinases

>  <Ligand_Instance>  (940) 
nan

>  <PDB_ID>  (940) 
nan

>  <Standardized_SMILES>  (940) 
COCCn1cnc2c(c1=O)c1nc3ccccc3nc1n2/N=C/c1cccc(OC)c1

>  <Name>  (940) 
nan

>  <Pocket>  (940) 
nan

>  <ATP_Site>  (940) 
nan

>  <Peripheral>  (940) 
nan

>  <Num_H_Atoms_ProtBoundConf>  (940) 
nan

>  <Num_Resolved_Atoms>  (940) 
nan

>  <Num_Not_Resolved_Atoms>  (940) 
nan

$$$$
CHEMBL200535
     RDKit          3D

  0  0  0  0  0  0  0  0  0  0999 V3000
M  V30 BEGIN CTAB
M  V30 COUNTS 55 59 0 0 0
M  V30 BEGIN ATOM
M  V30 1 C 4.263376 -1.828051 3.481144 0
M  V30 2 O 3.903907 -0.776013 4.345191 0
M  V30 3 C 3.320237 0.400261 3.889829 0
M  V30 4 C 2.979753 1.420061 4.794521 0
M  V30 5 C 2.392036 2.614580 4.367488 0
M  V30 6 C 2.144543 2.786979 3.036124 0
M  V30 7 C 2.452807 1.827727 2.095730 0
M  V30 8 C 3.039615 0.646903 2.557850 0
M  V30 9 C 2.350534 1.631889 0.632387 0
M  V30 10 N 1.525528 2.644744 -0.023197 0
M  V30 11 C 0.609960 3.653987 0.381710 0
M  V30 12 C -0.347075 3.991915 -0.585926 0
M  V30 13 N -0.198701 3.257466 -1.795487 0
M  V30 14 C -0.637638 1.888506 -1.642145 0
M  V30 15 C -1.270104 1.446416 -0.500171 0
M  V30 16 N -1.633621 0.131064 -0.394808 0
M  V30 17 C -1.375572 -0.712957 -1.392153 0
M  V30 18 N -1.760150 -2.077382 -1.255369 0
M  V30 19 C -2.880460 -2.888344 -1.549643 0
M  V30 20 O -3.731247 -2.147854 -2.083885 0
M  V30 21 C -2.820274 -4.302936 -1.197555 0
M  V30 22 C -1.763448 -4.956660 -0.598568 0
M  V30 23 C -1.939814 -6.305835 -0.354520 0
M  V30 24 C -3.110863 -6.986702 -0.686961 0
M  V30 25 C -3.106400 -8.431757 -0.345805 0
M  V30 26 C -4.165985 -6.305137 -1.290666 0
M  V30 27 C -3.990661 -4.960608 -1.534030 0
M  V30 28 N -0.748776 -0.277963 -2.528822 0
M  V30 29 C -0.369271 0.996600 -2.690365 0
M  V30 30 N -1.233959 4.941146 -0.236720 0
M  V30 31 C -1.204804 5.536125 0.975685 0
M  V30 32 N -0.271157 5.194846 1.897095 0
M  V30 33 C 0.664401 4.244141 1.628104 0
M  V30 34 O 1.550872 4.023963 2.706346 0
M  V30 35 H 5.195437 -1.582510 2.963925 0
M  V30 36 H 3.494837 -2.056087 2.708250 0
M  V30 37 H 4.433019 -2.757746 4.056179 0
M  V30 38 H 3.187155 1.260733 5.866005 0
M  V30 39 H 2.137473 3.394702 5.074124 0
M  V30 40 H 3.330162 -0.182869 1.924342 0
M  V30 41 H 3.335448 1.532849 0.135286 0
M  V30 42 H 1.778548 0.669629 0.454509 0
M  V30 43 H 1.656923 2.602089 -1.081054 0
M  V30 44 H 0.161052 3.579976 -2.703937 0
M  V30 45 H -1.481656 2.126363 0.317164 0
M  V30 46 H -0.850085 -2.394383 -0.795517 0
M  V30 47 H -0.884488 -4.377071 -0.370327 0
M  V30 48 H -1.099862 -6.804984 0.122088 0
M  V30 49 H -4.138447 -8.854892 -0.324606 0
M  V30 50 H -2.527628 -9.057031 -1.055971 0
M  V30 51 H -2.675782 -8.619971 0.663087 0
M  V30 52 H -5.043557 -6.879536 -1.524376 0
M  V30 53 H -4.874032 -4.518442 -2.005964 0
M  V30 54 H 0.128806 1.365599 -3.581763 0
M  V30 55 H -1.955832 6.291528 1.163397 0
M  V30 END ATOM
M  V30 BEGIN BOND
M  V30 1 1 1 2
M  V30 2 1 2 3
M  V30 3 2 3 4
M  V30 4 1 4 5
M  V30 5 2 5 6
M  V30 6 1 6 7
M  V30 7 2 7 8
M  V30 8 1 7 9
M  V30 9 1 9 10
M  V30 10 1 10 11
M  V30 11 2 11 12
M  V30 12 1 12 13
M  V30 13 1 13 14
M  V30 14 2 14 15
M  V30 15 1 15 16
M  V30 16 2 16 17
M  V30 17 1 17 18
M  V30 18 1 18 19
M  V30 19 2 19 20
M  V30 20 1 19 21
M  V30 21 2 21 22
M  V30 22 1 22 23
M  V30 23 2 23 24
M  V30 24 1 24 25
M  V30 25 1 24 26
M  V30 26 2 26 27
M  V30 27 1 17 28
M  V30 28 2 28 29
M  V30 29 1 12 30
M  V30 30 2 30 31
M  V30 31 1 31 32
M  V30 32 2 32 33
M  V30 33 1 33 34
M  V30 34 1 8 3
M  V30 35 1 33 11
M  V30 36 1 34 6
M  V30 37 1 29 14
M  V30 38 1 27 21
M  V30 39 1 1 35
M  V30 40 1 1 36
M  V30 41 1 1 37
M  V30 42 1 4 38
M  V30 43 1 5 39
M  V30 44 1 8 40
M  V30 45 1 9 41
M  V30 46 1 9 42
M  V30 47 1 10 43
M  V30 48 1 13 44
M  V30 49 1 15 45
M  V30 50 1 18 46
M  V30 51 1 22 47
M  V30 52 1 23 48
M  V30 53 1 25 49
M  V30 54 1 25 50
M  V30 55 1 25 51
M  V30 56 1 26 52
M  V30 57 1 27 53
M  V30 58 1 29 54
M  V30 59 1 31 55
M  V30 END BOND
M  V30 END CTAB
M  END
>  <Dataset>  (941) 
ChEMBL_Kinases

>  <Ligand_Instance>  (941) 
nan

>  <PDB_ID>  (941) 
nan

>  <Standardized_SMILES>  (941) 
COc1ccc2c(c1)CNc1c(Nc3cnc(NC(=O)c4ccc(C)cc4)nc3)ncnc1O2

>  <Name>  (941) 
nan

>  <Pocket>  (941) 
nan

>  <ATP_Site>  (941) 
nan

>  <Peripheral>  (941) 
nan

>  <Num_H_Atoms_ProtBoundConf>  (941) 
nan

>  <Num_Resolved_Atoms>  (941) 
nan

>  <Num_Not_Resolved_Atoms>  (941) 
nan

$$$$
CHEMBL200534
     RDKit          3D

  0  0  0  0  0  0  0  0  0  0999 V3000
M  V30 BEGIN CTAB
M  V30 COUNTS 66 70 0 0 0
M  V30 BEGIN ATOM
M  V30 1 C 5.047005 0.136691 4.074646 0
M  V30 2 C 3.618446 0.405106 3.672624 0
M  V30 3 C 2.669573 0.019111 4.804805 0
M  V30 4 C 3.450945 1.887775 3.465815 0
M  V30 5 N 3.231695 -0.304430 2.528559 0
M  V30 6 C 3.293333 -1.738251 2.615635 0
M  V30 7 C 2.248047 -2.370573 1.719627 0
M  V30 8 C 1.790659 -1.308996 0.754161 0
M  V30 9 O 0.885941 -1.712428 -0.190665 0
M  V30 10 C -0.370976 -1.150701 -0.276986 0
M  V30 11 C -1.052636 -0.173499 0.413108 0
M  V30 12 C -2.341053 0.174628 0.075055 0
M  V30 13 C -2.873848 1.230911 0.935042 0
M  V30 14 C -3.560316 1.092271 2.111305 0
M  V30 15 C -4.000100 2.197702 2.810812 0
M  V30 16 C -3.764815 3.494145 2.351290 0
M  V30 17 F -4.201622 4.571387 3.047477 0
M  V30 18 C -3.064207 3.616537 1.151765 0
M  V30 19 C -2.631868 2.518698 0.464355 0
M  V30 20 F -1.970666 2.807864 -0.675799 0
M  V30 21 C -3.026476 -0.423833 -0.963553 0
M  V30 22 C -4.312768 0.009570 -1.206672 0
M  V30 23 C -4.943417 -0.626525 -2.255518 0
M  V30 24 C -4.316026 -1.614490 -2.987504 0
M  V30 25 O -4.890751 -2.194228 -3.943289 0
M  V30 26 N -3.060449 -1.965466 -2.671156 0
M  V30 27 C -2.436334 -2.986335 -3.440330 0
M  V30 28 C -2.525010 -4.240712 -2.840111 0
M  V30 29 F -3.125121 -4.494242 -1.668298 0
M  V30 30 C -1.950761 -5.332518 -3.493694 0
M  V30 31 C -1.314068 -5.159591 -4.704067 0
M  V30 32 C -1.235026 -3.902834 -5.287742 0
M  V30 33 C -1.800153 -2.793832 -4.656535 0
M  V30 34 F -1.786020 -1.532500 -5.125097 0
M  V30 35 C -2.362018 -1.405729 -1.668260 0
M  V30 36 C -1.052432 -1.771700 -1.337913 0
M  V30 37 C 3.068760 -0.710992 0.165554 0
M  V30 38 C 3.657764 0.198393 1.250279 0
M  V30 39 H 5.058198 0.038427 5.192617 0
M  V30 40 H 5.702619 0.958416 3.768656 0
M  V30 41 H 5.319262 -0.856625 3.643210 0
M  V30 42 H 2.607818 0.882198 5.498243 0
M  V30 43 H 1.661596 -0.124881 4.374951 0
M  V30 44 H 3.045281 -0.881719 5.339939 0
M  V30 45 H 3.199033 2.409368 4.434228 0
M  V30 46 H 4.390521 2.399969 3.136064 0
M  V30 47 H 2.623957 2.162737 2.787828 0
M  V30 48 H 4.311444 -2.087849 2.335470 0
M  V30 49 H 3.088462 -2.038155 3.646173 0
M  V30 50 H 2.724384 -3.189035 1.141585 0
M  V30 51 H 1.414121 -2.807048 2.301124 0
M  V30 52 H 1.361161 -0.508717 1.386181 0
M  V30 53 H -0.466930 0.241219 1.194503 0
M  V30 54 H -3.715251 0.069397 2.421501 0
M  V30 55 H -4.530917 2.042616 3.722867 0
M  V30 56 H -2.906851 4.635775 0.838363 0
M  V30 57 H -4.779935 0.787025 -0.616237 0
M  V30 58 H -5.960535 -0.355653 -2.526800 0
M  V30 59 H -1.972444 -6.344302 -3.098687 0
M  V30 60 H -0.850681 -5.979000 -5.252780 0
M  V30 61 H -0.746702 -3.713956 -6.235620 0
M  V30 62 H -0.693730 -2.562956 -2.004329 0
M  V30 63 H 2.833180 -0.054427 -0.678667 0
M  V30 64 H 3.753377 -1.503515 -0.134456 0
M  V30 65 H 4.748497 0.127855 1.153648 0
M  V30 66 H 3.344617 1.232156 1.128936 0
M  V30 END ATOM
M  V30 BEGIN BOND
M  V30 1 1 1 2
M  V30 2 1 2 3
M  V30 3 1 2 4
M  V30 4 1 2 5
M  V30 5 1 5 6
M  V30 6 1 6 7
M  V30 7 1 7 8
M  V30 8 1 8 9
M  V30 9 1 9 10
M  V30 10 2 10 11
M  V30 11 1 11 12
M  V30 12 1 12 13
M  V30 13 2 13 14
M  V30 14 1 14 15
M  V30 15 2 15 16
M  V30 16 1 16 17
M  V30 17 1 16 18
M  V30 18 2 18 19
M  V30 19 1 19 20
M  V30 20 2 12 21
M  V30 21 1 21 22
M  V30 22 2 22 23
M  V30 23 1 23 24
M  V30 24 2 24 25
M  V30 25 1 24 26
M  V30 26 1 26 27
M  V30 27 2 27 28
M  V30 28 1 28 29
M  V30 29 1 28 30
M  V30 30 2 30 31
M  V30 31 1 31 32
M  V30 32 2 32 33
M  V30 33 1 33 34
M  V30 34 1 26 35
M  V30 35 2 35 36
M  V30 36 1 8 37
M  V30 37 1 37 38
M  V30 38 1 38 5
M  V30 39 1 36 10
M  V30 40 1 19 13
M  V30 41 1 35 21
M  V30 42 1 33 27
M  V30 43 1 1 39
M  V30 44 1 1 40
M  V30 45 1 1 41
M  V30 46 1 3 42
M  V30 47 1 3 43
M  V30 48 1 3 44
M  V30 49 1 4 45
M  V30 50 1 4 46
M  V30 51 1 4 47
M  V30 52 1 6 48
M  V30 53 1 6 49
M  V30 54 1 7 50
M  V30 55 1 7 51
M  V30 56 1 8 52
M  V30 57 1 11 53
M  V30 58 1 14 54
M  V30 59 1 15 55
M  V30 60 1 18 56
M  V30 61 1 22 57
M  V30 62 1 23 58
M  V30 63 1 30 59
M  V30 64 1 31 60
M  V30 65 1 32 61
M  V30 66 1 36 62
M  V30 67 1 37 63
M  V30 68 1 37 64
M  V30 69 1 38 65
M  V30 70 1 38 66
M  V30 END BOND
M  V30 END CTAB
M  END
>  <Dataset>  (942) 
ChEMBL_Kinases

>  <Ligand_Instance>  (942) 
nan

>  <PDB_ID>  (942) 
nan

>  <Standardized_SMILES>  (942) 
CC(C)(C)N1CCC(Oc2cc(-c3ccc(F)cc3F)c3ccc(=O)n(-c4c(F)cccc4F)c3c2)CC1

>  <Name>  (942) 
nan

>  <Pocket>  (942) 
nan

>  <ATP_Site>  (942) 
nan

>  <Peripheral>  (942) 
nan

>  <Num_H_Atoms_ProtBoundConf>  (942) 
nan

>  <Num_Resolved_Atoms>  (942) 
nan

>  <Num_Not_Resolved_Atoms>  (942) 
nan

$$$$
CHEMBL200525
     RDKit          3D

  0  0  0  0  0  0  0  0  0  0999 V3000
M  V30 BEGIN CTAB
M  V30 COUNTS 52 56 0 0 0
M  V30 BEGIN ATOM
M  V30 1 C 3.559419 0.354121 6.946196 0
M  V30 2 O 4.241666 0.827129 5.795682 0
M  V30 3 C 3.495171 0.979631 4.628874 0
M  V30 4 C 2.138473 0.673673 4.623627 0
M  V30 5 C 1.425846 0.841136 3.433652 0
M  V30 6 C 2.032442 1.303658 2.257739 0
M  V30 7 C 3.385062 1.590006 2.327895 0
M  V30 8 C 4.121450 1.435671 3.489153 0
M  V30 9 O 4.094419 2.061287 1.203751 0
M  V30 10 C 3.802078 1.823112 -0.155703 0
M  V30 11 N 4.890511 1.738319 -0.965856 0
M  V30 12 C 4.733605 1.513777 -2.283261 0
M  V30 13 N 3.523426 1.368084 -2.843297 0
M  V30 14 C 2.375023 1.437653 -2.117499 0
M  V30 15 N 1.064716 1.303118 -2.586454 0
M  V30 16 C -0.017644 0.412944 -2.375944 0
M  V30 17 C -1.200479 0.683301 -3.080799 0
M  V30 18 N -2.228291 -0.154517 -2.852540 0
M  V30 19 C -2.186745 -1.203669 -2.013672 0
M  V30 20 N -3.277735 -2.081570 -1.767029 0
M  V30 21 C -3.193575 -3.146460 -0.852344 0
M  V30 22 O -2.081230 -3.268820 -0.275451 0
M  V30 23 C -4.286182 -4.066620 -0.560103 0
M  V30 24 C -5.548264 -4.014306 -1.123102 0
M  V30 25 C -6.503446 -4.953015 -0.751799 0
M  V30 26 C -6.257138 -5.962487 0.173714 0
M  V30 27 C -4.997793 -6.010870 0.732290 0
M  V30 28 C -4.058058 -5.081058 0.361477 0
M  V30 29 N -1.036922 -1.430357 -1.357299 0
M  V30 30 C 0.048451 -0.652652 -1.514394 0
M  V30 31 C 2.549051 1.670603 -0.743685 0
M  V30 32 N 1.294121 1.717715 -0.046552 0
M  V30 33 C 0.928407 1.318706 1.300032 0
M  V30 34 H 2.745616 1.077453 7.178707 0
M  V30 35 H 4.243836 0.168722 7.796117 0
M  V30 36 H 3.071658 -0.629289 6.716469 0
M  V30 37 H 1.695208 0.320512 5.535957 0
M  V30 38 H 0.384558 0.570339 3.548643 0
M  V30 39 H 5.171260 1.689204 3.424125 0
M  V30 40 H 5.628747 1.452780 -2.893547 0
M  V30 41 H 1.014060 2.109889 -3.229667 0
M  V30 42 H -1.278891 1.526901 -3.775901 0
M  V30 43 H -4.185849 -1.934053 -2.278059 0
M  V30 44 H -5.743299 -3.239167 -1.833755 0
M  V30 45 H -7.497020 -4.875501 -1.223654 0
M  V30 46 H -7.013449 -6.683368 0.450361 0
M  V30 47 H -4.720602 -6.767394 1.460965 0
M  V30 48 H -3.077919 -5.142147 0.816504 0
M  V30 49 H 0.938580 -0.882001 -0.969443 0
M  V30 50 H 0.501475 2.111773 -0.638644 0
M  V30 51 H 0.097569 1.935532 1.700175 0
M  V30 52 H 0.558968 0.266029 1.191037 0
M  V30 END ATOM
M  V30 BEGIN BOND
M  V30 1 1 1 2
M  V30 2 1 2 3
M  V30 3 2 3 4
M  V30 4 1 4 5
M  V30 5 2 5 6
M  V30 6 1 6 7
M  V30 7 2 7 8
M  V30 8 1 7 9
M  V30 9 1 9 10
M  V30 10 2 10 11
M  V30 11 1 11 12
M  V30 12 2 12 13
M  V30 13 1 13 14
M  V30 14 1 14 15
M  V30 15 1 15 16
M  V30 16 2 16 17
M  V30 17 1 17 18
M  V30 18 2 18 19
M  V30 19 1 19 20
M  V30 20 1 20 21
M  V30 21 2 21 22
M  V30 22 1 21 23
M  V30 23 2 23 24
M  V30 24 1 24 25
M  V30 25 2 25 26
M  V30 26 1 26 27
M  V30 27 2 27 28
M  V30 28 1 19 29
M  V30 29 2 29 30
M  V30 30 2 14 31
M  V30 31 1 31 32
M  V30 32 1 32 33
M  V30 33 1 8 3
M  V30 34 1 31 10
M  V30 35 1 33 6
M  V30 36 1 30 16
M  V30 37 1 28 23
M  V30 38 1 1 34
M  V30 39 1 1 35
M  V30 40 1 1 36
M  V30 41 1 4 37
M  V30 42 1 5 38
M  V30 43 1 8 39
M  V30 44 1 12 40
M  V30 45 1 15 41
M  V30 46 1 17 42
M  V30 47 1 20 43
M  V30 48 1 24 44
M  V30 49 1 25 45
M  V30 50 1 26 46
M  V30 51 1 27 47
M  V30 52 1 28 48
M  V30 53 1 30 49
M  V30 54 1 32 50
M  V30 55 1 33 51
M  V30 56 1 33 52
M  V30 END BOND
M  V30 END CTAB
M  END
>  <Dataset>  (943) 
ChEMBL_Kinases

>  <Ligand_Instance>  (943) 
nan

>  <PDB_ID>  (943) 
nan

>  <Standardized_SMILES>  (943) 
COc1ccc2c(c1)Oc1ncnc(Nc3cnc(NC(=O)c4ccccc4)nc3)c1NC2

>  <Name>  (943) 
nan

>  <Pocket>  (943) 
nan

>  <ATP_Site>  (943) 
nan

>  <Peripheral>  (943) 
nan

>  <Num_H_Atoms_ProtBoundConf>  (943) 
nan

>  <Num_Resolved_Atoms>  (943) 
nan

>  <Num_Not_Resolved_Atoms>  (943) 
nan

$$$$
CHEMBL2004928
     RDKit          3D

  0  0  0  0  0  0  0  0  0  0999 V3000
M  V30 BEGIN CTAB
M  V30 COUNTS 46 50 0 0 0
M  V30 BEGIN ATOM
M  V30 1 N -2.030447 -0.499120 2.073720 0
M  V30 2 C -0.847637 -0.927707 1.415473 0
M  V30 3 C 0.253808 -0.103131 1.308081 0
M  V30 4 C 0.400016 1.259926 1.811755 0
M  V30 5 O -0.565038 1.787801 2.422419 0
M  V30 6 N 1.630633 1.939043 1.591736 0
M  V30 7 N 1.910523 3.242631 2.016468 0
M  V30 8 C 2.168090 4.187213 1.164097 0
M  V30 9 C 2.482594 5.606970 1.421818 0
M  V30 10 C 2.735265 6.493582 0.390931 0
M  V30 11 C 3.014633 7.786870 0.776444 0
M  V30 12 C 3.051530 8.215956 2.086018 0
M  V30 13 N 2.795289 7.303965 3.068830 0
M  V30 14 C 2.514968 6.017642 2.737435 0
M  V30 15 O 1.144910 -0.809378 0.653794 0
M  V30 16 C 0.679752 -1.997984 0.351945 0
M  V30 17 N 1.214865 -3.067888 -0.307767 0
M  V30 18 C 0.509710 -4.198646 -0.488081 0
M  V30 19 C 1.095889 -5.333189 -1.195252 0
M  V30 20 C 0.492285 -6.547231 -1.451274 0
M  V30 21 C 1.405538 -7.335828 -2.148571 0
M  V30 22 C 2.531226 -6.526821 -2.272261 0
M  V30 23 O 2.300210 -5.369555 -1.700181 0
M  V30 24 C -0.776626 -4.301956 -0.007486 0
M  V30 25 C -1.398174 -3.273190 0.670391 0
M  V30 26 C -2.757006 -3.363486 1.185851 0
M  V30 27 C -3.513913 -4.527999 1.012614 0
M  V30 28 C -4.756789 -4.366237 1.585043 0
M  V30 29 C -4.721355 -3.105820 2.091398 0
M  V30 30 O -3.568588 -2.603792 1.829882 0
M  V30 31 C -0.616243 -2.147909 0.817214 0
M  V30 32 H -1.953080 -0.769080 3.089415 0
M  V30 33 H -2.700021 -0.018199 1.403429 0
M  V30 34 H 2.447494 1.503610 1.079547 0
M  V30 35 H 2.144559 3.868786 0.110398 0
M  V30 36 H 2.704988 6.152374 -0.630573 0
M  V30 37 H 3.212480 8.475400 -0.058523 0
M  V30 38 H 3.284217 9.266284 2.276254 0
M  V30 39 H 2.316776 5.323914 3.554517 0
M  V30 40 H -0.508459 -6.858655 -1.172840 0
M  V30 41 H 1.295538 -8.349046 -2.522415 0
M  V30 42 H 3.467420 -6.795176 -2.763961 0
M  V30 43 H -1.300399 -5.229761 -0.177739 0
M  V30 44 H -3.202111 -5.435110 0.510979 0
M  V30 45 H -5.589131 -5.049719 1.641240 0
M  V30 46 H -5.511896 -2.566825 2.635685 0
M  V30 END ATOM
M  V30 BEGIN BOND
M  V30 1 1 1 2
M  V30 2 2 2 3
M  V30 3 1 3 4
M  V30 4 2 4 5
M  V30 5 1 4 6
M  V30 6 1 6 7
M  V30 7 2 7 8
M  V30 8 1 8 9
M  V30 9 2 9 10
M  V30 10 1 10 11
M  V30 11 2 11 12
M  V30 12 1 12 13
M  V30 13 2 13 14
M  V30 14 1 3 15
M  V30 15 1 15 16
M  V30 16 2 16 17
M  V30 17 1 17 18
M  V30 18 1 18 19
M  V30 19 2 19 20
M  V30 20 1 20 21
M  V30 21 2 21 22
M  V30 22 1 22 23
M  V30 23 2 18 24
M  V30 24 1 24 25
M  V30 25 1 25 26
M  V30 26 2 26 27
M  V30 27 1 27 28
M  V30 28 2 28 29
M  V30 29 1 29 30
M  V30 30 2 25 31
M  V30 31 1 31 2
M  V30 32 1 14 9
M  V30 33 1 31 16
M  V30 34 1 23 19
M  V30 35 1 30 26
M  V30 36 1 1 32
M  V30 37 1 1 33
M  V30 38 1 6 34
M  V30 39 1 8 35
M  V30 40 1 10 36
M  V30 41 1 11 37
M  V30 42 1 12 38
M  V30 43 1 14 39
M  V30 44 1 20 40
M  V30 45 1 21 41
M  V30 46 1 22 42
M  V30 47 1 24 43
M  V30 48 1 27 44
M  V30 49 1 28 45
M  V30 50 1 29 46
M  V30 END BOND
M  V30 END CTAB
M  END
>  <Dataset>  (944) 
ChEMBL_Kinases

>  <Ligand_Instance>  (944) 
nan

>  <PDB_ID>  (944) 
nan

>  <Standardized_SMILES>  (944) 
Nc1c(C(=O)N/N=C/c2cccnc2)oc2nc(-c3ccco3)cc(-c3ccco3)c12

>  <Name>  (944) 
nan

>  <Pocket>  (944) 
nan

>  <ATP_Site>  (944) 
nan

>  <Peripheral>  (944) 
nan

>  <Num_H_Atoms_ProtBoundConf>  (944) 
nan

>  <Num_Resolved_Atoms>  (944) 
nan

>  <Num_Not_Resolved_Atoms>  (944) 
nan

$$$$
CHEMBL2004475
     RDKit          3D

  0  0  0  0  0  0  0  0  0  0999 V3000
M  V30 BEGIN CTAB
M  V30 COUNTS 75 80 0 0 0
M  V30 BEGIN ATOM
M  V30 1 C 4.909803 -5.474661 0.851577 0
M  V30 2 C 4.041833 -4.247090 0.823663 0
M  V30 3 C 4.331240 -3.305697 1.730360 0
M  V30 4 C 3.527544 -2.059618 1.794854 0 CFG=1
M  V30 5 C 3.298698 -1.988694 3.394499 0
M  V30 6 C 4.269569 -0.797198 1.524122 0
M  V30 7 C 3.405722 0.417709 1.290261 0
M  V30 8 C 2.119894 0.708310 1.212287 0
M  V30 9 C 0.761816 1.302654 1.077409 0 CFG=1
M  V30 10 C 0.767751 2.760916 0.767515 0 CFG=2
M  V30 11 O 0.049361 3.646449 1.564578 0
M  V30 12 C -0.630114 3.114890 0.389281 0 CFG=1
M  V30 13 C -0.956565 4.242771 -0.540109 0
M  V30 14 C -1.640788 2.063151 0.725543 0 CFG=1
M  V30 15 C -3.006132 2.595106 0.349455 0
M  V30 16 C -1.367216 0.746620 -0.057131 0 CFG=1
M  V30 17 C -1.875086 0.847778 -1.436879 0 CFG=2
M  V30 18 C -2.638087 -0.242580 -2.054601 0
M  V30 19 C -3.892396 -0.671656 -1.469080 0
M  V30 20 C -5.125015 -0.170457 -1.929114 0
M  V30 21 N -6.183980 -0.651356 -1.247167 0
M  V30 22 C -5.703989 -1.485566 -0.312645 0
M  V30 23 C -6.241602 -2.286696 0.677360 0
M  V30 24 C -5.484836 -3.086265 1.524338 0
M  V30 25 C -4.119551 -3.059298 1.341792 0
M  V30 26 C -3.550058 -2.272612 0.365608 0
M  V30 27 C -4.335436 -1.492677 -0.453366 0
M  V30 28 N -0.705769 1.241412 -2.241901 0
M  V30 29 C 0.425857 1.363459 -1.390995 0
M  V30 30 O 1.366726 2.045683 -1.920814 0
M  V30 31 C 0.091015 0.627261 -0.148238 0 CFG=1
M  V30 32 C 0.682597 -0.720917 -0.249350 0
M  V30 33 O 0.036428 -1.347909 0.569044 0
M  V30 34 C 1.767822 -1.123727 -1.101013 0
M  V30 35 C 2.690202 -1.926339 -1.559851 0
M  V30 36 C 2.386207 -3.036652 -0.590745 0
M  V30 37 O 1.976183 -1.948232 -0.955584 0
M  V30 38 C 2.993812 -4.341371 -0.240890 0 CFG=2
M  V30 39 O 1.934057 -5.017822 0.447541 0
M  V30 40 H 5.918607 -5.146280 1.195915 0
M  V30 41 H 4.554303 -6.208059 1.608752 0
M  V30 42 H 5.034165 -5.911547 -0.144035 0
M  V30 43 H 5.154556 -3.483335 2.403425 0
M  V30 44 H 2.507045 -2.105174 1.499468 0
M  V30 45 H 4.283023 -1.921834 3.835694 0
M  V30 46 H 2.864437 -2.982977 3.593870 0
M  V30 47 H 2.565239 -1.224377 3.604110 0
M  V30 48 H 4.920405 -0.535384 2.384190 0
M  V30 49 H 4.950455 -0.934657 0.647160 0
M  V30 50 H 4.111947 1.278472 1.145571 0
M  V30 51 H 1.793302 -0.330523 1.424974 0
M  V30 52 H 0.179934 1.116191 1.971301 0
M  V30 53 H 1.555721 3.176905 0.092789 0
M  V30 54 H -1.625496 4.986434 -0.071866 0
M  V30 55 H -1.331162 3.918590 -1.519435 0
M  V30 56 H 0.020903 4.777813 -0.727959 0
M  V30 57 H -1.691265 1.811421 1.805443 0
M  V30 58 H -2.965298 3.422759 -0.401157 0
M  V30 59 H -3.424522 3.109050 1.267734 0
M  V30 60 H -3.748960 1.811653 0.124713 0
M  V30 61 H -1.752769 -0.061355 0.573516 0
M  V30 62 H -2.528520 1.781524 -1.505715 0
M  V30 63 H -1.934079 -1.143295 -2.140737 0
M  V30 64 H -2.826344 -0.035178 -3.157051 0
M  V30 65 H -5.282881 0.541938 -2.754436 0
M  V30 66 H -7.183727 -0.424710 -1.409621 0
M  V30 67 H -7.332724 -2.256919 0.757691 0
M  V30 68 H -5.966653 -3.704315 2.295707 0
M  V30 69 H -3.523365 -3.692436 2.010721 0
M  V30 70 H -2.478279 -2.292460 0.255679 0
M  V30 71 H -0.884448 1.366324 -3.281209 0
M  V30 72 H 1.784501 -0.247685 -1.667128 0
M  V30 73 H 3.397084 -1.679668 -2.419946 0
M  V30 74 H 3.264254 -4.959905 -1.072212 0
M  V30 75 H 2.399210 -5.867193 0.753320 0
M  V30 END ATOM
M  V30 BEGIN BOND
M  V30 1 1 1 2
M  V30 2 2 2 3
M  V30 3 1 3 4
M  V30 4 1 4 5
M  V30 5 1 4 6
M  V30 6 1 6 7
M  V30 7 2 7 8
M  V30 8 1 8 9
M  V30 9 1 9 10
M  V30 10 1 10 11
M  V30 11 1 11 12
M  V30 12 1 12 13 CFG=3
M  V30 13 1 12 14
M  V30 14 1 14 15
M  V30 15 1 14 16
M  V30 16 1 16 17
M  V30 17 1 17 18
M  V30 18 1 18 19
M  V30 19 2 19 20
M  V30 20 1 20 21
M  V30 21 1 21 22
M  V30 22 2 22 23
M  V30 23 1 23 24
M  V30 24 2 24 25
M  V30 25 1 25 26
M  V30 26 2 26 27
M  V30 27 1 17 28
M  V30 28 1 28 29
M  V30 29 2 29 30
M  V30 30 1 31 29 CFG=3
M  V30 31 1 31 32
M  V30 32 2 32 33
M  V30 33 1 32 34
M  V30 34 2 34 35
M  V30 35 1 35 36
M  V30 36 2 36 37
M  V30 37 1 36 38
M  V30 38 1 38 39
M  V30 39 1 38 2
M  V30 40 1 31 9
M  V30 41 1 12 10
M  V30 42 1 31 16
M  V30 43 1 27 19
M  V30 44 1 27 22
M  V30 45 1 1 40
M  V30 46 1 1 41
M  V30 47 1 1 42
M  V30 48 1 3 43
M  V30 49 1 4 44 CFG=3
M  V30 50 1 5 45
M  V30 51 1 5 46
M  V30 52 1 5 47
M  V30 53 1 6 48
M  V30 54 1 6 49
M  V30 55 1 7 50
M  V30 56 1 8 51
M  V30 57 1 9 52 CFG=1
M  V30 58 1 10 53 CFG=3
M  V30 59 1 13 54
M  V30 60 1 13 55
M  V30 61 1 13 56
M  V30 62 1 14 57 CFG=1
M  V30 63 1 15 58
M  V30 64 1 15 59
M  V30 65 1 15 60
M  V30 66 1 16 61 CFG=1
M  V30 67 1 17 62 CFG=1
M  V30 68 1 18 63
M  V30 69 1 18 64
M  V30 70 1 20 65
M  V30 71 1 21 66
M  V30 72 1 23 67
M  V30 73 1 24 68
M  V30 74 1 25 69
M  V30 75 1 26 70
M  V30 76 1 28 71
M  V30 77 1 34 72
M  V30 78 1 35 73
M  V30 79 1 38 74 CFG=3
M  V30 80 1 39 75
M  V30 END BOND
M  V30 END CTAB
M  END
>  <Dataset>  (945) 
ChEMBL_Kinases

>  <Ligand_Instance>  (945) 
nan

>  <PDB_ID>  (945) 
nan

>  <Standardized_SMILES>  (945) 
C/C1=C/[C@@H](C)C/C=C/[C@H]2[C@@H]3O[C@]3(C)[C@@H](C)[C@H]3[C@H](Cc4c[nH]c5ccccc45)NC(=O)[C@]32C(=O)/C=C\C(=O)[C@@H]1O

>  <Name>  (945) 
nan

>  <Pocket>  (945) 
nan

>  <ATP_Site>  (945) 
nan

>  <Peripheral>  (945) 
nan

>  <Num_H_Atoms_ProtBoundConf>  (945) 
nan

>  <Num_Resolved_Atoms>  (945) 
nan

>  <Num_Not_Resolved_Atoms>  (945) 
nan

$$$$
CHEMBL200395
     RDKit          3D

  0  0  0  0  0  0  0  0  0  0999 V3000
M  V30 BEGIN CTAB
M  V30 COUNTS 62 66 0 0 0
M  V30 BEGIN ATOM
M  V30 1 C 2.065527 -0.546127 5.989025 0
M  V30 2 C 3.060174 -0.123516 4.948031 0
M  V30 3 N 2.972028 -0.814996 3.707026 0
M  V30 4 C 3.381749 -2.203837 3.712634 0
M  V30 5 C 2.408356 -3.067713 4.434785 0
M  V30 6 C 2.515904 -0.247988 2.482979 0
M  V30 7 C 2.428725 -0.923853 1.284664 0
M  V30 8 C 1.993767 -0.371761 0.099658 0
M  V30 9 C 1.598420 0.973313 0.055460 0
M  V30 10 C 1.686960 1.646264 1.260742 0
M  V30 11 C 2.125107 1.071226 2.428833 0
M  V30 12 O 1.302811 3.010509 1.300732 0
M  V30 13 C 0.108000 3.540466 0.736728 0
M  V30 14 N -0.612890 4.410307 1.493207 0
M  V30 15 C -1.756145 4.934407 0.998098 0
M  V30 16 N -2.209516 4.624092 -0.223816 0
M  V30 17 C -1.573214 3.777105 -1.049778 0
M  V30 18 N -1.963026 3.348831 -2.348529 0
M  V30 19 C -2.397756 1.975363 -2.342881 0
M  V30 20 C -2.484190 1.216137 -1.195473 0
M  V30 21 N -2.864872 -0.091410 -1.213416 0
M  V30 22 C -3.174134 -0.688327 -2.377333 0
M  V30 23 N -3.528644 -2.052268 -2.144162 0
M  V30 24 C -2.451759 -3.000201 -2.161957 0
M  V30 25 O -1.276144 -2.584494 -2.388093 0
M  V30 26 C -2.594207 -4.432956 -1.936465 0
M  V30 27 C -1.456953 -5.211677 -1.981068 0
M  V30 28 C -1.512460 -6.578962 -1.769607 0
M  V30 29 C -2.725734 -7.170161 -1.510918 0
M  V30 30 C -3.889308 -6.429729 -1.457128 0
M  V30 31 C -3.796024 -5.068887 -1.672635 0
M  V30 32 N -3.102653 0.020344 -3.515076 0
M  V30 33 C -2.730053 1.311377 -3.529891 0
M  V30 34 C -0.389466 3.238644 -0.530467 0
M  V30 35 N 0.245377 2.341469 -1.465553 0
M  V30 36 C 1.197216 1.266226 -1.337909 0
M  V30 37 H 2.320139 -1.466202 6.514875 0
M  V30 38 H 2.043910 0.242332 6.808101 0
M  V30 39 H 1.021442 -0.507114 5.589888 0
M  V30 40 H 2.953234 0.980342 4.839400 0
M  V30 41 H 4.094195 -0.269571 5.411350 0
M  V30 42 H 3.698025 -2.592755 2.727024 0
M  V30 43 H 4.373247 -2.231865 4.301171 0
M  V30 44 H 2.202738 -3.947360 3.760371 0
M  V30 45 H 1.427426 -2.607305 4.638439 0
M  V30 46 H 2.835933 -3.474167 5.381434 0
M  V30 47 H 2.701632 -1.966711 1.211718 0
M  V30 48 H 1.952293 -0.982759 -0.818497 0
M  V30 49 H 2.124414 1.751128 3.257918 0
M  V30 50 H -2.285739 5.618009 1.641725 0
M  V30 51 H -1.987702 3.838005 -3.268507 0
M  V30 52 H -2.240794 1.675372 -0.221247 0
M  V30 53 H -4.502138 -2.446020 -1.951919 0
M  V30 54 H -0.453566 -4.811946 -2.182904 0
M  V30 55 H -0.591635 -7.176730 -1.811176 0
M  V30 56 H -2.739634 -8.259913 -1.347063 0
M  V30 57 H -4.862368 -6.901837 -1.249451 0
M  V30 58 H -4.679413 -4.469936 -1.637935 0
M  V30 59 H -2.690953 1.825974 -4.478248 0
M  V30 60 H -0.009649 2.460963 -2.473145 0
M  V30 61 H 0.769159 0.334973 -1.795806 0
M  V30 62 H 2.123646 1.465636 -1.944259 0
M  V30 END ATOM
M  V30 BEGIN BOND
M  V30 1 1 1 2
M  V30 2 1 2 3
M  V30 3 1 3 4
M  V30 4 1 4 5
M  V30 5 1 3 6
M  V30 6 2 6 7
M  V30 7 1 7 8
M  V30 8 2 8 9
M  V30 9 1 9 10
M  V30 10 2 10 11
M  V30 11 1 10 12
M  V30 12 1 12 13
M  V30 13 2 13 14
M  V30 14 1 14 15
M  V30 15 2 15 16
M  V30 16 1 16 17
M  V30 17 1 17 18
M  V30 18 1 18 19
M  V30 19 2 19 20
M  V30 20 1 20 21
M  V30 21 2 21 22
M  V30 22 1 22 23
M  V30 23 1 23 24
M  V30 24 2 24 25
M  V30 25 1 24 26
M  V30 26 2 26 27
M  V30 27 1 27 28
M  V30 28 2 28 29
M  V30 29 1 29 30
M  V30 30 2 30 31
M  V30 31 1 22 32
M  V30 32 2 32 33
M  V30 33 2 17 34
M  V30 34 1 34 35
M  V30 35 1 35 36
M  V30 36 1 11 6
M  V30 37 1 34 13
M  V30 38 1 36 9
M  V30 39 1 33 19
M  V30 40 1 31 26
M  V30 41 1 1 37
M  V30 42 1 1 38
M  V30 43 1 1 39
M  V30 44 1 2 40
M  V30 45 1 2 41
M  V30 46 1 4 42
M  V30 47 1 4 43
M  V30 48 1 5 44
M  V30 49 1 5 45
M  V30 50 1 5 46
M  V30 51 1 7 47
M  V30 52 1 8 48
M  V30 53 1 11 49
M  V30 54 1 15 50
M  V30 55 1 18 51
M  V30 56 1 20 52
M  V30 57 1 23 53
M  V30 58 1 27 54
M  V30 59 1 28 55
M  V30 60 1 29 56
M  V30 61 1 30 57
M  V30 62 1 31 58
M  V30 63 1 33 59
M  V30 64 1 35 60
M  V30 65 1 36 61
M  V30 66 1 36 62
M  V30 END BOND
M  V30 END CTAB
M  END
>  <Dataset>  (946) 
ChEMBL_Kinases

>  <Ligand_Instance>  (946) 
nan

>  <PDB_ID>  (946) 
nan

>  <Standardized_SMILES>  (946) 
CCN(CC)c1ccc2c(c1)Oc1ncnc(Nc3cnc(NC(=O)c4ccccc4)nc3)c1NC2

>  <Name>  (946) 
nan

>  <Pocket>  (946) 
nan

>  <ATP_Site>  (946) 
nan

>  <Peripheral>  (946) 
nan

>  <Num_H_Atoms_ProtBoundConf>  (946) 
nan

>  <Num_Resolved_Atoms>  (946) 
nan

>  <Num_Not_Resolved_Atoms>  (946) 
nan

$$$$
CHEMBL2003599
     RDKit          3D

  0  0  0  0  0  0  0  0  0  0999 V3000
M  V30 BEGIN CTAB
M  V30 COUNTS 53 56 0 0 0
M  V30 BEGIN ATOM
M  V30 1 C 5.607243 -1.848872 1.184032 0
M  V30 2 C 4.682569 -1.676387 2.378757 0
M  V30 3 O 3.518040 -1.005461 2.069296 0
M  V30 4 C 2.515226 -1.225278 1.212869 0
M  V30 5 O 3.544818 -1.825618 1.477979 0
M  V30 6 C 1.466300 -1.501265 0.282775 0
M  V30 7 C 0.430447 -0.734484 0.135645 0
M  V30 8 C 0.050574 0.434544 0.745041 0
M  V30 9 C 0.646308 1.126055 1.696611 0
M  V30 10 C 0.180830 2.368749 2.299954 0
M  V30 11 C 0.274163 3.577762 1.610442 0
M  V30 12 C -0.170288 4.765140 2.186375 0
M  V30 13 N -0.704849 4.786678 3.427602 0
M  V30 14 C -0.802384 3.631301 4.106057 0
M  V30 15 C -0.370924 2.421382 3.569213 0
M  V30 16 C -1.138940 0.865107 0.215028 0
M  V30 17 N -1.884218 2.024926 0.555836 0
M  V30 18 C -1.491365 -0.062380 -0.739130 0
M  V30 19 C -2.711409 0.045871 -1.532876 0
M  V30 20 O -3.247653 -0.625623 -2.423377 0
M  V30 21 O -3.599966 1.076362 -1.394134 0
M  V30 22 C -4.786080 1.251492 -2.113563 0
M  V30 23 N -0.530013 -1.006601 -0.762088 0
M  V30 24 C -0.503236 -2.123551 -1.609317 0
M  V30 25 O -1.120401 -2.115221 -2.689125 0
M  V30 26 C 0.226543 -3.412068 -1.361570 0
M  V30 27 C -0.654941 -4.262788 -0.534534 0
M  V30 28 C -1.137800 -4.018561 0.730252 0
M  V30 29 C -1.954846 -4.876157 1.414207 0
M  V30 30 N -2.341646 -6.056740 0.850682 0
M  V30 31 C -1.897116 -6.343535 -0.384633 0
M  V30 32 C -1.073823 -5.483756 -1.078848 0
M  V30 33 S 1.820238 -3.052062 -0.578165 0
M  V30 34 H 6.677993 -1.725847 1.501134 0
M  V30 35 H 5.473862 -2.871734 0.772132 0
M  V30 36 H 5.435731 -1.065324 0.425406 0
M  V30 37 H 4.580826 -2.617317 2.975741 0
M  V30 38 H 5.266934 -0.991352 3.089456 0
M  V30 39 H 1.573765 0.804115 2.122440 0
M  V30 40 H 0.698711 3.576632 0.618404 0
M  V30 41 H -0.085465 5.683843 1.629453 0
M  V30 42 H -1.202981 3.518010 5.086818 0
M  V30 43 H -0.421043 1.462209 4.060170 0
M  V30 44 H -1.890411 2.803475 -0.156459 0
M  V30 45 H -2.331039 1.937500 1.488140 0
M  V30 46 H -5.652975 0.894300 -1.518507 0
M  V30 47 H -4.944006 2.359608 -2.226356 0
M  V30 48 H -4.814523 0.764806 -3.102603 0
M  V30 49 H 0.468739 -3.900209 -2.330147 0
M  V30 50 H -0.838819 -3.098488 1.176100 0
M  V30 51 H -2.294595 -4.615827 2.405744 0
M  V30 52 H -2.220164 -7.300121 -0.822143 0
M  V30 53 H -0.735878 -5.751225 -2.074615 0
M  V30 END ATOM
M  V30 BEGIN BOND
M  V30 1 1 1 2
M  V30 2 1 2 3
M  V30 3 1 3 4
M  V30 4 2 4 5
M  V30 5 1 4 6
M  V30 6 2 6 7
M  V30 7 1 7 8
M  V30 8 2 8 9
M  V30 9 1 9 10
M  V30 10 2 10 11
M  V30 11 1 11 12
M  V30 12 2 12 13
M  V30 13 1 13 14
M  V30 14 2 14 15
M  V30 15 1 8 16
M  V30 16 1 16 17
M  V30 17 2 16 18
M  V30 18 1 18 19
M  V30 19 2 19 20
M  V30 20 1 19 21
M  V30 21 1 21 22
M  V30 22 1 18 23
M  V30 23 1 23 24
M  V30 24 2 24 25
M  V30 25 1 24 26
M  V30 26 1 26 27
M  V30 27 2 27 28
M  V30 28 1 28 29
M  V30 29 2 29 30
M  V30 30 1 30 31
M  V30 31 2 31 32
M  V30 32 1 26 33
M  V30 33 1 33 6
M  V30 34 1 23 7
M  V30 35 1 32 27
M  V30 36 1 15 10
M  V30 37 1 1 34
M  V30 38 1 1 35
M  V30 39 1 1 36
M  V30 40 1 2 37
M  V30 41 1 2 38
M  V30 42 1 9 39
M  V30 43 1 11 40
M  V30 44 1 12 41
M  V30 45 1 14 42
M  V30 46 1 15 43
M  V30 47 1 17 44
M  V30 48 1 17 45
M  V30 49 1 22 46
M  V30 50 1 22 47
M  V30 51 1 22 48
M  V30 52 1 26 49
M  V30 53 1 28 50
M  V30 54 1 29 51
M  V30 55 1 31 52
M  V30 56 1 32 53
M  V30 END BOND
M  V30 END CTAB
M  END
>  <Dataset>  (947) 
ChEMBL_Kinases

>  <Ligand_Instance>  (947) 
nan

>  <PDB_ID>  (947) 
nan

>  <Standardized_SMILES>  (947) 
CCOC(=O)C1=c2/c(=C/c3ccncc3)c(N)c(C(=O)OC)n2C(=O)C(c2ccncc2)S1

>  <Name>  (947) 
nan

>  <Pocket>  (947) 
nan

>  <ATP_Site>  (947) 
nan

>  <Peripheral>  (947) 
nan

>  <Num_H_Atoms_ProtBoundConf>  (947) 
nan

>  <Num_Resolved_Atoms>  (947) 
nan

>  <Num_Not_Resolved_Atoms>  (947) 
nan

$$$$
CHEMBL1998816
     RDKit          3D

  0  0  0  0  0  0  0  0  0  0999 V3000
M  V30 BEGIN CTAB
M  V30 COUNTS 49 51 0 0 0
M  V30 BEGIN ATOM
M  V30 1 C 2.595680 -3.680832 3.410059 0
M  V30 2 O 2.012284 -4.770086 2.755820 0
M  V30 3 C 1.771990 -4.819100 1.398433 0
M  V30 4 C 2.117576 -3.741445 0.608623 0
M  V30 5 C 1.867801 -3.811056 -0.751873 0
M  V30 6 C 2.196411 -2.726531 -1.665863 0
M  V30 7 N 1.981977 -2.748148 -2.938357 0
M  V30 8 N 2.293863 -1.721170 -3.799503 0
M  V30 9 C 1.613802 -0.486147 -3.319239 0
M  V30 10 N 0.941256 -0.174524 -2.479253 0
M  V30 11 C 0.415640 0.998324 -2.195404 0
M  V30 12 C -0.454078 1.292681 -1.065677 0
M  V30 13 C -0.839600 0.352248 -0.135637 0
M  V30 14 C -1.658280 0.570613 0.951614 0
M  V30 15 C -2.141574 1.851755 1.131725 0
M  V30 16 S -3.180190 2.127608 2.511494 0
M  V30 17 O -3.923695 0.865469 2.810589 0
M  V30 18 O -4.180632 3.193236 2.189681 0
M  V30 19 N -2.261491 2.581176 3.895643 0
M  V30 20 C -1.547399 3.813403 3.664568 0
M  V30 21 C -3.106794 2.718274 5.062339 0
M  V30 22 C -1.800815 2.843582 0.245309 0
M  V30 23 C -0.975213 2.544420 -0.819480 0
M  V30 24 C 0.770178 2.028223 -3.117028 0
M  V30 25 S 1.870607 1.098991 -4.323246 0
M  V30 26 C 1.285047 -4.959617 -1.240571 0
M  V30 27 C 0.928357 -6.052253 -0.478889 0
M  V30 28 C 1.192428 -5.949532 0.880034 0
M  V30 29 O 0.868539 -7.001230 1.733903 0
M  V30 30 H 3.598599 -3.425871 2.972550 0
M  V30 31 H 1.946408 -2.775689 3.418766 0
M  V30 32 H 2.754465 -3.953234 4.467476 0
M  V30 33 H 2.566632 -2.870616 1.023666 0
M  V30 34 H 2.655136 -1.827069 -1.267878 0
M  V30 35 H 2.880242 -1.676940 -4.660044 0
M  V30 36 H -0.470571 -0.675204 -0.253693 0
M  V30 37 H -1.907257 -0.217199 1.624723 0
M  V30 38 H -0.631141 3.807205 4.295321 0
M  V30 39 H -2.148080 4.674491 4.045859 0
M  V30 40 H -1.259329 3.952029 2.601097 0
M  V30 41 H -2.519469 2.855942 5.986282 0
M  V30 42 H -3.772673 1.813208 5.129849 0
M  V30 43 H -3.820990 3.573788 4.986756 0
M  V30 44 H -2.179264 3.848938 0.385426 0
M  V30 45 H -0.745025 3.363051 -1.477524 0
M  V30 46 H 0.450029 3.106942 -3.090217 0
M  V30 47 H 1.071068 -5.054659 -2.309388 0
M  V30 48 H 0.475620 -6.924778 -0.912211 0
M  V30 49 H 0.994821 -7.940120 1.358966 0
M  V30 END ATOM
M  V30 BEGIN BOND
M  V30 1 1 1 2
M  V30 2 1 2 3
M  V30 3 2 3 4
M  V30 4 1 4 5
M  V30 5 1 5 6
M  V30 6 2 6 7
M  V30 7 1 7 8
M  V30 8 1 8 9
M  V30 9 2 9 10
M  V30 10 1 10 11
M  V30 11 1 11 12
M  V30 12 2 12 13
M  V30 13 1 13 14
M  V30 14 2 14 15
M  V30 15 1 15 16
M  V30 16 2 16 17
M  V30 17 2 16 18
M  V30 18 1 16 19
M  V30 19 1 19 20
M  V30 20 1 19 21
M  V30 21 1 15 22
M  V30 22 2 22 23
M  V30 23 2 11 24
M  V30 24 1 24 25
M  V30 25 2 5 26
M  V30 26 1 26 27
M  V30 27 2 27 28
M  V30 28 1 28 29
M  V30 29 1 28 3
M  V30 30 1 25 9
M  V30 31 1 23 12
M  V30 32 1 1 30
M  V30 33 1 1 31
M  V30 34 1 1 32
M  V30 35 1 4 33
M  V30 36 1 6 34
M  V30 37 1 8 35
M  V30 38 1 13 36
M  V30 39 1 14 37
M  V30 40 1 20 38
M  V30 41 1 20 39
M  V30 42 1 20 40
M  V30 43 1 21 41
M  V30 44 1 21 42
M  V30 45 1 21 43
M  V30 46 1 22 44
M  V30 47 1 23 45
M  V30 48 1 24 46
M  V30 49 1 26 47
M  V30 50 1 27 48
M  V30 51 1 29 49
M  V30 END BOND
M  V30 END CTAB
M  END
>  <Dataset>  (948) 
ChEMBL_Kinases

>  <Ligand_Instance>  (948) 
nan

>  <PDB_ID>  (948) 
nan

>  <Standardized_SMILES>  (948) 
COc1cc(/C=N/Nc2nc(-c3ccc(S(=O)(=O)N(C)C)cc3)cs2)ccc1O

>  <Name>  (948) 
nan

>  <Pocket>  (948) 
nan

>  <ATP_Site>  (948) 
nan

>  <Peripheral>  (948) 
nan

>  <Num_H_Atoms_ProtBoundConf>  (948) 
nan

>  <Num_Resolved_Atoms>  (948) 
nan

>  <Num_Not_Resolved_Atoms>  (948) 
nan

$$$$
CHEMBL199918
     RDKit          3D

  0  0  0  0  0  0  0  0  0  0999 V3000
M  V30 BEGIN CTAB
M  V30 COUNTS 41 44 0 0 0
M  V30 BEGIN ATOM
M  V30 1 C 2.529710 -6.118419 -0.091628 0
M  V30 2 O 3.762709 -5.545327 0.304147 0
M  V30 3 C 3.741456 -4.181126 0.612500 0
M  V30 4 C 2.632719 -3.363355 0.560528 0
M  V30 5 C 2.829648 -2.041745 0.907514 0
M  V30 6 C 1.680919 -1.139245 0.860503 0
M  V30 7 C 0.710699 -1.395985 -0.111523 0
M  V30 8 C -0.387080 -0.566066 -0.171338 0
M  V30 9 C -0.523148 0.486967 0.702881 0
M  V30 10 C 0.438360 0.765456 1.688282 0
M  V30 11 C 1.539559 -0.068745 1.746219 0
M  V30 12 N 0.085348 1.894164 2.477641 0
M  V30 13 C -1.177135 2.424918 2.020768 0
M  V30 14 O -1.824264 3.409115 2.448247 0
M  V30 15 C -1.510870 1.525616 0.930249 0
M  V30 16 C -2.605485 1.700838 0.213080 0
M  V30 17 C -3.674508 2.676205 0.322628 0
M  V30 18 C -4.351883 2.926703 1.520409 0
M  V30 19 C -5.293156 3.906509 1.312630 0
M  V30 20 N -5.209913 4.266830 0.002865 0
M  V30 21 C -4.235291 3.527306 -0.596206 0
M  V30 22 C 4.030760 -1.474884 1.299043 0
M  V30 23 C 5.136856 -2.332328 1.341314 0
M  V30 24 C 4.954546 -3.655317 0.996494 0
M  V30 25 O 6.116940 -4.454698 1.065415 0
M  V30 26 H 2.585793 -7.226228 -0.032500 0
M  V30 27 H 2.248200 -5.765018 -1.091151 0
M  V30 28 H 1.710771 -5.845279 0.627577 0
M  V30 29 H 1.698298 -3.801457 0.257402 0
M  V30 30 H 0.728924 -2.185870 -0.830952 0
M  V30 31 H -1.184309 -0.724789 -0.917295 0
M  V30 32 H 2.318278 0.070708 2.465193 0
M  V30 33 H 0.629698 2.301905 3.270840 0
M  V30 34 H -2.852107 1.063234 -0.623295 0
M  V30 35 H -4.325173 2.544866 2.521675 0
M  V30 36 H -6.041320 4.421137 1.931320 0
M  V30 37 H -5.720647 4.962642 -0.594018 0
M  V30 38 H -3.908850 3.561126 -1.638528 0
M  V30 39 H 4.091893 -0.420280 1.557108 0
M  V30 40 H 6.088854 -1.918773 1.640573 0
M  V30 41 H 6.087035 -5.307362 1.648471 0
M  V30 END ATOM
M  V30 BEGIN BOND
M  V30 1 1 1 2
M  V30 2 1 2 3
M  V30 3 2 3 4
M  V30 4 1 4 5
M  V30 5 1 5 6
M  V30 6 2 6 7
M  V30 7 1 7 8
M  V30 8 2 8 9
M  V30 9 1 9 10
M  V30 10 2 10 11
M  V30 11 1 10 12
M  V30 12 1 12 13
M  V30 13 2 13 14
M  V30 14 1 13 15
M  V30 15 2 15 16
M  V30 16 1 16 17
M  V30 17 1 17 18
M  V30 18 2 18 19
M  V30 19 1 19 20
M  V30 20 1 20 21
M  V30 21 2 5 22
M  V30 22 1 22 23
M  V30 23 2 23 24
M  V30 24 1 24 25
M  V30 25 1 24 3
M  V30 26 1 11 6
M  V30 27 2 21 17
M  V30 28 1 15 9
M  V30 29 1 1 26
M  V30 30 1 1 27
M  V30 31 1 1 28
M  V30 32 1 4 29
M  V30 33 1 7 30
M  V30 34 1 8 31
M  V30 35 1 11 32
M  V30 36 1 12 33
M  V30 37 1 16 34
M  V30 38 1 18 35
M  V30 39 1 19 36
M  V30 40 1 20 37
M  V30 41 1 21 38
M  V30 42 1 22 39
M  V30 43 1 23 40
M  V30 44 1 25 41
M  V30 END BOND
M  V30 END CTAB
M  END
>  <Dataset>  (949) 
ChEMBL_Kinases

>  <Ligand_Instance>  (949) 
nan

>  <PDB_ID>  (949) 
nan

>  <Standardized_SMILES>  (949) 
COc1cc(-c2ccc3c(c2)NC(=O)/C3=C\c2cc[nH]c2)ccc1O

>  <Name>  (949) 
nan

>  <Pocket>  (949) 
nan

>  <ATP_Site>  (949) 
nan

>  <Peripheral>  (949) 
nan

>  <Num_H_Atoms_ProtBoundConf>  (949) 
nan

>  <Num_Resolved_Atoms>  (949) 
nan

>  <Num_Not_Resolved_Atoms>  (949) 
nan

$$$$
CHEMBL199936
     RDKit          3D

  0  0  0  0  0  0  0  0  0  0999 V3000
M  V30 BEGIN CTAB
M  V30 COUNTS 56 59 0 0 0
M  V30 BEGIN ATOM
M  V30 1 C 1.018499 1.401050 5.981293 0
M  V30 2 O 0.529894 0.733250 4.838230 0
M  V30 3 C 1.174460 0.837859 3.622658 0
M  V30 4 C 2.326569 1.629307 3.570319 0
M  V30 5 C 3.032346 1.789784 2.400119 0
M  V30 6 C 2.558010 1.133097 1.260842 0
M  V30 7 C 3.343071 1.330483 0.042694 0
M  V30 8 C 2.977248 2.500793 -0.793675 0
M  V30 9 C 1.581119 2.521040 -1.319256 0
M  V30 10 C 1.234213 1.344806 -2.203207 0
M  V30 11 C 1.344984 3.762101 -2.192277 0
M  V30 12 N 0.589417 2.560530 -0.251784 0
M  V30 13 C 1.429722 0.375881 1.375394 0
M  V30 14 C 0.686718 0.181943 2.519261 0
M  V30 15 C -0.495777 -0.646034 2.518000 0
M  V30 16 N -1.306599 -0.919078 3.552818 0
M  V30 17 N -2.313809 -1.717795 3.222659 0
M  V30 18 C -2.200255 -2.010809 1.913115 0
M  V30 19 N -2.939192 -2.770189 1.061072 0
M  V30 20 C -2.571483 -2.884263 -0.244848 0
M  V30 21 N -3.387743 -3.693775 -1.082890 0
M  V30 22 C -3.374543 -5.075562 -1.426663 0
M  V30 23 C -3.228602 -5.516529 -2.735457 0
M  V30 24 C -3.226624 -6.872507 -2.980319 0
M  V30 25 C -3.363272 -7.813532 -1.982619 0
M  V30 26 F -3.354095 -9.135087 -2.282841 0
M  V30 27 C -3.509947 -7.366383 -0.666551 0
M  V30 28 C -3.512501 -6.005682 -0.416041 0
M  V30 29 F -3.658113 -5.624049 0.880035 0
M  V30 30 C -1.440447 -2.206308 -0.643934 0
M  V30 31 N -0.704504 -1.454901 0.187443 0
M  V30 32 C -1.056570 -1.336376 1.470565 0
M  V30 33 H 0.249657 1.268606 6.792143 0
M  V30 34 H 1.936637 0.906724 6.375592 0
M  V30 35 H 1.126183 2.483558 5.837258 0
M  V30 36 H 2.659887 2.121296 4.478063 0
M  V30 37 H 3.908489 2.417322 2.450330 0
M  V30 38 H 4.430214 1.411712 0.323696 0
M  V30 39 H 3.254460 0.406017 -0.562630 0
M  V30 40 H 3.644587 2.452173 -1.705718 0
M  V30 41 H 3.232939 3.477385 -0.336740 0
M  V30 42 H 1.504865 1.598758 -3.249179 0
M  V30 43 H 1.687708 0.415250 -1.852259 0
M  V30 44 H 0.107191 1.262017 -2.191675 0
M  V30 45 H 0.480199 3.554692 -2.841860 0
M  V30 46 H 1.082626 4.644309 -1.574283 0
M  V30 47 H 2.246769 3.993757 -2.775094 0
M  V30 48 H 0.394235 3.573487 -0.052692 0
M  V30 49 H -0.295611 2.177810 -0.624858 0
M  V30 50 H 1.172991 -0.077971 0.428905 0
M  V30 51 H -1.271460 -0.612812 4.543177 0
M  V30 52 H -4.090931 -2.993289 -1.446781 0
M  V30 53 H -3.119803 -4.768632 -3.529923 0
M  V30 54 H -3.110251 -7.188432 -4.017926 0
M  V30 55 H -3.620262 -8.068799 0.148793 0
M  V30 56 H -1.170008 -2.313870 -1.687649 0
M  V30 END ATOM
M  V30 BEGIN BOND
M  V30 1 1 1 2
M  V30 2 1 2 3
M  V30 3 2 3 4
M  V30 4 1 4 5
M  V30 5 2 5 6
M  V30 6 1 6 7
M  V30 7 1 7 8
M  V30 8 1 8 9
M  V30 9 1 9 10
M  V30 10 1 9 11
M  V30 11 1 9 12
M  V30 12 1 6 13
M  V30 13 2 13 14
M  V30 14 1 14 15
M  V30 15 1 15 16
M  V30 16 1 16 17
M  V30 17 2 17 18
M  V30 18 1 18 19
M  V30 19 2 19 20
M  V30 20 1 20 21
M  V30 21 1 21 22
M  V30 22 2 22 23
M  V30 23 1 23 24
M  V30 24 2 24 25
M  V30 25 1 25 26
M  V30 26 1 25 27
M  V30 27 2 27 28
M  V30 28 1 28 29
M  V30 29 1 20 30
M  V30 30 2 30 31
M  V30 31 1 31 32
M  V30 32 1 14 3
M  V30 33 2 32 15
M  V30 34 1 32 18
M  V30 35 1 28 22
M  V30 36 1 1 33
M  V30 37 1 1 34
M  V30 38 1 1 35
M  V30 39 1 4 36
M  V30 40 1 5 37
M  V30 41 1 7 38
M  V30 42 1 7 39
M  V30 43 1 8 40
M  V30 44 1 8 41
M  V30 45 1 10 42
M  V30 46 1 10 43
M  V30 47 1 10 44
M  V30 48 1 11 45
M  V30 49 1 11 46
M  V30 50 1 11 47
M  V30 51 1 12 48
M  V30 52 1 12 49
M  V30 53 1 13 50
M  V30 54 1 16 51
M  V30 55 1 21 52
M  V30 56 1 23 53
M  V30 57 1 24 54
M  V30 58 1 27 55
M  V30 59 1 30 56
M  V30 END BOND
M  V30 END CTAB
M  END
>  <Dataset>  (950) 
ChEMBL_Kinases

>  <Ligand_Instance>  (950) 
nan

>  <PDB_ID>  (950) 
nan

>  <Standardized_SMILES>  (950) 
COc1ccc(CCC(C)(C)N)cc1-c1[nH]nc2nc(Nc3ccc(F)cc3F)cnc12

>  <Name>  (950) 
nan

>  <Pocket>  (950) 
nan

>  <ATP_Site>  (950) 
nan

>  <Peripheral>  (950) 
nan

>  <Num_H_Atoms_ProtBoundConf>  (950) 
nan

>  <Num_Resolved_Atoms>  (950) 
nan

>  <Num_Not_Resolved_Atoms>  (950) 
nan

$$$$
CHEMBL199937
     RDKit          3D

  0  0  0  0  0  0  0  0  0  0999 V3000
M  V30 BEGIN CTAB
M  V30 COUNTS 51 54 0 0 0
M  V30 BEGIN ATOM
M  V30 1 C 1.921206 -3.927938 0.167455 0
M  V30 2 O 1.264868 -2.692528 0.179289 0
M  V30 3 C 1.889967 -1.545963 0.608623 0
M  V30 4 C 3.175050 -1.636128 1.021432 0
M  V30 5 C 3.814059 -0.500513 1.440102 0
M  V30 6 C 3.138103 0.699246 1.431039 0
M  V30 7 C 3.806647 1.881468 1.873251 0
M  V30 8 C 4.359502 2.877121 2.263368 0
M  V30 9 C 5.028622 4.098193 2.766540 0
M  V30 10 C 5.032275 5.201855 1.751233 0
M  V30 11 C 6.442759 3.810393 3.179670 0
M  V30 12 O 4.317179 4.493652 3.891719 0
M  V30 13 C 1.834591 0.666202 0.991205 0
M  V30 14 C 1.097324 -0.439122 0.547111 0
M  V30 15 C -0.281233 -0.170428 0.247054 0
M  V30 16 N -0.722468 1.050652 -0.183440 0
M  V30 17 N -2.017021 1.064523 -0.347957 0
M  V30 18 C -2.565200 -0.123017 -0.047738 0
M  V30 19 N -3.803089 -0.647286 -0.014458 0
M  V30 20 C -4.039806 -1.911437 0.376626 0
M  V30 21 N -5.399077 -2.321085 0.351823 0
M  V30 22 C -5.854329 -3.389089 -0.467849 0
M  V30 23 C -4.976673 -4.107241 -1.255679 0
M  V30 24 C -5.231667 -5.170247 -2.096484 0
M  V30 25 C -6.572500 -5.558613 -2.142915 0
M  V30 26 F -6.879223 -6.598838 -2.953125 0
M  V30 27 C -7.516267 -4.884375 -1.378310 0
M  V30 28 C -7.178252 -3.828850 -0.560886 0
M  V30 29 F -8.099773 -3.160744 0.194433 0
M  V30 30 N -2.959445 -2.654467 0.744923 0
M  V30 31 C -1.722144 -2.139386 0.713475 0
M  V30 32 C -1.464896 -0.858067 0.316228 0
M  V30 33 H 2.757440 -3.953695 -0.587290 0
M  V30 34 H 1.189625 -4.714187 -0.181741 0
M  V30 35 H 2.368449 -4.215627 1.139795 0
M  V30 36 H 3.658655 -2.599325 1.009103 0
M  V30 37 H 4.826676 -0.566170 1.766456 0
M  V30 38 H 4.812840 4.820424 0.721307 0
M  V30 39 H 4.252028 5.957528 1.962867 0
M  V30 40 H 6.013861 5.712556 1.733655 0
M  V30 41 H 6.538705 3.618651 4.270756 0
M  V30 42 H 7.046478 4.718470 2.992261 0
M  V30 43 H 6.898246 2.994710 2.579782 0
M  V30 44 H 4.848099 5.212919 4.339827 0
M  V30 45 H 1.385975 1.675906 1.023776 0
M  V30 46 H -0.138199 1.918178 -0.379127 0
M  V30 47 H -6.140753 -1.855148 0.935746 0
M  V30 48 H -3.929079 -3.773881 -1.195945 0
M  V30 49 H -4.422211 -5.620802 -2.643598 0
M  V30 50 H -8.567691 -5.206513 -1.428998 0
M  V30 51 H -0.990535 -2.828644 1.058269 0
M  V30 END ATOM
M  V30 BEGIN BOND
M  V30 1 1 1 2
M  V30 2 1 2 3
M  V30 3 2 3 4
M  V30 4 1 4 5
M  V30 5 2 5 6
M  V30 6 1 6 7
M  V30 7 3 7 8
M  V30 8 1 8 9
M  V30 9 1 9 10
M  V30 10 1 9 11
M  V30 11 1 9 12
M  V30 12 1 6 13
M  V30 13 2 13 14
M  V30 14 1 14 15
M  V30 15 1 15 16
M  V30 16 1 16 17
M  V30 17 2 17 18
M  V30 18 1 18 19
M  V30 19 2 19 20
M  V30 20 1 20 21
M  V30 21 1 21 22
M  V30 22 2 22 23
M  V30 23 1 23 24
M  V30 24 2 24 25
M  V30 25 1 25 26
M  V30 26 1 25 27
M  V30 27 2 27 28
M  V30 28 1 28 29
M  V30 29 1 20 30
M  V30 30 2 30 31
M  V30 31 1 31 32
M  V30 32 1 14 3
M  V30 33 2 32 15
M  V30 34 1 32 18
M  V30 35 1 28 22
M  V30 36 1 1 33
M  V30 37 1 1 34
M  V30 38 1 1 35
M  V30 39 1 4 36
M  V30 40 1 5 37
M  V30 41 1 10 38
M  V30 42 1 10 39
M  V30 43 1 10 40
M  V30 44 1 11 41
M  V30 45 1 11 42
M  V30 46 1 11 43
M  V30 47 1 12 44
M  V30 48 1 13 45
M  V30 49 1 16 46
M  V30 50 1 21 47
M  V30 51 1 23 48
M  V30 52 1 24 49
M  V30 53 1 27 50
M  V30 54 1 31 51
M  V30 END BOND
M  V30 END CTAB
M  END
>  <Dataset>  (951) 
ChEMBL_Kinases

>  <Ligand_Instance>  (951) 
nan

>  <PDB_ID>  (951) 
nan

>  <Standardized_SMILES>  (951) 
COc1ccc(C#CC(C)(C)O)cc1-c1[nH]nc2nc(Nc3ccc(F)cc3F)ncc12

>  <Name>  (951) 
nan

>  <Pocket>  (951) 
nan

>  <ATP_Site>  (951) 
nan

>  <Peripheral>  (951) 
nan

>  <Num_H_Atoms_ProtBoundConf>  (951) 
nan

>  <Num_Resolved_Atoms>  (951) 
nan

>  <Num_Not_Resolved_Atoms>  (951) 
nan

$$$$
CHEMBL199950
     RDKit          3D

  0  0  0  0  0  0  0  0  0  0999 V3000
M  V30 BEGIN CTAB
M  V30 COUNTS 59 63 0 0 0
M  V30 BEGIN ATOM
M  V30 1 C 2.836066 -1.434295 5.338216 0
M  V30 2 O 3.844137 -1.596950 4.379890 0
M  V30 3 C 4.023866 -0.771751 3.292305 0
M  V30 4 C 3.105994 0.278902 3.196683 0
M  V30 5 C 3.285751 1.119734 2.092235 0
M  V30 6 C 4.305199 0.894577 1.187811 0
M  V30 7 C 5.190798 -0.173458 1.338429 0
M  V30 8 C 5.052301 -1.028016 2.411128 0
M  V30 9 O 5.889559 -2.105789 2.626136 0
M  V30 10 C 6.940035 -2.396910 1.756551 0
M  V30 11 O 4.554613 1.683047 0.061102 0
M  V30 12 C 3.555711 2.172934 -0.803820 0
M  V30 13 N 3.978753 2.388812 -2.068652 0
M  V30 14 C 3.080321 2.863511 -2.978674 0
M  V30 15 N 1.780816 3.132947 -2.687092 0
M  V30 16 C 1.323992 2.929320 -1.434744 0
M  V30 17 N -0.039214 3.188343 -1.042735 0
M  V30 18 C -1.072303 2.196247 -1.104464 0
M  V30 19 C -2.379770 2.373723 -0.761849 0
M  V30 20 N -3.244132 1.341094 -0.872215 0
M  V30 21 C -2.858828 0.129703 -1.312716 0
M  V30 22 N -3.711326 -1.000145 -1.453336 0
M  V30 23 C -3.868864 -1.899542 -0.356857 0
M  V30 24 O -3.229176 -1.637019 0.700595 0
M  V30 25 C -4.737903 -3.071629 -0.468190 0
M  V30 26 C -5.459476 -3.416263 -1.573435 0
M  V30 27 C -6.269928 -4.522076 -1.659431 0
M  V30 28 C -6.329057 -5.319901 -0.512970 0
M  V30 29 C -7.199243 -6.533312 -0.564655 0
M  V30 30 C -5.628752 -5.034205 0.638076 0
M  V30 31 C -4.838904 -3.899307 0.630069 0
M  V30 32 N -1.575322 -0.054029 -1.651852 0
M  V30 33 C -0.684822 0.949950 -1.555689 0
M  V30 34 C 2.217563 2.449130 -0.498671 0
M  V30 35 N 1.598471 2.279714 0.786357 0
M  V30 36 C 2.259003 2.189373 2.096983 0
M  V30 37 H 3.022941 -0.526208 5.979343 0
M  V30 38 H 2.820045 -2.296267 6.024347 0
M  V30 39 H 1.817602 -1.381663 4.877656 0
M  V30 40 H 2.332679 0.424942 3.909369 0
M  V30 41 H 5.972106 -0.318536 0.616077 0
M  V30 42 H 6.720573 -2.213333 0.679679 0
M  V30 43 H 7.884461 -1.839133 1.979076 0
M  V30 44 H 7.245655 -3.472094 1.794316 0
M  V30 45 H 3.441467 3.028142 -3.982678 0
M  V30 46 H -0.122101 4.166425 -0.729627 0
M  V30 47 H -2.668707 3.341022 -0.414446 0
M  V30 48 H -4.198934 -1.137659 -2.361045 0
M  V30 49 H -5.395745 -2.785657 -2.440765 0
M  V30 50 H -6.815350 -4.750901 -2.545314 0
M  V30 51 H -7.273047 -6.911587 -1.619680 0
M  V30 52 H -8.174800 -6.311206 -0.125361 0
M  V30 53 H -6.759822 -7.367775 0.016167 0
M  V30 54 H -5.712184 -5.690852 1.501784 0
M  V30 55 H -4.299150 -3.700008 1.551152 0
M  V30 56 H 0.351567 0.752534 -1.843702 0
M  V30 57 H 0.553830 2.215483 0.759367 0
M  V30 58 H 2.753084 3.131791 2.383410 0
M  V30 59 H 1.476772 1.961138 2.829903 0
M  V30 END ATOM
M  V30 BEGIN BOND
M  V30 1 1 1 2
M  V30 2 1 2 3
M  V30 3 2 3 4
M  V30 4 1 4 5
M  V30 5 2 5 6
M  V30 6 1 6 7
M  V30 7 2 7 8
M  V30 8 1 8 9
M  V30 9 1 9 10
M  V30 10 1 6 11
M  V30 11 1 11 12
M  V30 12 2 12 13
M  V30 13 1 13 14
M  V30 14 2 14 15
M  V30 15 1 15 16
M  V30 16 1 16 17
M  V30 17 1 17 18
M  V30 18 2 18 19
M  V30 19 1 19 20
M  V30 20 2 20 21
M  V30 21 1 21 22
M  V30 22 1 22 23
M  V30 23 2 23 24
M  V30 24 1 23 25
M  V30 25 2 25 26
M  V30 26 1 26 27
M  V30 27 2 27 28
M  V30 28 1 28 29
M  V30 29 1 28 30
M  V30 30 2 30 31
M  V30 31 1 21 32
M  V30 32 2 32 33
M  V30 33 2 16 34
M  V30 34 1 34 35
M  V30 35 1 35 36
M  V30 36 1 8 3
M  V30 37 1 34 12
M  V30 38 1 36 5
M  V30 39 1 33 18
M  V30 40 1 31 25
M  V30 41 1 1 37
M  V30 42 1 1 38
M  V30 43 1 1 39
M  V30 44 1 4 40
M  V30 45 1 7 41
M  V30 46 1 10 42
M  V30 47 1 10 43
M  V30 48 1 10 44
M  V30 49 1 14 45
M  V30 50 1 17 46
M  V30 51 1 19 47
M  V30 52 1 22 48
M  V30 53 1 26 49
M  V30 54 1 27 50
M  V30 55 1 29 51
M  V30 56 1 29 52
M  V30 57 1 29 53
M  V30 58 1 30 54
M  V30 59 1 31 55
M  V30 60 1 33 56
M  V30 61 1 35 57
M  V30 62 1 36 58
M  V30 63 1 36 59
M  V30 END BOND
M  V30 END CTAB
M  END
>  <Dataset>  (952) 
ChEMBL_Kinases

>  <Ligand_Instance>  (952) 
nan

>  <PDB_ID>  (952) 
nan

>  <Standardized_SMILES>  (952) 
COc1cc2c(cc1OC)Oc1ncnc(Nc3cnc(NC(=O)c4ccc(C)cc4)nc3)c1NC2

>  <Name>  (952) 
nan

>  <Pocket>  (952) 
nan

>  <ATP_Site>  (952) 
nan

>  <Peripheral>  (952) 
nan

>  <Num_H_Atoms_ProtBoundConf>  (952) 
nan

>  <Num_Resolved_Atoms>  (952) 
nan

>  <Num_Not_Resolved_Atoms>  (952) 
nan

$$$$
CHEMBL199973
     RDKit          3D

  0  0  0  0  0  0  0  0  0  0999 V3000
M  V30 BEGIN CTAB
M  V30 COUNTS 50 54 0 0 0
M  V30 BEGIN ATOM
M  V30 1 C 1.448084 -5.525265 1.403833 0
M  V30 2 O 2.622867 -5.863426 0.733431 0
M  V30 3 C 3.453755 -4.907067 0.155905 0
M  V30 4 C 3.021644 -3.594894 0.298712 0
M  V30 5 C 3.801125 -2.576305 -0.254426 0
M  V30 6 C 3.300811 -1.217703 -0.071870 0
M  V30 7 C 4.141321 -0.140973 0.034228 0
M  V30 8 C 3.707764 1.178236 0.213517 0
M  V30 9 C 2.350018 1.419369 0.289509 0
M  V30 10 C 1.512525 0.329168 0.181469 0
M  V30 11 C 1.938457 -0.971481 0.004578 0
M  V30 12 C 0.152395 0.840040 0.293987 0
M  V30 13 C -1.026937 0.277163 0.221328 0
M  V30 14 C -2.378186 0.789543 0.341129 0
M  V30 15 C -3.279386 0.575325 -0.708175 0
M  V30 16 N -4.490115 1.075584 -0.415357 0
M  V30 17 C -4.398420 1.613806 0.809581 0
M  V30 18 C -5.324850 2.257631 1.636310 0
M  V30 19 C -6.698069 2.409958 1.068436 0
M  V30 20 C -4.950076 2.702401 2.880828 0
M  V30 21 C -3.658930 2.514974 3.318164 0
M  V30 22 C -2.720429 1.886103 2.531495 0
M  V30 23 C -3.110269 1.450872 1.296942 0
M  V30 24 C 0.246815 2.277386 0.470770 0
M  V30 25 O -0.643271 3.146596 0.608348 0
M  V30 26 N 1.614104 2.623502 0.466693 0
M  V30 27 C 4.967856 -2.891500 -0.921776 0
M  V30 28 C 5.351296 -4.216119 -1.034340 0
M  V30 29 C 4.609536 -5.269071 -0.500611 0
M  V30 30 O 4.992125 -6.598432 -0.612210 0
M  V30 31 H 1.748456 -4.896627 2.289482 0
M  V30 32 H 0.751411 -4.882751 0.822116 0
M  V30 33 H 0.943688 -6.398911 1.831582 0
M  V30 34 H 2.106377 -3.354795 0.823487 0
M  V30 35 H 5.198860 -0.355960 -0.027941 0
M  V30 36 H 4.400158 2.006417 0.293641 0
M  V30 37 H 1.203099 -1.762869 -0.070112 0
M  V30 38 H -0.973572 -0.808170 0.033214 0
M  V30 39 H -3.116589 0.077560 -1.676734 0
M  V30 40 H -5.351673 1.062297 -1.005855 0
M  V30 41 H -7.352156 3.016224 1.730900 0
M  V30 42 H -7.183900 1.435990 0.922677 0
M  V30 43 H -6.637550 2.890997 0.063498 0
M  V30 44 H -5.721808 3.190694 3.461465 0
M  V30 45 H -3.370307 2.863092 4.290116 0
M  V30 46 H -1.688707 1.718282 2.839463 0
M  V30 47 H 2.039563 3.565793 0.570710 0
M  V30 48 H 5.540931 -2.080642 -1.333459 0
M  V30 49 H 6.254287 -4.469500 -1.550077 0
M  V30 50 H 5.557397 -7.053982 0.120667 0
M  V30 END ATOM
M  V30 BEGIN BOND
M  V30 1 1 1 2
M  V30 2 1 2 3
M  V30 3 2 3 4
M  V30 4 1 4 5
M  V30 5 1 5 6
M  V30 6 2 6 7
M  V30 7 1 7 8
M  V30 8 2 8 9
M  V30 9 1 9 10
M  V30 10 2 10 11
M  V30 11 1 10 12
M  V30 12 2 12 13
M  V30 13 1 13 14
M  V30 14 2 14 15
M  V30 15 1 15 16
M  V30 16 1 16 17
M  V30 17 2 17 18
M  V30 18 1 18 19
M  V30 19 1 18 20
M  V30 20 2 20 21
M  V30 21 1 21 22
M  V30 22 2 22 23
M  V30 23 1 12 24
M  V30 24 2 24 25
M  V30 25 1 24 26
M  V30 26 2 5 27
M  V30 27 1 27 28
M  V30 28 2 28 29
M  V30 29 1 29 30
M  V30 30 1 29 3
M  V30 31 1 11 6
M  V30 32 1 23 14
M  V30 33 1 26 9
M  V30 34 1 23 17
M  V30 35 1 1 31
M  V30 36 1 1 32
M  V30 37 1 1 33
M  V30 38 1 4 34
M  V30 39 1 7 35
M  V30 40 1 8 36
M  V30 41 1 11 37
M  V30 42 1 13 38
M  V30 43 1 15 39
M  V30 44 1 16 40
M  V30 45 1 19 41
M  V30 46 1 19 42
M  V30 47 1 19 43
M  V30 48 1 20 44
M  V30 49 1 21 45
M  V30 50 1 22 46
M  V30 51 1 26 47
M  V30 52 1 27 48
M  V30 53 1 28 49
M  V30 54 1 30 50
M  V30 END BOND
M  V30 END CTAB
M  END
>  <Dataset>  (953) 
ChEMBL_Kinases

>  <Ligand_Instance>  (953) 
nan

>  <PDB_ID>  (953) 
nan

>  <Standardized_SMILES>  (953) 
COc1cc(-c2ccc3c(c2)/C(=C/c2c[nH]c4c(C)cccc24)C(=O)N3)ccc1O

>  <Name>  (953) 
nan

>  <Pocket>  (953) 
nan

>  <ATP_Site>  (953) 
nan

>  <Peripheral>  (953) 
nan

>  <Num_H_Atoms_ProtBoundConf>  (953) 
nan

>  <Num_Resolved_Atoms>  (953) 
nan

>  <Num_Not_Resolved_Atoms>  (953) 
nan

$$$$
CHEMBL199974
     RDKit          3D

  0  0  0  0  0  0  0  0  0  0999 V3000
M  V30 BEGIN CTAB
M  V30 COUNTS 28 30 0 0 0
M  V30 BEGIN ATOM
M  V30 1 O -0.184291 -2.973615 3.370816 0
M  V30 2 C -0.155082 -1.838133 2.856715 0
M  V30 3 C 0.280381 -1.509728 1.503193 0
M  V30 4 C 0.722068 -2.313003 0.553714 0
M  V30 5 C 1.124859 -1.792320 -0.773514 0
M  V30 6 C 1.933536 -0.695682 -1.019732 0
M  V30 7 C 2.128739 -0.387195 -2.369935 0
M  V30 8 C 1.539838 -1.143807 -3.368395 0
M  V30 9 O 1.771694 -0.783942 -4.709667 0
M  V30 10 C 0.734121 -2.236112 -3.097744 0
M  V30 11 C 0.532430 -2.555222 -1.745323 0
M  V30 12 O 0.115501 -0.117069 1.436874 0
M  V30 13 C -0.375731 0.396341 2.620022 0
M  V30 14 C -0.639500 1.741849 2.839087 0
M  V30 15 C -1.134747 2.068613 4.099442 0
M  V30 16 C -1.327947 1.077152 5.027654 0
M  V30 17 C -1.066750 -0.279353 4.822116 0
M  V30 18 C -0.569036 -0.627499 3.558630 0
M  V30 19 H 0.762577 -3.353715 0.823628 0
M  V30 20 H 2.330678 -0.200763 -0.151249 0
M  V30 21 H 2.768421 0.483110 -2.541869 0
M  V30 22 H 1.488832 0.170142 -5.020191 0
M  V30 23 H 0.312897 -2.762693 -3.949754 0
M  V30 24 H -0.120080 -3.429132 -1.666535 0
M  V30 25 H -0.486132 2.518774 2.115402 0
M  V30 26 H -1.375160 3.093519 4.374632 0
M  V30 27 H -1.714315 1.300695 6.031612 0
M  V30 28 H -1.192198 -1.104198 5.482979 0
M  V30 END ATOM
M  V30 BEGIN BOND
M  V30 1 2 1 2
M  V30 2 1 2 3
M  V30 3 2 3 4
M  V30 4 1 4 5
M  V30 5 2 5 6
M  V30 6 1 6 7
M  V30 7 2 7 8
M  V30 8 1 8 9
M  V30 9 1 8 10
M  V30 10 2 10 11
M  V30 11 1 3 12
M  V30 12 1 12 13
M  V30 13 2 13 14
M  V30 14 1 14 15
M  V30 15 2 15 16
M  V30 16 1 16 17
M  V30 17 2 17 18
M  V30 18 1 18 2
M  V30 19 1 11 5
M  V30 20 1 18 13
M  V30 21 1 4 19
M  V30 22 1 6 20
M  V30 23 1 7 21
M  V30 24 1 9 22
M  V30 25 1 10 23
M  V30 26 1 11 24
M  V30 27 1 14 25
M  V30 28 1 15 26
M  V30 29 1 16 27
M  V30 30 1 17 28
M  V30 END BOND
M  V30 END CTAB
M  END
>  <Dataset>  (954) 
ChEMBL_Kinases

>  <Ligand_Instance>  (954) 
nan

>  <PDB_ID>  (954) 
nan

>  <Standardized_SMILES>  (954) 
O=C1/C(=C/c2ccc(O)cc2)Oc2ccccc21

>  <Name>  (954) 
nan

>  <Pocket>  (954) 
nan

>  <ATP_Site>  (954) 
nan

>  <Peripheral>  (954) 
nan

>  <Num_H_Atoms_ProtBoundConf>  (954) 
nan

>  <Num_Resolved_Atoms>  (954) 
nan

>  <Num_Not_Resolved_Atoms>  (954) 
nan

$$$$
CHEMBL199986
     RDKit          3D

  0  0  0  0  0  0  0  0  0  0999 V3000
M  V30 BEGIN CTAB
M  V30 COUNTS 52 55 0 0 0
M  V30 BEGIN ATOM
M  V30 1 C 1.148685 -0.035370 6.213754 0
M  V30 2 O 0.649999 -0.199708 4.925410 0
M  V30 3 C 1.024877 0.429569 3.767885 0
M  V30 4 C 2.052606 1.351130 3.979247 0
M  V30 5 C 2.554282 2.075184 2.924988 0
M  V30 6 C 2.034880 1.879082 1.681559 0
M  V30 7 C 2.559179 2.638969 0.585873 0
M  V30 8 C 3.014974 3.285728 -0.322697 0
M  V30 9 C 3.577999 4.075119 -1.398327 0
M  V30 10 N 2.621776 4.435279 -2.407582 0
M  V30 11 C 2.146394 3.319146 -3.186629 0
M  V30 12 C 1.545834 5.221800 -1.886183 0
M  V30 13 C 1.013618 0.946489 1.540662 0
M  V30 14 C 0.463926 0.192143 2.528614 0
M  V30 15 C -0.624706 -0.740452 2.414937 0
M  V30 16 N -1.298884 -1.155961 3.493991 0
M  V30 17 N -2.238884 -2.031468 3.185705 0
M  V30 18 C -2.240105 -2.252210 1.838925 0
M  V30 19 N -2.942864 -3.029535 0.971139 0
M  V30 20 C -2.669574 -3.027724 -0.345209 0
M  V30 21 N -3.532187 -3.911671 -1.047934 0
M  V30 22 C -3.187834 -5.292036 -1.113404 0
M  V30 23 C -2.059482 -5.777465 -0.485117 0
M  V30 24 C -1.640520 -7.088789 -0.475651 0
M  V30 25 C -2.418899 -7.993332 -1.154315 0
M  V30 26 F -2.012417 -9.288829 -1.149089 0
M  V30 27 C -3.567929 -7.589269 -1.812217 0
M  V30 28 C -3.914046 -6.262664 -1.771767 0
M  V30 29 F -5.048196 -5.860157 -2.420123 0
M  V30 30 N -1.672495 -2.225386 -0.765784 0
M  V30 31 C -0.964824 -1.448494 0.069487 0
M  V30 32 C -1.225631 -1.434432 1.400291 0
M  V30 33 H 2.064734 -0.653487 6.394791 0
M  V30 34 H 1.296698 1.041003 6.433553 0
M  V30 35 H 0.399341 -0.401948 6.970156 0
M  V30 36 H 2.510934 1.553970 4.930193 0
M  V30 37 H 3.354495 2.798618 3.071104 0
M  V30 38 H 4.386693 3.470600 -1.860044 0
M  V30 39 H 4.031964 5.029736 -1.019063 0
M  V30 40 H 3.009650 2.798497 -3.643660 0
M  V30 41 H 1.519083 3.764161 -4.008261 0
M  V30 42 H 1.558082 2.580808 -2.634218 0
M  V30 43 H 1.764165 5.663033 -0.913811 0
M  V30 44 H 0.601054 4.623290 -1.829153 0
M  V30 45 H 1.337183 6.042667 -2.619554 0
M  V30 46 H 0.680563 0.900906 0.531910 0
M  V30 47 H -1.364030 -1.038309 4.524396 0
M  V30 48 H -4.413369 -3.624920 -1.526745 0
M  V30 49 H -1.410422 -5.081946 0.067987 0
M  V30 50 H -0.745916 -7.408020 0.038433 0
M  V30 51 H -4.182499 -8.300149 -2.349381 0
M  V30 52 H -0.183613 -0.859743 -0.355386 0
M  V30 END ATOM
M  V30 BEGIN BOND
M  V30 1 1 1 2
M  V30 2 1 2 3
M  V30 3 2 3 4
M  V30 4 1 4 5
M  V30 5 2 5 6
M  V30 6 1 6 7
M  V30 7 3 7 8
M  V30 8 1 8 9
M  V30 9 1 9 10
M  V30 10 1 10 11
M  V30 11 1 10 12
M  V30 12 1 6 13
M  V30 13 2 13 14
M  V30 14 1 14 15
M  V30 15 1 15 16
M  V30 16 1 16 17
M  V30 17 2 17 18
M  V30 18 1 18 19
M  V30 19 2 19 20
M  V30 20 1 20 21
M  V30 21 1 21 22
M  V30 22 2 22 23
M  V30 23 1 23 24
M  V30 24 2 24 25
M  V30 25 1 25 26
M  V30 26 1 25 27
M  V30 27 2 27 28
M  V30 28 1 28 29
M  V30 29 1 20 30
M  V30 30 2 30 31
M  V30 31 1 31 32
M  V30 32 1 14 3
M  V30 33 2 32 15
M  V30 34 1 32 18
M  V30 35 1 28 22
M  V30 36 1 1 33
M  V30 37 1 1 34
M  V30 38 1 1 35
M  V30 39 1 4 36
M  V30 40 1 5 37
M  V30 41 1 9 38
M  V30 42 1 9 39
M  V30 43 1 11 40
M  V30 44 1 11 41
M  V30 45 1 11 42
M  V30 46 1 12 43
M  V30 47 1 12 44
M  V30 48 1 12 45
M  V30 49 1 13 46
M  V30 50 1 16 47
M  V30 51 1 21 48
M  V30 52 1 23 49
M  V30 53 1 24 50
M  V30 54 1 27 51
M  V30 55 1 31 52
M  V30 END BOND
M  V30 END CTAB
M  END
>  <Dataset>  (955) 
ChEMBL_Kinases

>  <Ligand_Instance>  (955) 
nan

>  <PDB_ID>  (955) 
nan

>  <Standardized_SMILES>  (955) 
COc1ccc(C#CCN(C)C)cc1-c1[nH]nc2nc(Nc3ccc(F)cc3F)ncc12

>  <Name>  (955) 
nan

>  <Pocket>  (955) 
nan

>  <ATP_Site>  (955) 
nan

>  <Peripheral>  (955) 
nan

>  <Num_H_Atoms_ProtBoundConf>  (955) 
nan

>  <Num_Resolved_Atoms>  (955) 
nan

>  <Num_Not_Resolved_Atoms>  (955) 
nan

$$$$
CHEMBL200247
     RDKit          3D

  0  0  0  0  0  0  0  0  0  0999 V3000
M  V30 BEGIN CTAB
M  V30 COUNTS 44 47 0 0 0
M  V30 BEGIN ATOM
M  V30 1 N 1.584407 -4.149191 3.937652 0
M  V30 2 C 1.857619 -3.524181 2.983937 0
M  V30 3 C 2.173855 -2.759689 1.836619 0
M  V30 4 C 3.395626 -2.892247 1.173324 0
M  V30 5 N 3.684511 -2.148524 0.072071 0
M  V30 6 C 2.785677 -1.265278 -0.398354 0
M  V30 7 C 3.055787 -0.495400 -1.523119 0
M  V30 8 N 2.192426 0.401391 -2.036448 0
M  V30 9 C 0.992936 0.597252 -1.463000 0
M  V30 10 N -0.099806 1.451354 -1.783663 0
M  V30 11 C 0.143425 2.799030 -1.264499 0
M  V30 12 C 0.395738 2.813168 0.194021 0
M  V30 13 C 1.760556 2.662961 0.444936 0
M  V30 14 C 2.279373 2.647235 1.741759 0
M  V30 15 C 1.363903 2.789740 2.782721 0
M  V30 16 C 0.015574 2.937668 2.532542 0
M  V30 17 C -0.485846 2.951450 1.241423 0
M  V30 18 C 0.694514 -0.153182 -0.342643 0
M  V30 19 C 1.566435 -1.080707 0.199986 0
M  V30 20 C 1.293896 -1.851862 1.324116 0
M  V30 21 N 0.029167 -1.665664 1.935459 0
M  V30 22 C -1.162944 -2.330362 1.547272 0
M  V30 23 C -2.372398 -2.202972 2.167406 0
M  V30 24 C -3.517412 -2.856585 1.762503 0
M  V30 25 C -3.434542 -3.700949 0.649368 0
M  V30 26 F -4.574970 -4.349453 0.249933 0
M  V30 27 C -2.241425 -3.846090 0.012788 0
M  V30 28 Cl -2.219539 -4.932658 -1.387536 0
M  V30 29 C -1.117707 -3.169676 0.454944 0
M  V30 30 H 4.139284 -3.599020 1.535032 0
M  V30 31 H 3.995037 -0.582173 -2.053094 0
M  V30 32 H -0.846661 0.937861 -2.321615 0
M  V30 33 H 0.893277 3.330872 -1.851255 0
M  V30 34 H -0.851639 3.329874 -1.385811 0
M  V30 35 H 2.568871 2.544718 -0.290243 0
M  V30 36 H 3.327112 2.534079 1.982593 0
M  V30 37 H 1.739819 2.782317 3.801900 0
M  V30 38 H -0.712901 3.049700 3.323157 0
M  V30 39 H -1.504693 3.058978 0.926439 0
M  V30 40 H -0.240035 -0.112074 0.240927 0
M  V30 41 H -0.012201 -0.983160 2.731004 0
M  V30 42 H -2.439274 -1.539927 3.044004 0
M  V30 43 H -4.458058 -2.719923 2.293368 0
M  V30 44 H -0.238887 -3.379523 -0.144335 0
M  V30 END ATOM
M  V30 BEGIN BOND
M  V30 1 3 1 2
M  V30 2 1 2 3
M  V30 3 2 3 4
M  V30 4 1 4 5
M  V30 5 2 5 6
M  V30 6 1 6 7
M  V30 7 2 7 8
M  V30 8 1 8 9
M  V30 9 1 9 10
M  V30 10 1 10 11
M  V30 11 1 11 12
M  V30 12 2 12 13
M  V30 13 1 13 14
M  V30 14 2 14 15
M  V30 15 1 15 16
M  V30 16 2 16 17
M  V30 17 2 9 18
M  V30 18 1 18 19
M  V30 19 2 19 20
M  V30 20 1 20 21
M  V30 21 1 21 22
M  V30 22 2 22 23
M  V30 23 1 23 24
M  V30 24 2 24 25
M  V30 25 1 25 26
M  V30 26 1 25 27
M  V30 27 1 27 28
M  V30 28 2 27 29
M  V30 29 1 20 3
M  V30 30 1 29 22
M  V30 31 1 19 6
M  V30 32 1 17 12
M  V30 33 1 4 30
M  V30 34 1 7 31
M  V30 35 1 10 32
M  V30 36 1 11 33
M  V30 37 1 11 34
M  V30 38 1 13 35
M  V30 39 1 14 36
M  V30 40 1 15 37
M  V30 41 1 16 38
M  V30 42 1 17 39
M  V30 43 1 18 40
M  V30 44 1 21 41
M  V30 45 1 23 42
M  V30 46 1 24 43
M  V30 47 1 29 44
M  V30 END BOND
M  V30 END CTAB
M  END
>  <Dataset>  (956) 
ChEMBL_Kinases

>  <Ligand_Instance>  (956) 
nan

>  <PDB_ID>  (956) 
nan

>  <Standardized_SMILES>  (956) 
N#Cc1cnc2cnc(NCc3ccccc3)cc2c1Nc1ccc(F)c(Cl)c1

>  <Name>  (956) 
nan

>  <Pocket>  (956) 
nan

>  <ATP_Site>  (956) 
nan

>  <Peripheral>  (956) 
nan

>  <Num_H_Atoms_ProtBoundConf>  (956) 
nan

>  <Num_Resolved_Atoms>  (956) 
nan

>  <Num_Not_Resolved_Atoms>  (956) 
nan

$$$$
CHEMBL200017
     RDKit          3D

  0  0  0  0  0  0  0  0  0  0999 V3000
M  V30 BEGIN CTAB
M  V30 COUNTS 59 63 0 0 0
M  V30 BEGIN ATOM
M  V30 1 C 3.447383 -1.909600 5.348537 0
M  V30 2 O 2.399745 -1.997797 4.423585 0
M  V30 3 C 2.373133 -1.205751 3.299865 0
M  V30 4 C 3.441401 -0.328112 3.155062 0
M  V30 5 C 3.543659 0.523615 2.081752 0
M  V30 6 C 2.547865 0.489403 1.134115 0
M  V30 7 C 2.676429 1.405068 -0.002935 0
M  V30 8 N 2.057368 2.688102 0.223266 0
M  V30 9 C 2.175811 3.591842 -0.879757 0
M  V30 10 C 1.542112 3.058817 -2.140138 0
M  V30 11 C 1.431680 4.236251 -3.113666 0
M  V30 12 O 2.575295 5.031465 -3.077818 0
M  V30 13 C 3.684052 4.273884 -2.711141 0
M  V30 14 C 3.567079 4.033032 -1.200528 0
M  V30 15 C 1.517093 -0.400065 1.331600 0
M  V30 16 C 1.343304 -1.276170 2.368388 0
M  V30 17 C 0.279213 -2.228577 2.521506 0
M  V30 18 N 0.393105 -3.239881 3.394076 0
M  V30 19 N -0.691378 -3.989755 3.414398 0
M  V30 20 C -1.616209 -3.515872 2.539203 0
M  V30 21 N -2.870260 -3.833943 2.136796 0
M  V30 22 C -3.545680 -3.119680 1.219672 0
M  V30 23 N -4.853386 -3.589787 0.908885 0
M  V30 24 C -5.268635 -4.520648 -0.087398 0
M  V30 25 C -5.926099 -5.691519 0.298513 0
M  V30 26 C -6.346673 -6.621750 -0.629259 0
M  V30 27 C -6.123158 -6.410611 -1.971968 0
M  V30 28 F -6.535186 -7.323323 -2.889624 0
M  V30 29 C -5.468800 -5.251436 -2.396023 0
M  V30 30 C -5.063599 -4.345549 -1.439452 0
M  V30 31 F -4.430620 -3.226502 -1.863920 0
M  V30 32 C -2.925436 -2.016621 0.671329 0
M  V30 33 C -1.652692 -1.691992 1.077679 0
M  V30 34 C -0.970918 -2.424725 2.010484 0
M  V30 35 H 3.466608 -0.852017 5.704477 0
M  V30 36 H 4.442658 -2.074467 4.875432 0
M  V30 37 H 3.368137 -2.620463 6.178637 0
M  V30 38 H 4.236190 -0.289554 3.896254 0
M  V30 39 H 4.395824 1.182072 2.024474 0
M  V30 40 H 2.103562 0.950301 -0.856521 0
M  V30 41 H 3.716448 1.497897 -0.363618 0
M  V30 42 H 2.412034 3.142579 1.081842 0
M  V30 43 H 1.576829 4.502618 -0.601773 0
M  V30 44 H 2.157264 2.293778 -2.623200 0
M  V30 45 H 0.514578 2.684509 -1.922863 0
M  V30 46 H 1.295094 3.844413 -4.131549 0
M  V30 47 H 0.537234 4.858527 -2.828133 0
M  V30 48 H 3.779669 3.342620 -3.281218 0
M  V30 49 H 4.570695 4.943050 -2.912474 0
M  V30 50 H 3.764797 5.032198 -0.720649 0
M  V30 51 H 4.366434 3.355987 -0.896918 0
M  V30 52 H 0.832603 -0.332715 0.507531 0
M  V30 53 H 1.032144 -3.680468 4.081839 0
M  V30 54 H -5.634710 -3.202822 1.490166 0
M  V30 55 H -6.098475 -5.851258 1.353669 0
M  V30 56 H -6.862327 -7.539891 -0.325436 0
M  V30 57 H -5.293099 -5.085798 -3.453488 0
M  V30 58 H -3.478525 -1.466421 -0.051290 0
M  V30 59 H -1.239798 -0.821427 0.629266 0
M  V30 END ATOM
M  V30 BEGIN BOND
M  V30 1 1 1 2
M  V30 2 1 2 3
M  V30 3 2 3 4
M  V30 4 1 4 5
M  V30 5 2 5 6
M  V30 6 1 6 7
M  V30 7 1 7 8
M  V30 8 1 8 9
M  V30 9 1 9 10
M  V30 10 1 10 11
M  V30 11 1 11 12
M  V30 12 1 12 13
M  V30 13 1 13 14
M  V30 14 1 6 15
M  V30 15 2 15 16
M  V30 16 1 16 17
M  V30 17 1 17 18
M  V30 18 1 18 19
M  V30 19 2 19 20
M  V30 20 1 20 21
M  V30 21 2 21 22
M  V30 22 1 22 23
M  V30 23 1 23 24
M  V30 24 2 24 25
M  V30 25 1 25 26
M  V30 26 2 26 27
M  V30 27 1 27 28
M  V30 28 1 27 29
M  V30 29 2 29 30
M  V30 30 1 30 31
M  V30 31 1 22 32
M  V30 32 2 32 33
M  V30 33 1 33 34
M  V30 34 1 16 3
M  V30 35 2 34 17
M  V30 36 1 14 9
M  V30 37 1 34 20
M  V30 38 1 30 24
M  V30 39 1 1 35
M  V30 40 1 1 36
M  V30 41 1 1 37
M  V30 42 1 4 38
M  V30 43 1 5 39
M  V30 44 1 7 40
M  V30 45 1 7 41
M  V30 46 1 8 42
M  V30 47 1 9 43
M  V30 48 1 10 44
M  V30 49 1 10 45
M  V30 50 1 11 46
M  V30 51 1 11 47
M  V30 52 1 13 48
M  V30 53 1 13 49
M  V30 54 1 14 50
M  V30 55 1 14 51
M  V30 56 1 15 52
M  V30 57 1 18 53
M  V30 58 1 23 54
M  V30 59 1 25 55
M  V30 60 1 26 56
M  V30 61 1 29 57
M  V30 62 1 32 58
M  V30 63 1 33 59
M  V30 END BOND
M  V30 END CTAB
M  END
>  <Dataset>  (957) 
ChEMBL_Kinases

>  <Ligand_Instance>  (957) 
nan

>  <PDB_ID>  (957) 
nan

>  <Standardized_SMILES>  (957) 
COc1ccc(CNC2CCOCC2)cc1-c1[nH]nc2nc(Nc3ccc(F)cc3F)ccc12

>  <Name>  (957) 
nan

>  <Pocket>  (957) 
nan

>  <ATP_Site>  (957) 
nan

>  <Peripheral>  (957) 
nan

>  <Num_H_Atoms_ProtBoundConf>  (957) 
nan

>  <Num_Resolved_Atoms>  (957) 
nan

>  <Num_Not_Resolved_Atoms>  (957) 
nan

$$$$
CHEMBL2000175
     RDKit          3D

  0  0  0  0  0  0  0  0  0  0999 V3000
M  V30 BEGIN CTAB
M  V30 COUNTS 35 37 0 0 0
M  V30 BEGIN ATOM
M  V30 1 C -0.622405 -0.925004 2.033776 0
M  V30 2 C -0.118542 -0.910091 0.647785 0
M  V30 3 C -1.051764 -1.267727 -0.473600 0
M  V30 4 N 1.018927 -0.073669 0.332656 0
M  V30 5 C 2.313688 -0.315572 0.460591 0
M  V30 6 C 2.752310 -1.560377 1.149316 0
M  V30 7 C 4.034435 -1.957069 1.388079 0
M  V30 8 C 4.141949 -3.149823 2.043882 0
M  V30 9 C 2.823661 -3.484298 2.205356 0
M  V30 10 O 2.109736 -2.559328 1.686335 0
M  V30 11 C 3.301046 0.553887 0.039777 0
M  V30 12 S 2.293585 1.918526 -0.631790 0
M  V30 13 C 0.767752 1.108914 -0.241457 0
M  V30 14 N -0.168167 1.919622 -0.541749 0
M  V30 15 C -1.489833 1.638350 -0.228600 0
M  V30 16 C -2.363333 1.510852 0.840915 0
M  V30 17 C -3.712696 1.296865 0.704943 0
M  V30 18 C -4.280278 1.196529 -0.543735 0
M  V30 19 N -3.524862 1.306007 -1.660398 0
M  V30 20 C -2.189251 1.517796 -1.471694 0
M  V30 21 H -0.310626 -1.763839 2.691774 0
M  V30 22 H -1.740188 -1.000740 2.107507 0
M  V30 23 H -0.268795 -0.034444 2.642261 0
M  V30 24 H 0.433801 -1.935834 0.650368 0
M  V30 25 H -2.123317 -1.108388 -0.254696 0
M  V30 26 H -0.704697 -0.883895 -1.453781 0
M  V30 27 H -1.083857 -2.388143 -0.707697 0
M  V30 28 H 4.940437 -1.400800 1.098936 0
M  V30 29 H 4.990482 -3.693414 2.356402 0
M  V30 30 H 2.380162 -4.371992 2.684701 0
M  V30 31 H 4.378019 0.473726 0.082448 0
M  V30 32 H -1.723087 1.638929 1.725324 0
M  V30 33 H -4.188468 1.230215 1.671675 0
M  V30 34 H -5.344597 1.028973 -0.507687 0
M  V30 35 H -1.777064 1.573802 -2.498633 0
M  V30 END ATOM
M  V30 BEGIN BOND
M  V30 1 1 1 2
M  V30 2 1 2 3
M  V30 3 1 2 4
M  V30 4 1 4 5
M  V30 5 1 5 6
M  V30 6 2 6 7
M  V30 7 1 7 8
M  V30 8 2 8 9
M  V30 9 1 9 10
M  V30 10 2 5 11
M  V30 11 1 11 12
M  V30 12 1 12 13
M  V30 13 2 13 14
M  V30 14 1 14 15
M  V30 15 2 15 16
M  V30 16 1 16 17
M  V30 17 2 17 18
M  V30 18 1 18 19
M  V30 19 2 19 20
M  V30 20 1 13 4
M  V30 21 1 20 15
M  V30 22 1 10 6
M  V30 23 1 1 21
M  V30 24 1 1 22
M  V30 25 1 1 23
M  V30 26 1 2 24
M  V30 27 1 3 25
M  V30 28 1 3 26
M  V30 29 1 3 27
M  V30 30 1 7 28
M  V30 31 1 8 29
M  V30 32 1 9 30
M  V30 33 1 11 31
M  V30 34 1 16 32
M  V30 35 1 17 33
M  V30 36 1 18 34
M  V30 37 1 20 35
M  V30 END BOND
M  V30 END CTAB
M  END
>  <Dataset>  (958) 
ChEMBL_Kinases

>  <Ligand_Instance>  (958) 
nan

>  <PDB_ID>  (958) 
nan

>  <Standardized_SMILES>  (958) 
CC(C)n1c(-c2ccco2)cs/c1=N/c1cccnc1

>  <Name>  (958) 
nan

>  <Pocket>  (958) 
nan

>  <ATP_Site>  (958) 
nan

>  <Peripheral>  (958) 
nan

>  <Num_H_Atoms_ProtBoundConf>  (958) 
nan

>  <Num_Resolved_Atoms>  (958) 
nan

>  <Num_Not_Resolved_Atoms>  (958) 
nan

$$$$
CHEMBL200018
     RDKit          3D

  0  0  0  0  0  0  0  0  0  0999 V3000
M  V30 BEGIN CTAB
M  V30 COUNTS 62 66 0 0 0
M  V30 BEGIN ATOM
M  V30 1 C 3.141528 -3.089195 4.995488 0
M  V30 2 C 3.626852 -1.923209 4.158745 0 CFG=2
M  V30 3 C 3.813808 -0.778215 5.120088 0
M  V30 4 O 4.686999 -0.982334 6.025728 0
M  V30 5 O 3.353145 0.499627 5.397483 0
M  V30 6 N 2.638461 -1.607685 3.203455 0
M  V30 7 C 1.355744 -1.239237 3.647512 0
M  V30 8 C 0.391576 -1.036890 2.508031 0
M  V30 9 C 1.026045 -0.305598 1.345260 0
M  V30 10 C -0.050629 -0.104877 0.335719 0
M  V30 11 C -0.389694 1.184793 -0.012782 0
M  V30 12 C -1.378988 1.497313 -0.945336 0
M  V30 13 C -1.711412 2.881383 -1.290548 0
M  V30 14 C -2.690522 3.521516 -0.559805 0
M  V30 15 C -3.064780 4.824919 -0.820071 0
M  V30 16 C -2.456460 5.523513 -1.832830 0
M  V30 17 F -2.782590 6.799532 -2.131116 0
M  V30 18 C -1.469704 4.853218 -2.556351 0
M  V30 19 C -1.077033 3.545051 -2.313490 0
M  V30 20 Cl 0.157053 2.775785 -3.252921 0
M  V30 21 C -2.056681 0.437840 -1.552829 0
M  V30 22 C -3.035740 0.682475 -2.474173 0
M  V30 23 C -3.704861 -0.385878 -3.073764 0
M  V30 24 C -3.298025 -1.656571 -2.662432 0
M  V30 25 O -3.924240 -2.590799 -3.225190 0
M  V30 26 N -2.340383 -1.902791 -1.761045 0
M  V30 27 C -2.022641 -3.251987 -1.431239 0
M  V30 28 C -2.496948 -4.034493 -0.390362 0
M  V30 29 Cl -3.642161 -3.214787 0.636739 0
M  V30 30 C -2.056888 -5.320760 -0.252217 0
M  V30 31 C -1.143635 -5.891898 -1.116606 0
M  V30 32 C -0.668077 -5.111926 -2.157723 0
M  V30 33 C -1.097292 -3.811356 -2.317700 0
M  V30 34 Cl -0.398299 -2.950501 -3.692014 0
M  V30 35 C -1.696986 -0.851688 -1.185037 0
M  V30 36 C -0.723093 -1.160224 -0.267081 0
M  V30 37 C 2.184205 -1.095627 0.844448 0
M  V30 38 C 2.815555 -2.010468 1.867327 0
M  V30 39 H 2.362505 -2.644131 5.679623 0
M  V30 40 H 3.956333 -3.425491 5.670680 0
M  V30 41 H 2.690511 -3.903731 4.415808 0
M  V30 42 H 4.596761 -2.177297 3.677011 0
M  V30 43 H 3.868682 1.288127 5.075520 0
M  V30 44 H 1.270149 -0.360249 4.299353 0
M  V30 45 H 0.946625 -2.097551 4.239084 0
M  V30 46 H 0.031907 -2.001481 2.101602 0
M  V30 47 H -0.477186 -0.457437 2.856695 0
M  V30 48 H 1.364911 0.711462 1.635811 0
M  V30 49 H 0.100158 2.067340 0.423032 0
M  V30 50 H -3.194509 3.020216 0.239741 0
M  V30 51 H -3.838747 5.338645 -0.246139 0
M  V30 52 H -0.996331 5.429523 -3.360692 0
M  V30 53 H -3.293724 1.712773 -2.741073 0
M  V30 54 H -4.474992 -0.223395 -3.797658 0
M  V30 55 H -2.460690 -5.872788 0.571353 0
M  V30 56 H -0.838856 -6.935066 -0.937685 0
M  V30 57 H 0.052803 -5.572411 -2.834823 0
M  V30 58 H -0.475872 -2.160034 -0.011564 0
M  V30 59 H 2.998634 -0.380789 0.534036 0
M  V30 60 H 1.983185 -1.707673 -0.058813 0
M  V30 61 H 2.322653 -3.010659 1.750839 0
M  V30 62 H 3.890698 -2.178112 1.690605 0
M  V30 END ATOM
M  V30 BEGIN BOND
M  V30 1 1 1 2
M  V30 2 1 2 3
M  V30 3 2 3 4
M  V30 4 1 3 5
M  V30 5 1 2 6
M  V30 6 1 6 7
M  V30 7 1 7 8
M  V30 8 1 8 9
M  V30 9 1 9 10
M  V30 10 2 10 11
M  V30 11 1 11 12
M  V30 12 1 12 13
M  V30 13 2 13 14
M  V30 14 1 14 15
M  V30 15 2 15 16
M  V30 16 1 16 17
M  V30 17 1 16 18
M  V30 18 2 18 19
M  V30 19 1 19 20
M  V30 20 2 12 21
M  V30 21 1 21 22
M  V30 22 2 22 23
M  V30 23 1 23 24
M  V30 24 2 24 25
M  V30 25 1 24 26
M  V30 26 1 26 27
M  V30 27 2 27 28
M  V30 28 1 28 29
M  V30 29 1 28 30
M  V30 30 2 30 31
M  V30 31 1 31 32
M  V30 32 2 32 33
M  V30 33 1 33 34
M  V30 34 1 26 35
M  V30 35 2 35 36
M  V30 36 1 9 37
M  V30 37 1 37 38
M  V30 38 1 38 6
M  V30 39 1 36 10
M  V30 40 1 19 13
M  V30 41 1 35 21
M  V30 42 1 33 27
M  V30 43 1 1 39
M  V30 44 1 1 40
M  V30 45 1 1 41
M  V30 46 1 2 42 CFG=3
M  V30 47 1 5 43
M  V30 48 1 7 44
M  V30 49 1 7 45
M  V30 50 1 8 46
M  V30 51 1 8 47
M  V30 52 1 9 48
M  V30 53 1 11 49
M  V30 54 1 14 50
M  V30 55 1 15 51
M  V30 56 1 18 52
M  V30 57 1 22 53
M  V30 58 1 23 54
M  V30 59 1 30 55
M  V30 60 1 31 56
M  V30 61 1 32 57
M  V30 62 1 36 58
M  V30 63 1 37 59
M  V30 64 1 37 60
M  V30 65 1 38 61
M  V30 66 1 38 62
M  V30 END BOND
M  V30 END CTAB
M  END
>  <Dataset>  (959) 
ChEMBL_Kinases

>  <Ligand_Instance>  (959) 
nan

>  <PDB_ID>  (959) 
nan

>  <Standardized_SMILES>  (959) 
C[C@H](C(=O)O)N1CCC(c2cc(-c3ccc(F)cc3Cl)c3ccc(=O)n(-c4c(Cl)cccc4Cl)c3c2)CC1

>  <Name>  (959) 
nan

>  <Pocket>  (959) 
nan

>  <ATP_Site>  (959) 
nan

>  <Peripheral>  (959) 
nan

>  <Num_H_Atoms_ProtBoundConf>  (959) 
nan

>  <Num_Resolved_Atoms>  (959) 
nan

>  <Num_Not_Resolved_Atoms>  (959) 
nan

$$$$
CHEMBL200040
     RDKit          3D

  0  0  0  0  0  0  0  0  0  0999 V3000
M  V30 BEGIN CTAB
M  V30 COUNTS 58 62 0 0 0
M  V30 BEGIN ATOM
M  V30 1 C 3.300422 -2.778119 5.524312 0
M  V30 2 O 2.400598 -2.544365 4.483262 0
M  V30 3 C 2.392966 -1.462725 3.620624 0
M  V30 4 C 3.411416 -0.572562 3.886299 0
M  V30 5 C 3.561730 0.567207 3.131034 0
M  V30 6 C 2.661843 0.777465 2.110466 0
M  V30 7 C 2.835117 1.984043 1.317052 0
M  V30 8 O 3.811806 2.739766 1.567618 0
M  V30 9 N 2.011055 2.440121 0.251938 0
M  V30 10 C 2.240585 3.632955 -0.484247 0
M  V30 11 C 1.141957 4.647586 -0.415166 0
M  V30 12 C -0.161843 4.084480 -0.923569 0
M  V30 13 O 0.008555 3.547041 -2.179357 0
M  V30 14 C 1.225907 3.776509 -2.769489 0
M  V30 15 C 2.392374 3.269713 -1.944809 0
M  V30 16 C 1.674232 -0.152620 1.904526 0
M  V30 17 C 1.456934 -1.306805 2.608129 0
M  V30 18 C 0.470261 -2.294277 2.376407 0
M  V30 19 N 0.551969 -3.505826 2.951512 0
M  V30 20 N -0.471722 -4.275000 2.632907 0
M  V30 21 C -1.327318 -3.619223 1.806292 0
M  V30 22 N -2.498444 -3.865834 1.178747 0
M  V30 23 C -3.114368 -2.953583 0.406860 0
M  V30 24 N -4.356703 -3.359483 -0.196356 0
M  V30 25 C -4.347569 -4.047878 -1.442287 0
M  V30 26 C -4.935472 -5.317438 -1.371762 0
M  V30 27 C -5.031336 -6.153539 -2.462035 0
M  V30 28 C -4.541570 -5.761908 -3.687745 0
M  V30 29 F -4.612176 -6.546956 -4.785681 0
M  V30 30 C -3.965716 -4.512515 -3.746669 0
M  V30 31 C -3.855732 -3.656567 -2.675266 0
M  V30 32 F -3.306787 -2.433160 -2.664746 0
M  V30 33 C -2.521591 -1.713714 0.251991 0
M  V30 34 C -1.329055 -1.470838 0.894144 0
M  V30 35 C -0.702951 -2.401935 1.678399 0
M  V30 36 H 4.312200 -3.078404 5.192935 0
M  V30 37 H 2.851715 -3.549841 6.186684 0
M  V30 38 H 3.459538 -1.893698 6.184552 0
M  V30 39 H 4.131562 -0.710540 4.678797 0
M  V30 40 H 4.360142 1.256351 3.345645 0
M  V30 41 H 1.186440 1.844265 0.010487 0
M  V30 42 H 3.186051 4.144529 -0.138728 0
M  V30 43 H 0.991354 5.132945 0.543700 0
M  V30 44 H 1.412114 5.461616 -1.146313 0
M  V30 45 H -0.830758 4.984056 -1.058580 0
M  V30 46 H -0.639310 3.384970 -0.206852 0
M  V30 47 H 1.358216 4.829811 -3.112386 0
M  V30 48 H 1.236233 3.166319 -3.709503 0
M  V30 49 H 3.321431 3.688190 -2.377143 0
M  V30 50 H 2.401363 2.168547 -2.060437 0
M  V30 51 H 1.075900 0.127732 1.083495 0
M  V30 52 H 1.140894 -4.094121 3.573083 0
M  V30 53 H -5.320626 -3.207332 0.180453 0
M  V30 54 H -5.356389 -5.723774 -0.445161 0
M  V30 55 H -5.488117 -7.130566 -2.389157 0
M  V30 56 H -3.547674 -4.102704 -4.663092 0
M  V30 57 H -3.036145 -1.002179 -0.370035 0
M  V30 58 H -0.930898 -0.494042 0.751482 0
M  V30 END ATOM
M  V30 BEGIN BOND
M  V30 1 1 1 2
M  V30 2 1 2 3
M  V30 3 2 3 4
M  V30 4 1 4 5
M  V30 5 2 5 6
M  V30 6 1 6 7
M  V30 7 2 7 8
M  V30 8 1 7 9
M  V30 9 1 9 10
M  V30 10 1 10 11
M  V30 11 1 11 12
M  V30 12 1 12 13
M  V30 13 1 13 14
M  V30 14 1 14 15
M  V30 15 1 6 16
M  V30 16 2 16 17
M  V30 17 1 17 18
M  V30 18 1 18 19
M  V30 19 1 19 20
M  V30 20 2 20 21
M  V30 21 1 21 22
M  V30 22 2 22 23
M  V30 23 1 23 24
M  V30 24 1 24 25
M  V30 25 2 25 26
M  V30 26 1 26 27
M  V30 27 2 27 28
M  V30 28 1 28 29
M  V30 29 1 28 30
M  V30 30 2 30 31
M  V30 31 1 31 32
M  V30 32 1 23 33
M  V30 33 2 33 34
M  V30 34 1 34 35
M  V30 35 1 17 3
M  V30 36 2 35 18
M  V30 37 1 15 10
M  V30 38 1 35 21
M  V30 39 1 31 25
M  V30 40 1 1 36
M  V30 41 1 1 37
M  V30 42 1 1 38
M  V30 43 1 4 39
M  V30 44 1 5 40
M  V30 45 1 9 41
M  V30 46 1 10 42
M  V30 47 1 11 43
M  V30 48 1 11 44
M  V30 49 1 12 45
M  V30 50 1 12 46
M  V30 51 1 14 47
M  V30 52 1 14 48
M  V30 53 1 15 49
M  V30 54 1 15 50
M  V30 55 1 16 51
M  V30 56 1 19 52
M  V30 57 1 24 53
M  V30 58 1 26 54
M  V30 59 1 27 55
M  V30 60 1 30 56
M  V30 61 1 33 57
M  V30 62 1 34 58
M  V30 END BOND
M  V30 END CTAB
M  END
>  <Dataset>  (960) 
ChEMBL_Kinases

>  <Ligand_Instance>  (960) 
nan

>  <PDB_ID>  (960) 
nan

>  <Standardized_SMILES>  (960) 
COc1ccc(C(=O)NC2CCOCC2)cc1-c1[nH]nc2nc(Nc3ccc(F)cc3F)ccc12

>  <Name>  (960) 
nan

>  <Pocket>  (960) 
nan

>  <ATP_Site>  (960) 
nan

>  <Peripheral>  (960) 
nan

>  <Num_H_Atoms_ProtBoundConf>  (960) 
nan

>  <Num_Resolved_Atoms>  (960) 
nan

>  <Num_Not_Resolved_Atoms>  (960) 
nan

$$$$
CHEMBL200047
     RDKit          3D

  0  0  0  0  0  0  0  0  0  0999 V3000
M  V30 BEGIN CTAB
M  V30 COUNTS 65 69 0 0 0
M  V30 BEGIN ATOM
M  V30 1 C 2.277491 1.563548 5.482244 0
M  V30 2 C 1.129993 0.650542 5.155296 0
M  V30 3 C 0.060691 0.898347 6.227709 0
M  V30 4 C 1.551035 -0.776416 5.297117 0
M  V30 5 O 2.097664 -1.265557 6.312076 0
M  V30 6 O 1.604375 -2.030742 4.660910 0
M  V30 7 N 0.526232 0.907012 3.860421 0
M  V30 8 C -0.530956 -0.017776 3.686464 0
M  V30 9 C -0.548045 -0.735987 2.353661 0
M  V30 10 C -0.379591 0.347982 1.325132 0
M  V30 11 C -0.750110 -0.051226 -0.027354 0
M  V30 12 C -1.725136 0.581284 -0.739195 0
M  V30 13 C -2.027314 0.155607 -2.011168 0
M  V30 14 C -3.084847 0.850150 -2.768970 0
M  V30 15 C -4.435420 0.563081 -2.798932 0
M  V30 16 C -5.244487 1.350848 -3.583600 0
M  V30 17 C -4.758817 2.411406 -4.337651 0
M  V30 18 F -5.575808 3.169382 -5.100044 0
M  V30 19 C -3.404962 2.681625 -4.293628 0
M  V30 20 C -2.560914 1.895596 -3.503596 0
M  V30 21 Cl -0.877674 2.369591 -3.559118 0
M  V30 22 C -1.370032 -0.917035 -2.624199 0
M  V30 23 C -1.684372 -1.334216 -3.903992 0
M  V30 24 C -1.003250 -2.398431 -4.459106 0
M  V30 25 C -0.024552 -3.013154 -3.710446 0
M  V30 26 O 0.618758 -3.999522 -4.203006 0
M  V30 27 N 0.281169 -2.597171 -2.448472 0
M  V30 28 C 1.301576 -3.245810 -1.681215 0
M  V30 29 C 2.651452 -3.086826 -1.731213 0
M  V30 30 Cl 3.205645 -1.916658 -2.908679 0
M  V30 31 C 3.449678 -3.839772 -0.873968 0
M  V30 32 C 2.887780 -4.721229 0.000493 0
M  V30 33 C 1.505528 -4.908145 0.076952 0
M  V30 34 C 0.722259 -4.143425 -0.791339 0
M  V30 35 Cl -0.999160 -4.463509 -0.604677 0
M  V30 36 C -0.385207 -1.545713 -1.887974 0
M  V30 37 C -0.085887 -1.111949 -0.607546 0
M  V30 38 C 1.048729 0.809666 1.446500 0
M  V30 39 C 1.513215 0.984223 2.835850 0
M  V30 40 H 2.927527 1.827408 4.652524 0
M  V30 41 H 1.905234 2.487637 6.000447 0
M  V30 42 H 2.928158 1.010684 6.218487 0
M  V30 43 H -0.392591 -0.078520 6.536845 0
M  V30 44 H 0.511676 1.340350 7.130600 0
M  V30 45 H -0.705398 1.586041 5.819443 0
M  V30 46 H 2.416198 -2.243104 4.064754 0
M  V30 47 H -0.626766 -0.763825 4.502938 0
M  V30 48 H -1.502961 0.554374 3.718346 0
M  V30 49 H -1.499341 -1.281741 2.267382 0
M  V30 50 H 0.334588 -1.381127 2.310457 0
M  V30 51 H -1.008584 1.208139 1.633516 0
M  V30 52 H -2.254630 1.407987 -0.308510 0
M  V30 53 H -4.717976 -0.263838 -2.192558 0
M  V30 54 H -6.300164 1.110008 -3.593824 0
M  V30 55 H -3.057346 3.516871 -4.894142 0
M  V30 56 H -2.457812 -0.807177 -4.425867 0
M  V30 57 H -1.241556 -2.741457 -5.474521 0
M  V30 58 H 4.517764 -3.655089 -0.975220 0
M  V30 59 H 3.600496 -5.261651 0.627776 0
M  V30 60 H 1.132050 -5.617867 0.787896 0
M  V30 61 H 0.684210 -1.656209 -0.120958 0
M  V30 62 H 1.203026 1.677186 0.771939 0
M  V30 63 H 1.659337 -0.014997 0.973650 0
M  V30 64 H 2.360554 0.328660 3.124711 0
M  V30 65 H 1.926511 2.033827 2.886943 0
M  V30 END ATOM
M  V30 BEGIN BOND
M  V30 1 1 1 2
M  V30 2 1 2 3
M  V30 3 1 2 4
M  V30 4 2 4 5
M  V30 5 1 4 6
M  V30 6 1 2 7
M  V30 7 1 7 8
M  V30 8 1 8 9
M  V30 9 1 9 10
M  V30 10 1 10 11
M  V30 11 2 11 12
M  V30 12 1 12 13
M  V30 13 1 13 14
M  V30 14 2 14 15
M  V30 15 1 15 16
M  V30 16 2 16 17
M  V30 17 1 17 18
M  V30 18 1 17 19
M  V30 19 2 19 20
M  V30 20 1 20 21
M  V30 21 2 13 22
M  V30 22 1 22 23
M  V30 23 2 23 24
M  V30 24 1 24 25
M  V30 25 2 25 26
M  V30 26 1 25 27
M  V30 27 1 27 28
M  V30 28 2 28 29
M  V30 29 1 29 30
M  V30 30 1 29 31
M  V30 31 2 31 32
M  V30 32 1 32 33
M  V30 33 2 33 34
M  V30 34 1 34 35
M  V30 35 1 27 36
M  V30 36 2 36 37
M  V30 37 1 10 38
M  V30 38 1 38 39
M  V30 39 1 39 7
M  V30 40 1 37 11
M  V30 41 1 20 14
M  V30 42 1 36 22
M  V30 43 1 34 28
M  V30 44 1 1 40
M  V30 45 1 1 41
M  V30 46 1 1 42
M  V30 47 1 3 43
M  V30 48 1 3 44
M  V30 49 1 3 45
M  V30 50 1 6 46
M  V30 51 1 8 47
M  V30 52 1 8 48
M  V30 53 1 9 49
M  V30 54 1 9 50
M  V30 55 1 10 51
M  V30 56 1 12 52
M  V30 57 1 15 53
M  V30 58 1 16 54
M  V30 59 1 19 55
M  V30 60 1 23 56
M  V30 61 1 24 57
M  V30 62 1 31 58
M  V30 63 1 32 59
M  V30 64 1 33 60
M  V30 65 1 37 61
M  V30 66 1 38 62
M  V30 67 1 38 63
M  V30 68 1 39 64
M  V30 69 1 39 65
M  V30 END BOND
M  V30 END CTAB
M  END
>  <Dataset>  (961) 
ChEMBL_Kinases

>  <Ligand_Instance>  (961) 
nan

>  <PDB_ID>  (961) 
nan

>  <Standardized_SMILES>  (961) 
CC(C)(C(=O)O)N1CCC(c2cc(-c3ccc(F)cc3Cl)c3ccc(=O)n(-c4c(Cl)cccc4Cl)c3c2)CC1

>  <Name>  (961) 
nan

>  <Pocket>  (961) 
nan

>  <ATP_Site>  (961) 
nan

>  <Peripheral>  (961) 
nan

>  <Num_H_Atoms_ProtBoundConf>  (961) 
nan

>  <Num_Resolved_Atoms>  (961) 
nan

>  <Num_Not_Resolved_Atoms>  (961) 
nan

$$$$
CHEMBL200093
     RDKit          3D

  0  0  0  0  0  0  0  0  0  0999 V3000
M  V30 BEGIN CTAB
M  V30 COUNTS 60 65 0 0 0
M  V30 BEGIN ATOM
M  V30 1 C 1.567588 -4.412194 1.781870 0
M  V30 2 N 2.660217 -3.589653 2.203003 0
M  V30 3 C 3.321752 -2.888295 1.142477 0
M  V30 4 C 4.243345 -1.959187 1.907120 0
M  V30 5 C 3.600483 -1.762074 3.258407 0
M  V30 6 C 2.305325 -2.539663 3.110015 0
M  V30 7 C 1.283979 -1.588393 2.531476 0
M  V30 8 C 1.747418 -1.012721 1.203918 0
M  V30 9 C 0.554764 -0.390949 0.567884 0
M  V30 10 C 0.500025 0.973946 0.393826 0
M  V30 11 C -0.575444 1.650923 -0.192382 0
M  V30 12 C -0.472142 3.112750 -0.301595 0
M  V30 13 C 0.060616 3.821956 -1.358747 0
M  V30 14 C 0.088198 5.199631 -1.316441 0
M  V30 15 C -0.410734 5.913594 -0.226680 0
M  V30 16 F -0.377449 7.271187 -0.197668 0
M  V30 17 C -0.940611 5.155532 0.820944 0
M  V30 18 C -0.979737 3.779596 0.802778 0
M  V30 19 Cl -1.678188 2.980699 2.198236 0
M  V30 20 C -1.658178 0.901535 -0.627436 0
M  V30 21 C -2.699960 1.596946 -1.199586 0
M  V30 22 C -3.773346 0.826661 -1.627923 0
M  V30 23 C -3.716656 -0.552575 -1.451381 0
M  V30 24 O -4.698057 -1.234099 -1.845486 0
M  V30 25 N -2.659500 -1.185399 -0.878685 0
M  V30 26 C -2.728702 -2.602596 -0.758076 0
M  V30 27 C -3.085077 -3.353244 0.348609 0
M  V30 28 Cl -3.499904 -2.412957 1.771443 0
M  V30 29 C -3.091901 -4.727345 0.268886 0
M  V30 30 C -2.744595 -5.351445 -0.910246 0
M  V30 31 C -2.384868 -4.640232 -2.030785 0
M  V30 32 C -2.379763 -3.248245 -1.944131 0
M  V30 33 Cl -1.907863 -2.411411 -3.421165 0
M  V30 34 C -1.615301 -0.466494 -0.458693 0
M  V30 35 C -0.543149 -1.097026 0.120901 0
M  V30 36 C 2.361476 -2.061621 0.321461 0
M  V30 37 H 0.742335 -3.892128 1.293521 0
M  V30 38 H 1.975198 -5.123707 1.022691 0
M  V30 39 H 1.255749 -5.048168 2.629226 0
M  V30 40 H 3.863008 -3.638346 0.542692 0
M  V30 41 H 5.181774 -2.547647 2.072308 0
M  V30 42 H 4.406974 -1.022762 1.363718 0
M  V30 43 H 3.341079 -0.704174 3.449673 0
M  V30 44 H 4.200988 -2.186279 4.095931 0
M  V30 45 H 1.932276 -2.888189 4.078732 0
M  V30 46 H 1.186297 -0.751572 3.257269 0
M  V30 47 H 0.278247 -2.056068 2.465756 0
M  V30 48 H 2.445626 -0.206197 1.449439 0
M  V30 49 H 1.354157 1.566103 0.736922 0
M  V30 50 H 0.432167 3.220981 -2.175301 0
M  V30 51 H 0.509085 5.738551 -2.153150 0
M  V30 52 H -1.319015 5.754080 1.651607 0
M  V30 53 H -2.683207 2.665799 -1.307464 0
M  V30 54 H -4.636994 1.283961 -2.089321 0
M  V30 55 H -3.380122 -5.249250 1.170236 0
M  V30 56 H -2.756814 -6.435684 -0.950860 0
M  V30 57 H -2.118684 -5.166687 -2.938045 0
M  V30 58 H -0.547748 -2.167493 0.234748 0
M  V30 59 H 1.620505 -2.660042 -0.203850 0
M  V30 60 H 2.999733 -1.527181 -0.437753 0
M  V30 END ATOM
M  V30 BEGIN BOND
M  V30 1 1 1 2
M  V30 2 1 2 3
M  V30 3 1 3 4
M  V30 4 1 4 5
M  V30 5 1 5 6
M  V30 6 1 6 7
M  V30 7 1 7 8
M  V30 8 1 8 9
M  V30 9 2 9 10
M  V30 10 1 10 11
M  V30 11 1 11 12
M  V30 12 2 12 13
M  V30 13 1 13 14
M  V30 14 2 14 15
M  V30 15 1 15 16
M  V30 16 1 15 17
M  V30 17 2 17 18
M  V30 18 1 18 19
M  V30 19 2 11 20
M  V30 20 1 20 21
M  V30 21 2 21 22
M  V30 22 1 22 23
M  V30 23 2 23 24
M  V30 24 1 23 25
M  V30 25 1 25 26
M  V30 26 2 26 27
M  V30 27 1 27 28
M  V30 28 1 27 29
M  V30 29 2 29 30
M  V30 30 1 30 31
M  V30 31 2 31 32
M  V30 32 1 32 33
M  V30 33 1 25 34
M  V30 34 2 34 35
M  V30 35 1 8 36
M  V30 36 1 6 2
M  V30 37 1 35 9
M  V30 38 1 36 3
M  V30 39 1 18 12
M  V30 40 1 34 20
M  V30 41 1 32 26
M  V30 42 1 1 37
M  V30 43 1 1 38
M  V30 44 1 1 39
M  V30 45 1 3 40
M  V30 46 1 4 41
M  V30 47 1 4 42
M  V30 48 1 5 43
M  V30 49 1 5 44
M  V30 50 1 6 45
M  V30 51 1 7 46
M  V30 52 1 7 47
M  V30 53 1 8 48
M  V30 54 1 10 49
M  V30 55 1 13 50
M  V30 56 1 14 51
M  V30 57 1 17 52
M  V30 58 1 21 53
M  V30 59 1 22 54
M  V30 60 1 29 55
M  V30 61 1 30 56
M  V30 62 1 31 57
M  V30 63 1 35 58
M  V30 64 1 36 59
M  V30 65 1 36 60
M  V30 END BOND
M  V30 END CTAB
M  END
>  <Dataset>  (962) 
ChEMBL_Kinases

>  <Ligand_Instance>  (962) 
nan

>  <PDB_ID>  (962) 
nan

>  <Standardized_SMILES>  (962) 
CN1C2CCC1CC(c1cc(-c3ccc(F)cc3Cl)c3ccc(=O)n(-c4c(Cl)cccc4Cl)c3c1)C2

>  <Name>  (962) 
nan

>  <Pocket>  (962) 
nan

>  <ATP_Site>  (962) 
nan

>  <Peripheral>  (962) 
nan

>  <Num_H_Atoms_ProtBoundConf>  (962) 
nan

>  <Num_Resolved_Atoms>  (962) 
nan

>  <Num_Not_Resolved_Atoms>  (962) 
nan

$$$$
CHEMBL200120
     RDKit          3D

  0  0  0  0  0  0  0  0  0  0999 V3000
M  V30 BEGIN CTAB
M  V30 COUNTS 57 60 0 0 0
M  V30 BEGIN ATOM
M  V30 1 C 1.395952 0.194373 5.605312 0
M  V30 2 O 0.848076 -0.104746 4.362920 0
M  V30 3 C 1.351871 0.220389 3.122187 0
M  V30 4 C 2.543865 0.925062 3.217738 0
M  V30 5 C 3.205596 1.339468 2.086248 0
M  V30 6 C 2.645059 1.031475 0.872945 0
M  V30 7 C 3.360401 1.478589 -0.347747 0
M  V30 8 C 2.942560 2.836032 -0.783874 0
M  V30 9 C 1.513442 3.027137 -1.126386 0
M  V30 10 C 0.996927 2.182966 -2.236551 0
M  V30 11 C 1.384983 4.481459 -1.607508 0
M  V30 12 N 0.623220 2.926418 0.004514 0
M  V30 13 C 1.468765 0.335144 0.852633 0
M  V30 14 C 0.750045 -0.112636 1.926654 0
M  V30 15 C -0.507971 -0.806955 1.924157 0
M  V30 16 N -1.239986 -0.915398 3.040442 0
M  V30 17 N -2.342656 -1.609472 2.839746 0
M  V30 18 C -2.407647 -2.014448 1.539576 0
M  V30 19 N -3.262664 -2.738220 0.769798 0
M  V30 20 C -3.032238 -2.985452 -0.525517 0
M  V30 21 N -3.964812 -3.752096 -1.289332 0
M  V30 22 C -3.674223 -5.145209 -1.252216 0
M  V30 23 C -3.401278 -5.843803 -2.410492 0
M  V30 24 C -3.112219 -7.192087 -2.446832 0
M  V30 25 C -3.089528 -7.903717 -1.264540 0
M  V30 26 F -2.819978 -9.225588 -1.172054 0
M  V30 27 C -3.356623 -7.247824 -0.076834 0
M  V30 28 C -3.641092 -5.894858 -0.092119 0
M  V30 29 F -3.900525 -5.274231 1.093611 0
M  V30 30 C -1.881810 -2.480351 -1.080739 0
M  V30 31 C -1.019650 -1.748131 -0.298098 0
M  V30 32 C -1.255185 -1.497562 1.012428 0
M  V30 33 H 1.388651 1.285448 5.826930 0
M  V30 34 H 0.868018 -0.316902 6.432497 0
M  V30 35 H 2.460998 -0.118717 5.617993 0
M  V30 36 H 3.014448 1.184977 4.152836 0
M  V30 37 H 4.132987 1.887361 2.156538 0
M  V30 38 H 4.444581 1.507546 -0.126381 0
M  V30 39 H 3.196283 0.685553 -1.100848 0
M  V30 40 H 3.588958 3.233072 -1.578653 0
M  V30 41 H 3.141539 3.514223 0.098975 0
M  V30 42 H 1.064879 2.717994 -3.229831 0
M  V30 43 H 1.435870 1.168506 -2.309310 0
M  V30 44 H -0.094186 2.042157 -2.090489 0
M  V30 45 H 0.430772 4.627183 -2.118599 0
M  V30 46 H 1.547439 5.145135 -0.731045 0
M  V30 47 H 2.229640 4.653204 -2.305194 0
M  V30 48 H 0.847582 3.538250 0.799236 0
M  V30 49 H -0.346765 3.003621 -0.345125 0
M  V30 50 H 1.134737 0.181031 -0.145677 0
M  V30 51 H -1.266068 -0.642322 4.039978 0
M  V30 52 H -4.777585 -3.394931 -1.828821 0
M  V30 53 H -3.411300 -5.313860 -3.354516 0
M  V30 54 H -2.901109 -7.719231 -3.368488 0
M  V30 55 H -3.346269 -7.778728 0.866032 0
M  V30 56 H -1.702424 -2.687313 -2.135711 0
M  V30 57 H -0.140339 -1.402736 -0.791302 0
M  V30 END ATOM
M  V30 BEGIN BOND
M  V30 1 1 1 2
M  V30 2 1 2 3
M  V30 3 2 3 4
M  V30 4 1 4 5
M  V30 5 2 5 6
M  V30 6 1 6 7
M  V30 7 1 7 8
M  V30 8 1 8 9
M  V30 9 1 9 10
M  V30 10 1 9 11
M  V30 11 1 9 12
M  V30 12 1 6 13
M  V30 13 2 13 14
M  V30 14 1 14 15
M  V30 15 1 15 16
M  V30 16 1 16 17
M  V30 17 2 17 18
M  V30 18 1 18 19
M  V30 19 2 19 20
M  V30 20 1 20 21
M  V30 21 1 21 22
M  V30 22 2 22 23
M  V30 23 1 23 24
M  V30 24 2 24 25
M  V30 25 1 25 26
M  V30 26 1 25 27
M  V30 27 2 27 28
M  V30 28 1 28 29
M  V30 29 1 20 30
M  V30 30 2 30 31
M  V30 31 1 31 32
M  V30 32 1 14 3
M  V30 33 2 32 15
M  V30 34 1 32 18
M  V30 35 1 28 22
M  V30 36 1 1 33
M  V30 37 1 1 34
M  V30 38 1 1 35
M  V30 39 1 4 36
M  V30 40 1 5 37
M  V30 41 1 7 38
M  V30 42 1 7 39
M  V30 43 1 8 40
M  V30 44 1 8 41
M  V30 45 1 10 42
M  V30 46 1 10 43
M  V30 47 1 10 44
M  V30 48 1 11 45
M  V30 49 1 11 46
M  V30 50 1 11 47
M  V30 51 1 12 48
M  V30 52 1 12 49
M  V30 53 1 13 50
M  V30 54 1 16 51
M  V30 55 1 21 52
M  V30 56 1 23 53
M  V30 57 1 24 54
M  V30 58 1 27 55
M  V30 59 1 30 56
M  V30 60 1 31 57
M  V30 END BOND
M  V30 END CTAB
M  END
>  <Dataset>  (963) 
ChEMBL_Kinases

>  <Ligand_Instance>  (963) 
nan

>  <PDB_ID>  (963) 
nan

>  <Standardized_SMILES>  (963) 
COc1ccc(CCC(C)(C)N)cc1-c1[nH]nc2nc(Nc3ccc(F)cc3F)ccc12

>  <Name>  (963) 
nan

>  <Pocket>  (963) 
nan

>  <ATP_Site>  (963) 
nan

>  <Peripheral>  (963) 
nan

>  <Num_H_Atoms_ProtBoundConf>  (963) 
nan

>  <Num_Resolved_Atoms>  (963) 
nan

>  <Num_Not_Resolved_Atoms>  (963) 
nan

$$$$
CHEMBL200191
     RDKit          3D

  0  0  0  0  0  0  0  0  0  0999 V3000
M  V30 BEGIN CTAB
M  V30 COUNTS 38 41 0 0 0
M  V30 BEGIN ATOM
M  V30 1 O 0.359357 -2.556296 2.621691 0
M  V30 2 C 1.467084 -2.576907 3.229609 0
M  V30 3 O 1.611606 -3.558261 4.182562 0
M  V30 4 C 2.583177 -1.638813 2.986156 0
M  V30 5 C 3.744632 -1.746964 3.700825 0
M  V30 6 C 4.767934 -0.858490 3.452281 0
M  V30 7 C 4.619151 0.120865 2.498828 0
M  V30 8 C 3.470162 0.270140 1.754081 0
M  V30 9 N 3.371679 1.298841 0.783359 0
M  V30 10 C 2.283389 1.608703 -0.072597 0
M  V30 11 N 2.368675 2.632869 -0.941345 0
M  V30 12 C 1.366278 2.962965 -1.769642 0
M  V30 13 C 0.183571 2.253961 -1.766449 0
M  V30 14 C 0.076366 1.202688 -0.885175 0
M  V30 15 C -1.158656 0.403241 -0.829109 0
M  V30 16 C -1.585290 -0.641819 -0.123435 0
M  V30 17 C -2.823694 -1.142090 -0.336201 0
M  V30 18 C -3.417075 -2.226575 0.315892 0
M  V30 19 C -4.694849 -2.582227 -0.046920 0
M  V30 20 C -5.472054 -1.970873 -1.006375 0
M  V30 21 C -4.890086 -0.901832 -1.650759 0
M  V30 22 C -3.594892 -0.536039 -1.287725 0
M  V30 23 S -2.510189 0.791396 -1.895102 0
M  V30 24 N 1.124133 0.972992 -0.122340 0
M  V30 25 C 2.481849 -0.641011 2.041492 0
M  V30 26 H 0.815572 -3.953172 4.690854 0
M  V30 27 H 3.854941 -2.519630 4.449293 0
M  V30 28 H 5.693592 -0.928066 4.007027 0
M  V30 29 H 5.457266 0.796786 2.341470 0
M  V30 30 H 4.229665 1.921249 0.684504 0
M  V30 31 H 1.504840 3.808084 -2.450210 0
M  V30 32 H -0.612391 2.533816 -2.439997 0
M  V30 33 H -0.851383 -1.005449 0.591855 0
M  V30 34 H -2.919909 -2.796805 1.089554 0
M  V30 35 H -5.155509 -3.439517 0.473038 0
M  V30 36 H -6.472214 -2.255633 -1.284671 0
M  V30 37 H -5.359774 -0.312189 -2.427119 0
M  V30 38 H 1.557768 -0.611074 1.522978 0
M  V30 END ATOM
M  V30 BEGIN BOND
M  V30 1 2 1 2
M  V30 2 1 2 3
M  V30 3 1 2 4
M  V30 4 2 4 5
M  V30 5 1 5 6
M  V30 6 2 6 7
M  V30 7 1 7 8
M  V30 8 1 8 9
M  V30 9 1 9 10
M  V30 10 2 10 11
M  V30 11 1 11 12
M  V30 12 2 12 13
M  V30 13 1 13 14
M  V30 14 1 14 15
M  V30 15 2 15 16
M  V30 16 1 16 17
M  V30 17 2 17 18
M  V30 18 1 18 19
M  V30 19 2 19 20
M  V30 20 1 20 21
M  V30 21 2 21 22
M  V30 22 1 22 23
M  V30 23 2 14 24
M  V30 24 2 8 25
M  V30 25 1 25 4
M  V30 26 1 24 10
M  V30 27 1 23 15
M  V30 28 1 22 17
M  V30 29 1 3 26
M  V30 30 1 5 27
M  V30 31 1 6 28
M  V30 32 1 7 29
M  V30 33 1 9 30
M  V30 34 1 12 31
M  V30 35 1 13 32
M  V30 36 1 16 33
M  V30 37 1 18 34
M  V30 38 1 19 35
M  V30 39 1 20 36
M  V30 40 1 21 37
M  V30 41 1 25 38
M  V30 END BOND
M  V30 END CTAB
M  END
>  <Dataset>  (964) 
ChEMBL_Kinases

>  <Ligand_Instance>  (964) 
nan

>  <PDB_ID>  (964) 
nan

>  <Standardized_SMILES>  (964) 
O=C(O)c1cccc(Nc2nccc(-c3cc4ccccc4s3)n2)c1

>  <Name>  (964) 
nan

>  <Pocket>  (964) 
nan

>  <ATP_Site>  (964) 
nan

>  <Peripheral>  (964) 
nan

>  <Num_H_Atoms_ProtBoundConf>  (964) 
nan

>  <Num_Resolved_Atoms>  (964) 
nan

>  <Num_Not_Resolved_Atoms>  (964) 
nan

$$$$
CHEMBL199993
     RDKit          3D

  0  0  0  0  0  0  0  0  0  0999 V3000
M  V30 BEGIN CTAB
M  V30 COUNTS 61 65 0 0 0
M  V30 BEGIN ATOM
M  V30 1 C 4.999538 -3.770987 3.624979 0
M  V30 2 O 3.719863 -3.393177 3.184403 0
M  V30 3 C 3.425058 -2.268078 2.440328 0
M  V30 4 C 4.550651 -1.516499 2.154344 0
M  V30 5 C 4.464271 -0.357220 1.419994 0
M  V30 6 C 3.214940 0.022343 0.983612 0
M  V30 7 C 3.113871 1.228923 0.216293 0
M  V30 8 C 3.034121 2.247270 -0.424906 0
M  V30 9 C 2.948516 3.489568 -1.214742 0
M  V30 10 N 1.915908 3.397988 -2.229914 0
M  V30 11 C 1.876112 4.622168 -2.960575 0
M  V30 12 C 0.500051 5.203698 -3.149820 0
M  V30 13 N -0.510860 4.222962 -3.382358 0
M  V30 14 C -0.659390 3.885818 -4.783798 0
M  V30 15 C -0.504845 3.099939 -2.499316 0
M  V30 16 C 0.681102 3.025829 -1.583064 0
M  V30 17 C 2.144100 -0.770399 1.304614 0
M  V30 18 C 2.151313 -1.931620 2.026615 0
M  V30 19 C 1.031662 -2.747196 2.410161 0
M  V30 20 N 1.143427 -3.666097 3.383401 0
M  V30 21 N 0.008633 -4.317012 3.547627 0
M  V30 22 C -0.927877 -3.872229 2.693702 0
M  V30 23 N -2.206303 -4.126982 2.380567 0
M  V30 24 C -2.907923 -3.499688 1.425877 0
M  V30 25 N -4.256875 -3.763912 1.090321 0
M  V30 26 C -5.126416 -4.714866 1.673664 0
M  V30 27 C -4.835042 -5.581952 2.699662 0
M  V30 28 C -5.691478 -6.502269 3.258305 0
M  V30 29 C -6.969188 -6.574059 2.751042 0
M  V30 30 F -7.881484 -7.448815 3.237001 0
M  V30 31 C -7.332017 -5.736865 1.723434 0
M  V30 32 C -6.419396 -4.842442 1.217032 0
M  V30 33 F -6.866195 -4.050021 0.197113 0
M  V30 34 N -2.231205 -2.552865 0.762326 0
M  V30 35 C -0.956287 -2.241992 1.017258 0
M  V30 36 C -0.262954 -2.894594 1.996491 0
M  V30 37 H 5.629584 -4.202906 2.820908 0
M  V30 38 H 4.902840 -4.563671 4.418087 0
M  V30 39 H 5.533907 -2.940557 4.151768 0
M  V30 40 H 5.549981 -1.780493 2.478284 0
M  V30 41 H 5.341624 0.229888 1.195664 0
M  V30 42 H 3.924394 3.591927 -1.738343 0
M  V30 43 H 2.781838 4.380607 -0.551227 0
M  V30 44 H 2.527956 5.401953 -2.471890 0
M  V30 45 H 2.302657 4.438708 -3.976663 0
M  V30 46 H 0.540156 5.852737 -4.071986 0
M  V30 47 H 0.205360 5.909992 -2.329938 0
M  V30 48 H -1.550769 3.253064 -4.921868 0
M  V30 49 H 0.225868 3.407648 -5.218585 0
M  V30 50 H -0.885006 4.834287 -5.326057 0
M  V30 51 H -1.407098 3.161924 -1.847689 0
M  V30 52 H -0.624321 2.154240 -3.103920 0
M  V30 53 H 0.793916 1.942356 -1.302647 0
M  V30 54 H 0.509082 3.563068 -0.625329 0
M  V30 55 H 1.234435 -0.350632 0.925996 0
M  V30 56 H 1.810063 -4.053654 4.070329 0
M  V30 57 H -4.666379 -3.189576 0.318279 0
M  V30 58 H -3.848954 -5.568342 3.134547 0
M  V30 59 H -5.389046 -7.150931 4.064421 0
M  V30 60 H -8.340345 -5.801356 1.330919 0
M  V30 61 H -0.506959 -1.485567 0.420694 0
M  V30 END ATOM
M  V30 BEGIN BOND
M  V30 1 1 1 2
M  V30 2 1 2 3
M  V30 3 2 3 4
M  V30 4 1 4 5
M  V30 5 2 5 6
M  V30 6 1 6 7
M  V30 7 3 7 8
M  V30 8 1 8 9
M  V30 9 1 9 10
M  V30 10 1 10 11
M  V30 11 1 11 12
M  V30 12 1 12 13
M  V30 13 1 13 14
M  V30 14 1 13 15
M  V30 15 1 15 16
M  V30 16 1 6 17
M  V30 17 2 17 18
M  V30 18 1 18 19
M  V30 19 1 19 20
M  V30 20 1 20 21
M  V30 21 2 21 22
M  V30 22 1 22 23
M  V30 23 2 23 24
M  V30 24 1 24 25
M  V30 25 1 25 26
M  V30 26 2 26 27
M  V30 27 1 27 28
M  V30 28 2 28 29
M  V30 29 1 29 30
M  V30 30 1 29 31
M  V30 31 2 31 32
M  V30 32 1 32 33
M  V30 33 1 24 34
M  V30 34 2 34 35
M  V30 35 1 35 36
M  V30 36 1 18 3
M  V30 37 2 36 19
M  V30 38 1 16 10
M  V30 39 1 36 22
M  V30 40 1 32 26
M  V30 41 1 1 37
M  V30 42 1 1 38
M  V30 43 1 1 39
M  V30 44 1 4 40
M  V30 45 1 5 41
M  V30 46 1 9 42
M  V30 47 1 9 43
M  V30 48 1 11 44
M  V30 49 1 11 45
M  V30 50 1 12 46
M  V30 51 1 12 47
M  V30 52 1 14 48
M  V30 53 1 14 49
M  V30 54 1 14 50
M  V30 55 1 15 51
M  V30 56 1 15 52
M  V30 57 1 16 53
M  V30 58 1 16 54
M  V30 59 1 17 55
M  V30 60 1 20 56
M  V30 61 1 25 57
M  V30 62 1 27 58
M  V30 63 1 28 59
M  V30 64 1 31 60
M  V30 65 1 35 61
M  V30 END BOND
M  V30 END CTAB
M  END
>  <Dataset>  (965) 
ChEMBL_Kinases

>  <Ligand_Instance>  (965) 
nan

>  <PDB_ID>  (965) 
nan

>  <Standardized_SMILES>  (965) 
COc1ccc(C#CCN2CCN(C)CC2)cc1-c1[nH]nc2nc(Nc3ccc(F)cc3F)ncc12

>  <Name>  (965) 
nan

>  <Pocket>  (965) 
nan

>  <ATP_Site>  (965) 
nan

>  <Peripheral>  (965) 
nan

>  <Num_H_Atoms_ProtBoundConf>  (965) 
nan

>  <Num_Resolved_Atoms>  (965) 
nan

>  <Num_Not_Resolved_Atoms>  (965) 
nan

$$$$
CHEMBL1772
     RDKit          3D

  0  0  0  0  0  0  0  0  0  0999 V3000
M  V30 BEGIN CTAB
M  V30 COUNTS 19 19 0 0 0
M  V30 BEGIN ATOM
M  V30 1 O 0.176607 -1.800747 2.747993 0
M  V30 2 C 0.217360 -0.666766 3.312404 0
M  V30 3 O -0.141181 -0.624744 4.652051 0
M  V30 4 C 0.619108 0.592299 2.633315 0
M  V30 5 C 0.959729 0.317166 1.211421 0
M  V30 6 C 2.218454 -0.014310 0.750577 0
M  V30 7 C 2.415936 -0.248601 -0.596749 0
M  V30 8 C 1.405765 -0.169825 -1.536609 0
M  V30 9 O 1.610324 -0.406568 -2.890709 0
M  V30 10 C 0.152975 0.163174 -1.056333 0
M  V30 11 C -0.075412 0.402936 0.283641 0
M  V30 12 H -0.884845 -1.199754 5.032423 0
M  V30 13 H 1.464166 1.091689 3.116052 0
M  V30 14 H -0.239425 1.308688 2.662804 0
M  V30 15 H 3.014771 -0.076846 1.488135 0
M  V30 16 H 3.414660 -0.509747 -0.949477 0
M  V30 17 H 1.198784 0.239990 -3.581279 0
M  V30 18 H -0.646250 0.229221 -1.773898 0
M  V30 19 H -1.083029 0.664372 0.625166 0
M  V30 END ATOM
M  V30 BEGIN BOND
M  V30 1 2 1 2
M  V30 2 1 2 3
M  V30 3 1 2 4
M  V30 4 1 4 5
M  V30 5 2 5 6
M  V30 6 1 6 7
M  V30 7 2 7 8
M  V30 8 1 8 9
M  V30 9 1 8 10
M  V30 10 2 10 11
M  V30 11 1 11 5
M  V30 12 1 3 12
M  V30 13 1 4 13
M  V30 14 1 4 14
M  V30 15 1 6 15
M  V30 16 1 7 16
M  V30 17 1 9 17
M  V30 18 1 10 18
M  V30 19 1 11 19
M  V30 END BOND
M  V30 END CTAB
M  END
>  <Dataset>  (966) 
ChEMBL_Kinases

>  <Ligand_Instance>  (966) 
nan

>  <PDB_ID>  (966) 
nan

>  <Standardized_SMILES>  (966) 
O=C(O)Cc1ccc(O)cc1

>  <Name>  (966) 
nan

>  <Pocket>  (966) 
nan

>  <ATP_Site>  (966) 
nan

>  <Peripheral>  (966) 
nan

>  <Num_H_Atoms_ProtBoundConf>  (966) 
nan

>  <Num_Resolved_Atoms>  (966) 
nan

>  <Num_Not_Resolved_Atoms>  (966) 
nan

$$$$
CHEMBL177057
     RDKit          3D

  0  0  0  0  0  0  0  0  0  0999 V3000
M  V30 BEGIN CTAB
M  V30 COUNTS 50 53 0 0 0
M  V30 BEGIN ATOM
M  V30 1 C 2.132999 -5.792002 3.310693 0
M  V30 2 C 2.487474 -5.482006 1.875346 0
M  V30 3 N 2.810789 -4.076060 1.671173 0
M  V30 4 C 4.041949 -3.544322 1.778928 0
M  V30 5 N 3.916358 -2.231325 1.516705 0
M  V30 6 C 2.629669 -1.912843 1.243526 0
M  V30 7 C 2.014124 -0.729633 0.923683 0
M  V30 8 N 2.806424 0.443633 0.836929 0
M  V30 9 C 2.422042 1.780991 0.565940 0
M  V30 10 C 3.350997 2.812577 0.399200 0
M  V30 11 C 2.977527 4.095251 0.146078 0
M  V30 12 C 1.656222 4.461119 0.037406 0
M  V30 13 C 0.686859 3.486552 0.192198 0
M  V30 14 Cl -0.985345 3.947522 0.056582 0
M  V30 15 C 1.119415 2.204559 0.447054 0
M  V30 16 N 0.692689 -0.790462 0.714267 0
M  V30 17 C -0.000479 -1.934072 0.808550 0
M  V30 18 N -1.401247 -1.981018 0.577111 0
M  V30 19 C -2.189504 -0.839160 0.213414 0 CFG=1
M  V30 20 C -1.758195 -0.253289 -1.106494 0
M  V30 21 C -2.624882 0.939586 -1.418711 0
M  V30 22 C -3.536003 1.335131 -0.279052 0 CFG=1
M  V30 23 O -4.360721 2.354026 -0.770511 0
M  V30 24 C -4.424395 0.145650 0.005784 0
M  V30 25 C -3.655793 -1.127741 0.155547 0
M  V30 26 N 0.633710 -3.078067 1.124683 0
M  V30 27 C 1.957466 -3.104835 1.350414 0
M  V30 28 H 2.883339 -5.449838 4.030941 0
M  V30 29 H 1.121976 -5.401418 3.580625 0
M  V30 30 H 2.068111 -6.906537 3.366156 0
M  V30 31 H 1.584562 -5.751775 1.259533 0
M  V30 32 H 3.316657 -6.153037 1.583295 0
M  V30 33 H 4.962576 -4.060792 2.027650 0
M  V30 34 H 3.849442 0.344466 0.992474 0
M  V30 35 H 4.412891 2.561641 0.478396 0
M  V30 36 H 3.775509 4.831180 0.031098 0
M  V30 37 H 1.443998 5.487323 -0.162382 0
M  V30 38 H 0.300190 1.508839 0.556688 0
M  V30 39 H -1.921714 -2.877297 0.666635 0
M  V30 40 H -2.043795 -0.037119 0.970425 0
M  V30 41 H -1.853485 -1.044161 -1.889311 0
M  V30 42 H -0.688056 0.024903 -1.036883 0
M  V30 43 H -1.990429 1.786417 -1.758984 0
M  V30 44 H -3.325150 0.621769 -2.245900 0
M  V30 45 H -3.021717 1.735898 0.600671 0
M  V30 46 H -5.324146 2.136051 -0.659749 0
M  V30 47 H -5.099795 0.323002 0.868064 0
M  V30 48 H -5.097593 0.048407 -0.895609 0
M  V30 49 H -3.947969 -1.645223 1.097996 0
M  V30 50 H -3.904026 -1.853902 -0.669007 0
M  V30 END ATOM
M  V30 BEGIN BOND
M  V30 1 1 1 2
M  V30 2 1 2 3
M  V30 3 1 3 4
M  V30 4 2 4 5
M  V30 5 1 5 6
M  V30 6 2 6 7
M  V30 7 1 7 8
M  V30 8 1 8 9
M  V30 9 2 9 10
M  V30 10 1 10 11
M  V30 11 2 11 12
M  V30 12 1 12 13
M  V30 13 1 13 14
M  V30 14 2 13 15
M  V30 15 1 7 16
M  V30 16 2 16 17
M  V30 17 1 17 18
M  V30 18 1 18 19
M  V30 19 1 19 20
M  V30 20 1 20 21
M  V30 21 1 21 22
M  V30 22 1 22 23
M  V30 23 1 22 24
M  V30 24 1 24 25
M  V30 25 1 17 26
M  V30 26 2 26 27
M  V30 27 1 27 3
M  V30 28 1 27 6
M  V30 29 1 15 9
M  V30 30 1 25 19
M  V30 31 1 1 28
M  V30 32 1 1 29
M  V30 33 1 1 30
M  V30 34 1 2 31
M  V30 35 1 2 32
M  V30 36 1 4 33
M  V30 37 1 8 34
M  V30 38 1 10 35
M  V30 39 1 11 36
M  V30 40 1 12 37
M  V30 41 1 15 38
M  V30 42 1 18 39
M  V30 43 1 19 40 CFG=1
M  V30 44 1 20 41
M  V30 45 1 20 42
M  V30 46 1 21 43
M  V30 47 1 21 44
M  V30 48 1 22 45 CFG=1
M  V30 49 1 23 46
M  V30 50 1 24 47
M  V30 51 1 24 48
M  V30 52 1 25 49
M  V30 53 1 25 50
M  V30 END BOND
M  V30 END CTAB
M  END
>  <Dataset>  (967) 
ChEMBL_Kinases

>  <Ligand_Instance>  (967) 
nan

>  <PDB_ID>  (967) 
nan

>  <Standardized_SMILES>  (967) 
CCn1cnc2c(Nc3cccc(Cl)c3)nc(N[C@H]3CC[C@@H](O)CC3)nc21

>  <Name>  (967) 
nan

>  <Pocket>  (967) 
nan

>  <ATP_Site>  (967) 
nan

>  <Peripheral>  (967) 
nan

>  <Num_H_Atoms_ProtBoundConf>  (967) 
nan

>  <Num_Resolved_Atoms>  (967) 
nan

>  <Num_Not_Resolved_Atoms>  (967) 
nan

$$$$
CHEMBL176857
     RDKit          3D

  0  0  0  0  0  0  0  0  0  0999 V3000
M  V30 BEGIN CTAB
M  V30 COUNTS 42 45 0 0 0
M  V30 BEGIN ATOM
M  V30 1 C 1.172711 -2.437940 -3.711774 0
M  V30 2 O 1.496685 -2.141836 -2.363248 0
M  V30 3 C 2.572283 -1.302847 -2.081619 0
M  V30 4 C 3.355632 -0.731437 -3.060310 0
M  V30 5 C 4.381191 0.075443 -2.620530 0
M  V30 6 C 4.714469 0.376979 -1.321720 0
M  V30 7 C 3.908347 -0.211941 -0.340528 0
M  V30 8 C 2.858781 -1.035930 -0.738397 0
M  V30 9 C 2.005532 -1.667718 0.291855 0
M  V30 10 C 0.879776 -1.006890 0.713081 0
M  V30 11 C -0.006319 -1.462841 1.656866 0
M  V30 12 C -1.201314 -0.841606 2.195196 0
M  V30 13 C -1.390815 0.357482 2.708520 0
M  V30 14 C -0.365640 1.359050 2.850884 0
M  V30 15 O 0.823481 1.211145 2.532498 0
M  V30 16 N -0.974524 2.497765 3.407927 0
M  V30 17 C -2.373083 2.198996 3.610204 0
M  V30 18 N -3.369800 2.967322 4.115464 0
M  V30 19 C -4.643902 2.505599 4.227370 0
M  V30 20 C -4.880980 1.208927 3.800512 0
M  V30 21 Br -6.676873 0.562696 3.959369 0
M  V30 22 C -3.913679 0.375747 3.277849 0
M  V30 23 C -2.643817 0.911750 3.194163 0
M  V30 24 C 0.312000 -2.711530 2.201917 0
M  V30 25 C 1.434760 -3.403728 1.802262 0
M  V30 26 Br 1.947847 -5.112055 2.489820 0
M  V30 27 C 2.294120 -2.898731 0.848754 0
M  V30 28 O 3.453824 -3.535511 0.387740 0
M  V30 29 H 0.912384 -1.497759 -4.270324 0
M  V30 30 H 0.290635 -3.102888 -3.763423 0
M  V30 31 H 2.026357 -2.949214 -4.167704 0
M  V30 32 H 3.156020 -0.921793 -4.103410 0
M  V30 33 H 5.021460 0.544245 -3.384269 0
M  V30 34 H 5.546149 1.026838 -1.092987 0
M  V30 35 H 4.118082 -0.013712 0.699635 0
M  V30 36 H 0.654373 -0.060737 0.250928 0
M  V30 37 H -2.082740 -1.482232 2.164855 0
M  V30 38 H -0.441297 3.360690 3.607363 0
M  V30 39 H -5.464872 3.110101 4.633384 0
M  V30 40 H -4.143656 -0.640409 2.952444 0
M  V30 41 H -0.260714 -3.237143 2.956952 0
M  V30 42 H 3.362020 -4.034890 -0.485853 0
M  V30 END ATOM
M  V30 BEGIN BOND
M  V30 1 1 1 2
M  V30 2 1 2 3
M  V30 3 2 3 4
M  V30 4 1 4 5
M  V30 5 2 5 6
M  V30 6 1 6 7
M  V30 7 2 7 8
M  V30 8 1 8 9
M  V30 9 2 9 10
M  V30 10 1 10 11
M  V30 11 1 11 12
M  V30 12 2 12 13
M  V30 13 1 13 14
M  V30 14 2 14 15
M  V30 15 1 14 16
M  V30 16 1 16 17
M  V30 17 2 17 18
M  V30 18 1 18 19
M  V30 19 2 19 20
M  V30 20 1 20 21
M  V30 21 1 20 22
M  V30 22 2 22 23
M  V30 23 2 11 24
M  V30 24 1 24 25
M  V30 25 1 25 26
M  V30 26 2 25 27
M  V30 27 1 27 28
M  V30 28 1 8 3
M  V30 29 1 27 9
M  V30 30 1 23 13
M  V30 31 1 23 17
M  V30 32 1 1 29
M  V30 33 1 1 30
M  V30 34 1 1 31
M  V30 35 1 4 32
M  V30 36 1 5 33
M  V30 37 1 6 34
M  V30 38 1 7 35
M  V30 39 1 10 36
M  V30 40 1 12 37
M  V30 41 1 16 38
M  V30 42 1 19 39
M  V30 43 1 22 40
M  V30 44 1 24 41
M  V30 45 1 28 42
M  V30 END BOND
M  V30 END CTAB
M  END
>  <Dataset>  (968) 
ChEMBL_Kinases

>  <Ligand_Instance>  (968) 
nan

>  <PDB_ID>  (968) 
nan

>  <Standardized_SMILES>  (968) 
COc1ccccc1-c1cc(/C=C2\C(=O)Nc3ncc(Br)cc32)cc(Br)c1O

>  <Name>  (968) 
GW442130X

>  <Pocket>  (968) 
nan

>  <ATP_Site>  (968) 
nan

>  <Peripheral>  (968) 
nan

>  <Num_H_Atoms_ProtBoundConf>  (968) 
nan

>  <Num_Resolved_Atoms>  (968) 
nan

>  <Num_Not_Resolved_Atoms>  (968) 
nan

$$$$
CHEMBL1767078
     RDKit          3D

  0  0  0  0  0  0  0  0  0  0999 V3000
M  V30 BEGIN CTAB
M  V30 COUNTS 39 42 0 0 0
M  V30 BEGIN ATOM
M  V30 1 C 1.147198 -2.193982 3.447770 0
M  V30 2 C 0.769950 -0.884978 4.048762 0
M  V30 3 N -0.185747 -0.089900 3.257839 0
M  V30 4 C 0.133937 0.189490 1.918006 0
M  V30 5 C -0.121559 -0.335748 0.689897 0
M  V30 6 C 0.461105 0.156393 -0.444514 0
M  V30 7 C 0.161138 -0.419567 -1.656763 0
M  V30 8 C 0.720843 0.039075 -2.836753 0
M  V30 9 C 1.597685 1.099451 -2.777840 0
M  V30 10 C 1.881568 1.658198 -1.558155 0
M  V30 11 C 1.336919 1.218534 -0.373188 0
M  V30 12 N 1.596463 1.749070 0.833717 0
M  V30 13 C 2.530961 2.859245 0.763877 0
M  V30 14 C 1.025915 1.272234 1.981307 0
M  V30 15 O 1.443837 1.952203 2.961571 0
M  V30 16 C -0.765355 -1.537164 -1.782532 0
M  V30 17 O -1.042634 -2.062501 -2.871909 0
M  V30 18 C -1.360250 -2.009849 -0.513715 0
M  V30 19 C -2.255142 -3.052521 -0.617013 0
M  V30 20 C -2.830451 -3.488997 0.542857 0
M  V30 21 C -2.568860 -2.949743 1.800126 0
M  V30 22 C -1.662957 -1.920086 1.774907 0
M  V30 23 C -1.048428 -1.430304 0.670720 0
M  V30 24 H 0.449738 -3.025253 3.743845 0
M  V30 25 H 2.137063 -2.488698 3.849926 0
M  V30 26 H 1.218421 -2.137810 2.333982 0
M  V30 27 H 1.708368 -0.311508 4.212385 0
M  V30 28 H 0.382868 -1.056643 5.093704 0
M  V30 29 H -1.048460 0.247515 3.797484 0
M  V30 30 H 0.485120 -0.411201 -3.774369 0
M  V30 31 H 2.042755 1.468560 -3.690427 0
M  V30 32 H 2.567617 2.485805 -1.524476 0
M  V30 33 H 3.501519 2.577291 0.309722 0
M  V30 34 H 2.723149 3.295326 1.749799 0
M  V30 35 H 2.134537 3.705515 0.130909 0
M  V30 36 H -2.476636 -3.487212 -1.568261 0
M  V30 37 H -3.530106 -4.310627 0.434072 0
M  V30 38 H -3.106249 -3.407778 2.613621 0
M  V30 39 H -1.568875 -1.602642 2.775222 0
M  V30 END ATOM
M  V30 BEGIN BOND
M  V30 1 1 1 2
M  V30 2 1 2 3
M  V30 3 1 3 4
M  V30 4 2 4 5
M  V30 5 1 5 6
M  V30 6 2 6 7
M  V30 7 1 7 8
M  V30 8 2 8 9
M  V30 9 1 9 10
M  V30 10 2 10 11
M  V30 11 1 11 12
M  V30 12 1 12 13
M  V30 13 1 12 14
M  V30 14 2 14 15
M  V30 15 1 7 16
M  V30 16 2 16 17
M  V30 17 1 16 18
M  V30 18 2 18 19
M  V30 19 1 19 20
M  V30 20 2 20 21
M  V30 21 1 21 22
M  V30 22 2 22 23
M  V30 23 1 14 4
M  V30 24 1 23 18
M  V30 25 1 23 5
M  V30 26 1 11 6
M  V30 27 1 1 24
M  V30 28 1 1 25
M  V30 29 1 1 26
M  V30 30 1 2 27
M  V30 31 1 2 28
M  V30 32 1 3 29
M  V30 33 1 8 30
M  V30 34 1 9 31
M  V30 35 1 10 32
M  V30 36 1 13 33
M  V30 37 1 13 34
M  V30 38 1 13 35
M  V30 39 1 19 36
M  V30 40 1 20 37
M  V30 41 1 21 38
M  V30 42 1 22 39
M  V30 END BOND
M  V30 END CTAB
M  END
>  <Dataset>  (969) 
ChEMBL_Kinases

>  <Ligand_Instance>  (969) 
nan

>  <PDB_ID>  (969) 
nan

>  <Standardized_SMILES>  (969) 
CCNc1c2c3c(cccc3n(C)c1=O)C(=O)c1ccccc1-2

>  <Name>  (969) 
nan

>  <Pocket>  (969) 
nan

>  <ATP_Site>  (969) 
nan

>  <Peripheral>  (969) 
nan

>  <Num_H_Atoms_ProtBoundConf>  (969) 
nan

>  <Num_Resolved_Atoms>  (969) 
nan

>  <Num_Not_Resolved_Atoms>  (969) 
nan

$$$$
CHEMBL1767077
     RDKit          3D

  0  0  0  0  0  0  0  0  0  0999 V3000
M  V30 BEGIN CTAB
M  V30 COUNTS 36 39 0 0 0
M  V30 BEGIN ATOM
M  V30 1 C -2.675856 -2.182730 1.411689 0
M  V30 2 N -2.476295 -0.983902 0.557447 0
M  V30 3 C -1.257274 -0.432876 0.784204 0
M  V30 4 C 0.000289 -0.523288 0.266278 0
M  V30 5 C 1.089011 0.142328 0.773588 0
M  V30 6 C 2.342853 0.017344 0.216299 0
M  V30 7 C 3.448981 0.679621 0.715015 0
M  V30 8 C 3.281916 1.493363 1.810851 0
M  V30 9 C 2.035552 1.621992 2.370165 0
M  V30 10 C 0.931242 0.962042 1.873923 0
M  V30 11 N -0.298384 1.073232 2.406336 0
M  V30 12 C -0.352925 1.959835 3.556949 0
M  V30 13 C -1.387669 0.410686 1.904509 0
M  V30 14 O -2.428322 0.689343 2.591051 0
M  V30 15 C 2.581301 -0.827376 -0.949292 0
M  V30 16 O 3.703971 -0.948171 -1.460505 0
M  V30 17 C 1.374272 -1.517854 -1.458336 0
M  V30 18 C 1.569903 -2.313415 -2.572115 0
M  V30 19 C 0.466530 -2.962183 -3.085025 0
M  V30 20 C -0.818781 -2.855009 -2.541437 0
M  V30 21 C -0.923537 -2.042208 -1.432531 0
M  V30 22 C 0.133478 -1.378955 -0.883676 0
M  V30 23 H -1.827443 -2.850121 1.171361 0
M  V30 24 H -2.552015 -1.907867 2.471567 0
M  V30 25 H -3.582431 -2.726046 1.160921 0
M  V30 26 H -3.317037 -0.745871 -0.060847 0
M  V30 27 H 4.422181 0.564196 0.259072 0
M  V30 28 H 4.123883 2.024149 2.224688 0
M  V30 29 H 1.909765 2.259712 3.227237 0
M  V30 30 H 0.300063 1.584257 4.387645 0
M  V30 31 H -1.372996 2.063039 3.965648 0
M  V30 32 H -0.005226 2.992549 3.336961 0
M  V30 33 H 2.550561 -2.414305 -3.012525 0
M  V30 34 H 0.671611 -3.571571 -3.954422 0
M  V30 35 H -1.549348 -3.429207 -3.073361 0
M  V30 36 H -1.898157 -2.051604 -1.164346 0
M  V30 END ATOM
M  V30 BEGIN BOND
M  V30 1 1 1 2
M  V30 2 1 2 3
M  V30 3 2 3 4
M  V30 4 1 4 5
M  V30 5 2 5 6
M  V30 6 1 6 7
M  V30 7 2 7 8
M  V30 8 1 8 9
M  V30 9 2 9 10
M  V30 10 1 10 11
M  V30 11 1 11 12
M  V30 12 1 11 13
M  V30 13 2 13 14
M  V30 14 1 6 15
M  V30 15 2 15 16
M  V30 16 1 15 17
M  V30 17 2 17 18
M  V30 18 1 18 19
M  V30 19 2 19 20
M  V30 20 1 20 21
M  V30 21 2 21 22
M  V30 22 1 13 3
M  V30 23 1 22 17
M  V30 24 1 22 4
M  V30 25 1 10 5
M  V30 26 1 1 23
M  V30 27 1 1 24
M  V30 28 1 1 25
M  V30 29 1 2 26
M  V30 30 1 7 27
M  V30 31 1 8 28
M  V30 32 1 9 29
M  V30 33 1 12 30
M  V30 34 1 12 31
M  V30 35 1 12 32
M  V30 36 1 18 33
M  V30 37 1 19 34
M  V30 38 1 20 35
M  V30 39 1 21 36
M  V30 END BOND
M  V30 END CTAB
M  END
>  <Dataset>  (970) 
ChEMBL_Kinases

>  <Ligand_Instance>  (970) 
nan

>  <PDB_ID>  (970) 
nan

>  <Standardized_SMILES>  (970) 
CNc1c2c3c(cccc3n(C)c1=O)C(=O)c1ccccc1-2

>  <Name>  (970) 
nan

>  <Pocket>  (970) 
nan

>  <ATP_Site>  (970) 
nan

>  <Peripheral>  (970) 
nan

>  <Num_H_Atoms_ProtBoundConf>  (970) 
nan

>  <Num_Resolved_Atoms>  (970) 
nan

>  <Num_Not_Resolved_Atoms>  (970) 
nan

$$$$
CHEMBL1766581
     RDKit          3D

  0  0  0  0  0  0  0  0  0  0999 V3000
M  V30 BEGIN CTAB
M  V30 COUNTS 48 51 0 0 0
M  V30 BEGIN ATOM
M  V30 1 C 0.969351 -1.750923 -0.683620 0
M  V30 2 N 1.123374 -0.625208 0.208689 0
M  V30 3 C 2.233333 0.088145 0.055983 0
M  V30 4 O 3.098297 -0.192417 -0.803654 0
M  V30 5 C 2.577088 1.191213 0.791989 0
M  V30 6 O 3.574081 2.097550 0.891424 0
M  V30 7 C 4.081363 3.021157 0.037620 0
M  V30 8 C 3.854229 4.253377 0.685521 0
M  V30 9 C 4.238472 5.482958 0.125201 0
M  V30 10 C 4.865290 5.513190 -1.108177 0
M  V30 11 F 5.282506 6.626170 -1.752990 0
M  V30 12 C 5.098189 4.321420 -1.760315 0
M  V30 13 C 4.706742 3.142339 -1.177090 0
M  V30 14 F 4.902408 1.928978 -1.727511 0
M  V30 15 C 1.609968 1.514602 1.765289 0
M  V30 16 C 0.437975 0.773134 1.937335 0
M  V30 17 C -0.534783 1.048038 2.871361 0
M  V30 18 N -1.642862 0.297834 2.990160 0
M  V30 19 C -1.860547 -0.766723 2.198266 0
M  V30 20 N -3.021300 -1.575441 2.302397 0
M  V30 21 C -3.235607 -2.723478 1.434015 0
M  V30 22 C -2.148924 -3.759258 1.569545 0
M  V30 23 C -2.014731 -4.560021 0.267296 0
M  V30 24 S -3.640333 -5.230007 -0.003639 0
M  V30 25 O -4.243013 -4.612747 -1.230777 0
M  V30 26 O -3.523268 -6.721861 -0.097039 0
M  V30 27 C -4.590343 -4.846403 1.455792 0
M  V30 28 C -4.529804 -3.398620 1.835105 0
M  V30 29 N -0.916688 -1.058392 1.269833 0
M  V30 30 C 0.200676 -0.321446 1.132670 0
M  V30 31 H 1.304311 -1.406141 -1.699224 0
M  V30 32 H 1.641541 -2.561862 -0.380525 0
M  V30 33 H -0.094612 -2.087211 -0.723253 0
M  V30 34 H 3.385536 4.510091 1.652938 0
M  V30 35 H 4.117519 6.478374 0.525056 0
M  V30 36 H 5.569615 4.176888 -2.714858 0
M  V30 37 H 1.624860 2.331226 2.480619 0
M  V30 38 H -0.383218 1.892559 3.514553 0
M  V30 39 H -3.722888 -1.317014 3.029437 0
M  V30 40 H -3.361466 -2.361888 0.393987 0
M  V30 41 H -1.155041 -3.371224 1.777906 0
M  V30 42 H -2.419133 -4.449598 2.379721 0
M  V30 43 H -1.706052 -3.887232 -0.557959 0
M  V30 44 H -1.246884 -5.320529 0.448955 0
M  V30 45 H -4.173835 -5.484543 2.266900 0
M  V30 46 H -5.620850 -5.192950 1.234203 0
M  V30 47 H -5.432780 -2.906260 1.427565 0
M  V30 48 H -4.533738 -3.367058 2.958028 0
M  V30 END ATOM
M  V30 BEGIN BOND
M  V30 1 1 1 2
M  V30 2 1 2 3
M  V30 3 2 3 4
M  V30 4 1 3 5
M  V30 5 1 5 6
M  V30 6 1 6 7
M  V30 7 2 7 8
M  V30 8 1 8 9
M  V30 9 2 9 10
M  V30 10 1 10 11
M  V30 11 1 10 12
M  V30 12 2 12 13
M  V30 13 1 13 14
M  V30 14 2 5 15
M  V30 15 1 15 16
M  V30 16 2 16 17
M  V30 17 1 17 18
M  V30 18 2 18 19
M  V30 19 1 19 20
M  V30 20 1 20 21
M  V30 21 1 21 22
M  V30 22 1 22 23
M  V30 23 1 23 24
M  V30 24 2 24 25
M  V30 25 2 24 26
M  V30 26 1 24 27
M  V30 27 1 27 28
M  V30 28 1 19 29
M  V30 29 2 29 30
M  V30 30 1 30 2
M  V30 31 1 13 7
M  V30 32 1 30 16
M  V30 33 1 28 21
M  V30 34 1 1 31
M  V30 35 1 1 32
M  V30 36 1 1 33
M  V30 37 1 8 34
M  V30 38 1 9 35
M  V30 39 1 12 36
M  V30 40 1 15 37
M  V30 41 1 17 38
M  V30 42 1 20 39
M  V30 43 1 21 40
M  V30 44 1 22 41
M  V30 45 1 22 42
M  V30 46 1 23 43
M  V30 47 1 23 44
M  V30 48 1 27 45
M  V30 49 1 27 46
M  V30 50 1 28 47
M  V30 51 1 28 48
M  V30 END BOND
M  V30 END CTAB
M  END
>  <Dataset>  (971) 
ChEMBL_Kinases

>  <Ligand_Instance>  (971) 
nan

>  <PDB_ID>  (971) 
nan

>  <Standardized_SMILES>  (971) 
Cn1c(=O)c(Oc2ccc(F)cc2F)cc2cnc(NC3CCS(=O)(=O)CC3)nc21

>  <Name>  (971) 
nan

>  <Pocket>  (971) 
nan

>  <ATP_Site>  (971) 
nan

>  <Peripheral>  (971) 
nan

>  <Num_H_Atoms_ProtBoundConf>  (971) 
nan

>  <Num_Resolved_Atoms>  (971) 
nan

>  <Num_Not_Resolved_Atoms>  (971) 
nan

$$$$
CHEMBL1766580
     RDKit          3D

  0  0  0  0  0  0  0  0  0  0999 V3000
M  V30 BEGIN CTAB
M  V30 COUNTS 49 52 0 0 0
M  V30 BEGIN ATOM
M  V30 1 C 0.986572 -1.393698 4.609130 0
M  V30 2 N 1.294336 -0.539682 3.465465 0
M  V30 3 C 2.272400 0.405475 3.531530 0
M  V30 4 O 2.866024 0.469089 4.638857 0
M  V30 5 C 2.558106 1.218210 2.427906 0
M  V30 6 O 3.566491 2.103682 2.681493 0
M  V30 7 C 4.052657 3.009985 1.787219 0
M  V30 8 C 3.910998 4.329707 2.228654 0
M  V30 9 C 4.344289 5.415354 1.463574 0
M  V30 10 C 4.932071 5.148703 0.227016 0
M  V30 11 F 5.371776 6.172418 -0.558367 0
M  V30 12 C 5.081279 3.854552 -0.226919 0
M  V30 13 C 4.641329 2.811516 0.556767 0
M  V30 14 F 4.746952 1.513378 0.195989 0
M  V30 15 C 1.802820 1.006246 1.293362 0
M  V30 16 C 0.822599 0.036324 1.274555 0
M  V30 17 C 0.104649 -0.122953 0.107575 0
M  V30 18 N -0.842653 -1.078511 0.127472 0
M  V30 19 C -1.117334 -1.859518 1.187645 0
M  V30 20 N -2.130831 -2.844100 1.130038 0
M  V30 21 C -2.924448 -3.073394 -0.060874 0 CFG=1
M  V30 22 C -2.028824 -3.491451 -1.196561 0
M  V30 23 C -2.753283 -3.303594 -2.510840 0
M  V30 24 C -4.235866 -3.530450 -2.292484 0 CFG=2
M  V30 25 O -4.918465 -2.336711 -2.132875 0
M  V30 26 C -4.521466 -4.527616 -1.192172 0
M  V30 27 C -3.940692 -4.144655 0.143294 0
M  V30 28 N -0.414096 -1.700197 2.323774 0
M  V30 29 C 0.546570 -0.760618 2.365231 0
M  V30 30 H -0.104907 -1.472157 4.755433 0
M  V30 31 H 1.383680 -0.903965 5.523491 0
M  V30 32 H 1.474506 -2.383138 4.551793 0
M  V30 33 H 3.461203 4.619007 3.184732 0
M  V30 34 H 4.230592 6.432566 1.813085 0
M  V30 35 H 5.529383 3.593576 -1.176216 0
M  V30 36 H 2.072625 1.665461 0.480784 0
M  V30 37 H 0.297749 0.480659 -0.751826 0
M  V30 38 H -2.335847 -3.441343 1.960393 0
M  V30 39 H -3.451223 -2.103573 -0.294570 0
M  V30 40 H -1.862819 -4.596066 -1.056969 0
M  V30 41 H -1.031836 -3.035298 -1.195268 0
M  V30 42 H -2.613802 -2.282497 -2.919800 0
M  V30 43 H -2.367519 -4.019877 -3.266774 0
M  V30 44 H -4.621684 -4.000566 -3.222552 0
M  V30 45 H -5.688673 -2.390619 -1.519001 0
M  V30 46 H -5.617982 -4.593803 -1.117095 0
M  V30 47 H -4.145931 -5.516588 -1.545514 0
M  V30 48 H -4.683385 -3.894171 0.912700 0
M  V30 49 H -3.405192 -5.052553 0.533319 0
M  V30 END ATOM
M  V30 BEGIN BOND
M  V30 1 1 1 2
M  V30 2 1 2 3
M  V30 3 2 3 4
M  V30 4 1 3 5
M  V30 5 1 5 6
M  V30 6 1 6 7
M  V30 7 2 7 8
M  V30 8 1 8 9
M  V30 9 2 9 10
M  V30 10 1 10 11
M  V30 11 1 10 12
M  V30 12 2 12 13
M  V30 13 1 13 14
M  V30 14 2 5 15
M  V30 15 1 15 16
M  V30 16 2 16 17
M  V30 17 1 17 18
M  V30 18 2 18 19
M  V30 19 1 19 20
M  V30 20 1 20 21
M  V30 21 1 21 22
M  V30 22 1 22 23
M  V30 23 1 23 24
M  V30 24 1 24 25
M  V30 25 1 24 26
M  V30 26 1 26 27
M  V30 27 1 19 28
M  V30 28 2 28 29
M  V30 29 1 29 2
M  V30 30 1 13 7
M  V30 31 1 29 16
M  V30 32 1 27 21
M  V30 33 1 1 30
M  V30 34 1 1 31
M  V30 35 1 1 32
M  V30 36 1 8 33
M  V30 37 1 9 34
M  V30 38 1 12 35
M  V30 39 1 15 36
M  V30 40 1 17 37
M  V30 41 1 20 38
M  V30 42 1 21 39 CFG=3
M  V30 43 1 22 40
M  V30 44 1 22 41
M  V30 45 1 23 42
M  V30 46 1 23 43
M  V30 47 1 24 44 CFG=3
M  V30 48 1 25 45
M  V30 49 1 26 46
M  V30 50 1 26 47
M  V30 51 1 27 48
M  V30 52 1 27 49
M  V30 END BOND
M  V30 END CTAB
M  END
>  <Dataset>  (972) 
ChEMBL_Kinases

>  <Ligand_Instance>  (972) 
nan

>  <PDB_ID>  (972) 
nan

>  <Standardized_SMILES>  (972) 
Cn1c(=O)c(Oc2ccc(F)cc2F)cc2cnc(N[C@H]3CC[C@H](O)CC3)nc21

>  <Name>  (972) 
nan

>  <Pocket>  (972) 
nan

>  <ATP_Site>  (972) 
nan

>  <Peripheral>  (972) 
nan

>  <Num_H_Atoms_ProtBoundConf>  (972) 
nan

>  <Num_Resolved_Atoms>  (972) 
nan

>  <Num_Not_Resolved_Atoms>  (972) 
nan

$$$$
CHEMBL1766579
     RDKit          3D

  0  0  0  0  0  0  0  0  0  0999 V3000
M  V30 BEGIN CTAB
M  V30 COUNTS 52 55 0 0 0
M  V30 BEGIN ATOM
M  V30 1 C 2.855126 -3.581068 5.997907 0
M  V30 2 C 3.109663 -4.565435 4.914066 0
M  V30 3 O 2.924940 -5.804749 5.072579 0
M  V30 4 N 3.572988 -3.872261 3.740025 0
M  V30 5 C 3.803063 -2.460469 3.499517 0
M  V30 6 C 2.807950 -1.921953 2.466808 0
M  V30 7 C 2.557880 -3.027834 1.481855 0
M  V30 8 N 2.121035 -2.550005 0.183551 0
M  V30 9 C 0.913252 -1.797736 0.146813 0
M  V30 10 N 0.250001 -1.575271 1.319332 0
M  V30 11 C -0.899839 -0.857871 1.276173 0
M  V30 12 C -1.393256 -0.362981 0.087022 0
M  V30 13 C -2.572679 0.380276 -0.002522 0
M  V30 14 C -3.026626 0.857631 -1.234717 0
M  V30 15 O -4.195068 1.558133 -1.104358 0
M  V30 16 C -4.260426 2.893618 -1.454376 0
M  V30 17 C -3.332116 3.788654 -1.936139 0
M  V30 18 C -3.688549 5.086437 -2.203448 0
M  V30 19 C -4.969805 5.532252 -2.001475 0
M  V30 20 F -5.120887 6.848546 -2.325879 0
M  V30 21 C -5.927849 4.666220 -1.519897 0
M  V30 22 C -5.561457 3.351786 -1.250639 0
M  V30 23 F -6.634588 2.632791 -0.780218 0
M  V30 24 C -2.286439 0.580133 -2.364222 0
M  V30 25 O -2.759106 1.041284 -3.434611 0
M  V30 26 N -1.147563 -0.133240 -2.303062 0
M  V30 27 C -0.407954 -0.396273 -3.522793 0
M  V30 28 C -0.711759 -0.592198 -1.114103 0
M  V30 29 N 0.423196 -1.310945 -1.004783 0
M  V30 30 C 3.781698 -3.917184 1.361094 0
M  V30 31 C 3.850562 -4.751839 2.621976 0
M  V30 32 H 2.262495 -2.702700 5.666929 0
M  V30 33 H 2.262582 -4.119103 6.776247 0
M  V30 34 H 3.770130 -3.239230 6.502152 0
M  V30 35 H 4.837199 -2.389084 3.104679 0
M  V30 36 H 3.705376 -1.903982 4.446565 0
M  V30 37 H 3.187571 -1.004055 1.990032 0
M  V30 38 H 1.883112 -1.717742 3.044439 0
M  V30 39 H 1.743049 -3.662829 1.887797 0
M  V30 40 H 2.638880 -2.728118 -0.702700 0
M  V30 41 H -1.472947 -0.645025 2.160274 0
M  V30 42 H -3.067823 0.532506 0.960171 0
M  V30 43 H -2.368661 3.339794 -2.050851 0
M  V30 44 H -2.856906 5.679425 -2.577810 0
M  V30 45 H -6.896035 5.090663 -1.391264 0
M  V30 46 H 0.501916 -1.009688 -3.255508 0
M  V30 47 H -0.081699 0.521643 -4.025275 0
M  V30 48 H -0.979619 -1.032689 -4.227003 0
M  V30 49 H 4.705133 -3.309258 1.282310 0
M  V30 50 H 3.687466 -4.592859 0.506439 0
M  V30 51 H 3.002962 -5.475008 2.547084 0
M  V30 52 H 4.824773 -5.267651 2.727506 0
M  V30 END ATOM
M  V30 BEGIN BOND
M  V30 1 1 1 2
M  V30 2 2 2 3
M  V30 3 1 2 4
M  V30 4 1 4 5
M  V30 5 1 5 6
M  V30 6 1 6 7
M  V30 7 1 7 8
M  V30 8 1 8 9
M  V30 9 2 9 10
M  V30 10 1 10 11
M  V30 11 2 11 12
M  V30 12 1 12 13
M  V30 13 2 13 14
M  V30 14 1 14 15
M  V30 15 1 15 16
M  V30 16 2 16 17
M  V30 17 1 17 18
M  V30 18 2 18 19
M  V30 19 1 19 20
M  V30 20 1 19 21
M  V30 21 2 21 22
M  V30 22 1 22 23
M  V30 23 1 14 24
M  V30 24 2 24 25
M  V30 25 1 24 26
M  V30 26 1 26 27
M  V30 27 1 26 28
M  V30 28 2 28 29
M  V30 29 1 7 30
M  V30 30 1 30 31
M  V30 31 1 31 4
M  V30 32 1 29 9
M  V30 33 1 28 12
M  V30 34 1 22 16
M  V30 35 1 1 32
M  V30 36 1 1 33
M  V30 37 1 1 34
M  V30 38 1 5 35
M  V30 39 1 5 36
M  V30 40 1 6 37
M  V30 41 1 6 38
M  V30 42 1 7 39
M  V30 43 1 8 40
M  V30 44 1 11 41
M  V30 45 1 13 42
M  V30 46 1 17 43
M  V30 47 1 18 44
M  V30 48 1 21 45
M  V30 49 1 27 46
M  V30 50 1 27 47
M  V30 51 1 27 48
M  V30 52 1 30 49
M  V30 53 1 30 50
M  V30 54 1 31 51
M  V30 55 1 31 52
M  V30 END BOND
M  V30 END CTAB
M  END
>  <Dataset>  (973) 
ChEMBL_Kinases

>  <Ligand_Instance>  (973) 
nan

>  <PDB_ID>  (973) 
nan

>  <Standardized_SMILES>  (973) 
CC(=O)N1CCC(Nc2ncc3cc(Oc4ccc(F)cc4F)c(=O)n(C)c3n2)CC1

>  <Name>  (973) 
nan

>  <Pocket>  (973) 
nan

>  <ATP_Site>  (973) 
nan

>  <Peripheral>  (973) 
nan

>  <Num_H_Atoms_ProtBoundConf>  (973) 
nan

>  <Num_Resolved_Atoms>  (973) 
nan

>  <Num_Not_Resolved_Atoms>  (973) 
nan

$$$$
CHEMBL1766578
     RDKit          3D

  0  0  0  0  0  0  0  0  0  0999 V3000
M  V30 BEGIN CTAB
M  V30 COUNTS 44 46 0 0 0
M  V30 BEGIN ATOM
M  V30 1 C 0.714076 -0.454938 3.975727 0
M  V30 2 N 1.267469 -0.613569 2.638523 0
M  V30 3 C 2.329106 0.169881 2.369463 0
M  V30 4 O 2.858558 0.981785 3.159375 0
M  V30 5 C 2.936301 0.120022 1.125943 0
M  V30 6 O 4.027467 0.844580 0.671598 0
M  V30 7 C 4.063700 2.226945 0.559626 0
M  V30 8 C 3.058776 3.126446 0.842493 0
M  V30 9 C 3.231970 4.475555 0.686834 0
M  V30 10 C 4.405393 5.008978 0.243981 0
M  V30 11 F 4.453052 6.373055 0.130551 0
M  V30 12 C 5.445471 4.134115 -0.053057 0
M  V30 13 C 5.251087 2.772199 0.110759 0
M  V30 14 F 6.340699 2.041158 -0.212376 0
M  V30 15 C 2.447063 -0.739237 0.162338 0
M  V30 16 C 1.343232 -1.540552 0.470657 0
M  V30 17 C 0.827344 -2.399756 -0.474908 0
M  V30 18 N -0.236411 -3.122090 -0.096375 0
M  V30 19 C -0.825289 -3.074537 1.107905 0
M  V30 20 N -1.969282 -3.861224 1.433872 0
M  V30 21 C -3.133206 -3.068448 1.604628 0
M  V30 22 C -3.590180 -2.257784 0.455257 0
M  V30 23 S -4.020835 -3.222517 -0.955952 0
M  V30 24 C -4.545929 -2.191443 -2.311456 0
M  V30 25 O -2.891856 -4.065358 -1.400808 0
M  V30 26 O -5.170179 -4.166972 -0.637544 0
M  V30 27 N -0.339940 -2.234246 2.069964 0
M  V30 28 C 0.743542 -1.474677 1.734539 0
M  V30 29 H 0.045269 0.429399 4.031426 0
M  V30 30 H 1.546488 -0.255535 4.680268 0
M  V30 31 H 0.185726 -1.352901 4.346550 0
M  V30 32 H 2.135825 2.714038 1.186849 0
M  V30 33 H 2.376495 5.121946 0.935178 0
M  V30 34 H 6.359694 4.580840 -0.399865 0
M  V30 35 H 2.841472 -0.862353 -0.840126 0
M  V30 36 H 1.242575 -2.496337 -1.463744 0
M  V30 37 H -1.828737 -4.895012 1.507284 0
M  V30 38 H -3.971429 -3.793369 1.840157 0
M  V30 39 H -3.094460 -2.435720 2.537238 0
M  V30 40 H -4.540896 -1.742460 0.790235 0
M  V30 41 H -2.920628 -1.411680 0.194940 0
M  V30 42 H -3.723704 -2.132715 -3.059504 0
M  V30 43 H -5.370128 -2.716256 -2.829470 0
M  V30 44 H -4.906875 -1.210077 -1.991387 0
M  V30 END ATOM
M  V30 BEGIN BOND
M  V30 1 1 1 2
M  V30 2 1 2 3
M  V30 3 2 3 4
M  V30 4 1 3 5
M  V30 5 1 5 6
M  V30 6 1 6 7
M  V30 7 2 7 8
M  V30 8 1 8 9
M  V30 9 2 9 10
M  V30 10 1 10 11
M  V30 11 1 10 12
M  V30 12 2 12 13
M  V30 13 1 13 14
M  V30 14 2 5 15
M  V30 15 1 15 16
M  V30 16 2 16 17
M  V30 17 1 17 18
M  V30 18 2 18 19
M  V30 19 1 19 20
M  V30 20 1 20 21
M  V30 21 1 21 22
M  V30 22 1 22 23
M  V30 23 1 23 24
M  V30 24 2 23 25
M  V30 25 2 23 26
M  V30 26 1 19 27
M  V30 27 2 27 28
M  V30 28 1 28 2
M  V30 29 1 13 7
M  V30 30 1 28 16
M  V30 31 1 1 29
M  V30 32 1 1 30
M  V30 33 1 1 31
M  V30 34 1 8 32
M  V30 35 1 9 33
M  V30 36 1 12 34
M  V30 37 1 15 35
M  V30 38 1 17 36
M  V30 39 1 20 37
M  V30 40 1 21 38
M  V30 41 1 21 39
M  V30 42 1 22 40
M  V30 43 1 22 41
M  V30 44 1 24 42
M  V30 45 1 24 43
M  V30 46 1 24 44
M  V30 END BOND
M  V30 END CTAB
M  END
>  <Dataset>  (974) 
ChEMBL_Kinases

>  <Ligand_Instance>  (974) 
nan

>  <PDB_ID>  (974) 
nan

>  <Standardized_SMILES>  (974) 
Cn1c(=O)c(Oc2ccc(F)cc2F)cc2cnc(NCCS(C)(=O)=O)nc21

>  <Name>  (974) 
nan

>  <Pocket>  (974) 
nan

>  <ATP_Site>  (974) 
nan

>  <Peripheral>  (974) 
nan

>  <Num_H_Atoms_ProtBoundConf>  (974) 
nan

>  <Num_Resolved_Atoms>  (974) 
nan

>  <Num_Not_Resolved_Atoms>  (974) 
nan

$$$$
CHEMBL1766577
     RDKit          3D

  0  0  0  0  0  0  0  0  0  0999 V3000
M  V30 BEGIN CTAB
M  V30 COUNTS 43 45 0 0 0
M  V30 BEGIN ATOM
M  V30 1 C 2.453335 -1.823733 2.689572 0
M  V30 2 N 1.937393 -1.064743 1.583056 0
M  V30 3 C 2.504696 0.026781 0.980044 0
M  V30 4 O 3.595646 0.265937 1.578182 0
M  V30 5 C 1.903470 0.696088 -0.106707 0
M  V30 6 O 2.742653 1.704428 -0.426267 0
M  V30 7 C 2.738145 2.681824 -1.363323 0
M  V30 8 C 1.954812 3.127519 -2.399895 0
M  V30 9 C 2.277478 4.209929 -3.182102 0
M  V30 10 C 3.449450 4.907297 -2.934127 0
M  V30 11 F 3.592489 5.939526 -3.808962 0
M  V30 12 C 4.278587 4.515196 -1.912733 0
M  V30 13 C 3.920340 3.404141 -1.130747 0
M  V30 14 F 4.913487 3.232676 -0.190671 0
M  V30 15 C 0.709137 0.162614 -0.504091 0
M  V30 16 C 0.121155 -0.928263 0.083250 0
M  V30 17 C -1.086637 -1.341924 -0.433047 0
M  V30 18 N -1.664160 -2.410239 0.145104 0
M  V30 19 C -1.061955 -3.028357 1.183663 0
M  V30 20 N -1.825996 -4.122708 1.653438 0
M  V30 21 C -2.748612 -4.028530 2.754912 0
M  V30 22 C -3.801107 -2.951447 2.542889 0
M  V30 23 O -4.627117 -2.954820 3.664592 0
M  V30 24 C -2.003326 -3.739507 4.019175 0
M  V30 25 O -1.315168 -2.546640 3.912875 0
M  V30 26 N 0.101514 -2.592198 1.644708 0
M  V30 27 C 0.760717 -1.536044 1.140149 0
M  V30 28 H 3.298323 -1.300579 3.186919 0
M  V30 29 H 1.686016 -1.964994 3.496054 0
M  V30 30 H 2.809203 -2.802766 2.359966 0
M  V30 31 H 1.080497 2.524473 -2.506617 0
M  V30 32 H 1.526602 4.409436 -3.958664 0
M  V30 33 H 5.147634 5.148341 -1.839442 0
M  V30 34 H 0.301203 0.710323 -1.329026 0
M  V30 35 H -1.535256 -0.815854 -1.268402 0
M  V30 36 H -1.687133 -5.030315 1.149941 0
M  V30 37 H -3.351092 -4.980491 2.834043 0
M  V30 38 H -4.454278 -3.160955 1.670454 0
M  V30 39 H -3.298324 -1.963578 2.494350 0
M  V30 40 H -4.850783 -2.026095 3.885964 0
M  V30 41 H -2.728380 -3.734404 4.883525 0
M  V30 42 H -1.324515 -4.613372 4.234842 0
M  V30 43 H -0.465176 -2.583358 4.411950 0
M  V30 END ATOM
M  V30 BEGIN BOND
M  V30 1 1 1 2
M  V30 2 1 2 3
M  V30 3 2 3 4
M  V30 4 1 3 5
M  V30 5 1 5 6
M  V30 6 1 6 7
M  V30 7 2 7 8
M  V30 8 1 8 9
M  V30 9 2 9 10
M  V30 10 1 10 11
M  V30 11 1 10 12
M  V30 12 2 12 13
M  V30 13 1 13 14
M  V30 14 2 5 15
M  V30 15 1 15 16
M  V30 16 2 16 17
M  V30 17 1 17 18
M  V30 18 2 18 19
M  V30 19 1 19 20
M  V30 20 1 20 21
M  V30 21 1 21 22
M  V30 22 1 22 23
M  V30 23 1 21 24
M  V30 24 1 24 25
M  V30 25 1 19 26
M  V30 26 2 26 27
M  V30 27 1 27 2
M  V30 28 1 13 7
M  V30 29 1 27 16
M  V30 30 1 1 28
M  V30 31 1 1 29
M  V30 32 1 1 30
M  V30 33 1 8 31
M  V30 34 1 9 32
M  V30 35 1 12 33
M  V30 36 1 15 34
M  V30 37 1 17 35
M  V30 38 1 20 36
M  V30 39 1 21 37
M  V30 40 1 22 38
M  V30 41 1 22 39
M  V30 42 1 23 40
M  V30 43 1 24 41
M  V30 44 1 24 42
M  V30 45 1 25 43
M  V30 END BOND
M  V30 END CTAB
M  END
>  <Dataset>  (975) 
ChEMBL_Kinases

>  <Ligand_Instance>  (975) 
nan

>  <PDB_ID>  (975) 
nan

>  <Standardized_SMILES>  (975) 
Cn1c(=O)c(Oc2ccc(F)cc2F)cc2cnc(NC(CO)CO)nc21

>  <Name>  (975) 
nan

>  <Pocket>  (975) 
nan

>  <ATP_Site>  (975) 
nan

>  <Peripheral>  (975) 
nan

>  <Num_H_Atoms_ProtBoundConf>  (975) 
nan

>  <Num_Resolved_Atoms>  (975) 
nan

>  <Num_Not_Resolved_Atoms>  (975) 
nan

$$$$
CHEMBL1766576
     RDKit          3D

  0  0  0  0  0  0  0  0  0  0999 V3000
M  V30 BEGIN CTAB
M  V30 COUNTS 45 47 0 0 0
M  V30 BEGIN ATOM
M  V30 1 C 2.521158 -2.882804 1.260916 0
M  V30 2 N 2.017245 -1.548576 1.272798 0
M  V30 3 C 2.912734 -0.557374 1.379815 0
M  V30 4 O 4.118174 -0.791329 1.465695 0
M  V30 5 C 2.627613 0.776138 1.408209 0
M  V30 6 O 3.253702 1.962374 1.502235 0
M  V30 7 C 4.163269 2.607759 0.742680 0
M  V30 8 C 3.538326 3.787796 0.325013 0
M  V30 9 C 4.163284 4.741205 -0.491492 0
M  V30 10 C 5.468387 4.521011 -0.917442 0
M  V30 11 F 6.198963 5.343219 -1.703102 0
M  V30 12 C 6.109041 3.366945 -0.521146 0
M  V30 13 C 5.438868 2.474274 0.279655 0
M  V30 14 F 6.010868 1.331803 0.715160 0
M  V30 15 C 1.247738 1.046348 1.312048 0
M  V30 16 C 0.282615 0.034111 1.199032 0
M  V30 17 C -1.068689 0.205090 1.101204 0
M  V30 18 N -1.888955 -0.852817 0.997549 0
M  V30 19 C -1.443371 -2.122321 0.983577 0
M  V30 20 N -2.382260 -3.181605 0.870745 0
M  V30 21 C -3.793927 -2.839833 0.774828 0
M  V30 22 C -4.206856 -2.075793 2.014394 0
M  V30 23 C -4.037763 -1.992615 -0.480159 0
M  V30 24 C -4.650150 -4.074306 0.689068 0
M  V30 25 O -4.454861 -4.847112 1.829593 0
M  V30 26 N -0.121139 -2.359634 1.076637 0
M  V30 27 C 0.700420 -1.300608 1.180437 0
M  V30 28 H 3.435533 -2.943365 1.890242 0
M  V30 29 H 1.807870 -3.617507 1.733176 0
M  V30 30 H 2.756955 -3.284922 0.256100 0
M  V30 31 H 2.529293 4.189053 0.520701 0
M  V30 32 H 3.782579 5.670080 -0.867427 0
M  V30 33 H 7.113386 3.072300 -0.776466 0
M  V30 34 H 0.730717 1.996179 1.308338 0
M  V30 35 H -1.423421 1.225773 1.112710 0
M  V30 36 H -2.029323 -4.167227 0.860416 0
M  V30 37 H -3.602304 -2.425207 2.863483 0
M  V30 38 H -4.113809 -0.988637 1.831606 0
M  V30 39 H -5.269449 -2.298821 2.212108 0
M  V30 40 H -4.822860 -2.399322 -1.120274 0
M  V30 41 H -4.281859 -0.946600 -0.159821 0
M  V30 42 H -3.087700 -1.974551 -1.073341 0
M  V30 43 H -5.707892 -3.758016 0.676332 0
M  V30 44 H -4.470470 -4.661007 -0.232724 0
M  V30 45 H -5.242845 -4.832548 2.417039 0
M  V30 END ATOM
M  V30 BEGIN BOND
M  V30 1 1 1 2
M  V30 2 1 2 3
M  V30 3 2 3 4
M  V30 4 1 3 5
M  V30 5 1 5 6
M  V30 6 1 6 7
M  V30 7 2 7 8
M  V30 8 1 8 9
M  V30 9 2 9 10
M  V30 10 1 10 11
M  V30 11 1 10 12
M  V30 12 2 12 13
M  V30 13 1 13 14
M  V30 14 2 5 15
M  V30 15 1 15 16
M  V30 16 2 16 17
M  V30 17 1 17 18
M  V30 18 2 18 19
M  V30 19 1 19 20
M  V30 20 1 20 21
M  V30 21 1 21 22
M  V30 22 1 21 23
M  V30 23 1 21 24
M  V30 24 1 24 25
M  V30 25 1 19 26
M  V30 26 2 26 27
M  V30 27 1 27 2
M  V30 28 1 13 7
M  V30 29 1 27 16
M  V30 30 1 1 28
M  V30 31 1 1 29
M  V30 32 1 1 30
M  V30 33 1 8 31
M  V30 34 1 9 32
M  V30 35 1 12 33
M  V30 36 1 15 34
M  V30 37 1 17 35
M  V30 38 1 20 36
M  V30 39 1 22 37
M  V30 40 1 22 38
M  V30 41 1 22 39
M  V30 42 1 23 40
M  V30 43 1 23 41
M  V30 44 1 23 42
M  V30 45 1 24 43
M  V30 46 1 24 44
M  V30 47 1 25 45
M  V30 END BOND
M  V30 END CTAB
M  END
>  <Dataset>  (976) 
ChEMBL_Kinases

>  <Ligand_Instance>  (976) 
nan

>  <PDB_ID>  (976) 
nan

>  <Standardized_SMILES>  (976) 
Cn1c(=O)c(Oc2ccc(F)cc2F)cc2cnc(NC(C)(C)CO)nc21

>  <Name>  (976) 
nan

>  <Pocket>  (976) 
nan

>  <ATP_Site>  (976) 
nan

>  <Peripheral>  (976) 
nan

>  <Num_H_Atoms_ProtBoundConf>  (976) 
nan

>  <Num_Resolved_Atoms>  (976) 
nan

>  <Num_Not_Resolved_Atoms>  (976) 
nan

$$$$
CHEMBL1766575
     RDKit          3D

  0  0  0  0  0  0  0  0  0  0999 V3000
M  V30 BEGIN CTAB
M  V30 COUNTS 45 47 0 0 0
M  V30 BEGIN ATOM
M  V30 1 C 1.999858 -2.981110 0.615099 0
M  V30 2 N 1.879618 -1.635715 1.083617 0
M  V30 3 C 2.864063 -0.781876 0.778653 0
M  V30 4 O 3.893897 -1.051175 0.123701 0
M  V30 5 C 2.824534 0.527114 1.180109 0
M  V30 6 O 3.694296 1.590791 0.999453 0
M  V30 7 C 3.998259 2.097429 -0.243281 0
M  V30 8 C 3.462823 1.631207 -1.445324 0
M  V30 9 C 3.778049 2.150640 -2.665736 0
M  V30 10 C 4.680686 3.201371 -2.723758 0
M  V30 11 F 5.030012 3.753341 -3.906009 0
M  V30 12 C 5.225705 3.682837 -1.556183 0
M  V30 13 C 4.901077 3.150179 -0.319971 0
M  V30 14 F 5.447395 3.639137 0.827943 0
M  V30 15 C 1.741493 1.006435 1.928838 0
M  V30 16 C 0.716696 0.101280 2.241134 0
M  V30 17 C -0.419068 0.413087 2.958539 0
M  V30 18 N -1.355481 -0.519691 3.202939 0
M  V30 19 C -1.214087 -1.786732 2.756298 0
M  V30 20 N -2.350412 -2.543750 3.146753 0
M  V30 21 C -3.379570 -2.987872 2.284039 0
M  V30 22 C -4.075758 -2.008620 1.432758 0
M  V30 23 C -5.221335 -2.792515 0.749199 0
M  V30 24 C -3.195126 -1.527367 0.318580 0
M  V30 25 O -4.721222 -0.971267 2.064321 0
M  V30 26 N -0.117882 -2.130234 2.052220 0
M  V30 27 C 0.823395 -1.206121 1.801428 0
M  V30 28 H 3.061848 -3.329989 0.744076 0
M  V30 29 H 1.367784 -3.636265 1.257433 0
M  V30 30 H 1.652808 -3.032225 -0.430455 0
M  V30 31 H 2.756271 0.824870 -1.439333 0
M  V30 32 H 3.346410 1.765779 -3.589214 0
M  V30 33 H 5.927146 4.493239 -1.527554 0
M  V30 34 H 1.537016 1.988329 2.329470 0
M  V30 35 H -0.485070 1.451267 3.299596 0
M  V30 36 H -2.346311 -2.747004 4.191323 0
M  V30 37 H -4.123842 -3.573867 2.896324 0
M  V30 38 H -2.931695 -3.755326 1.602630 0
M  V30 39 H -4.883244 -3.726110 0.305924 0
M  V30 40 H -5.600571 -2.081067 -0.029231 0
M  V30 41 H -6.043207 -2.887159 1.482943 0
M  V30 42 H -2.247034 -2.120130 0.247035 0
M  V30 43 H -2.910795 -0.462248 0.377250 0
M  V30 44 H -3.669972 -1.672049 -0.698833 0
M  V30 45 H -4.490623 -0.893851 3.015402 0
M  V30 END ATOM
M  V30 BEGIN BOND
M  V30 1 1 1 2
M  V30 2 1 2 3
M  V30 3 2 3 4
M  V30 4 1 3 5
M  V30 5 1 5 6
M  V30 6 1 6 7
M  V30 7 2 7 8
M  V30 8 1 8 9
M  V30 9 2 9 10
M  V30 10 1 10 11
M  V30 11 1 10 12
M  V30 12 2 12 13
M  V30 13 1 13 14
M  V30 14 2 5 15
M  V30 15 1 15 16
M  V30 16 2 16 17
M  V30 17 1 17 18
M  V30 18 2 18 19
M  V30 19 1 19 20
M  V30 20 1 20 21
M  V30 21 1 21 22
M  V30 22 1 22 23
M  V30 23 1 22 24
M  V30 24 1 22 25
M  V30 25 1 19 26
M  V30 26 2 26 27
M  V30 27 1 27 2
M  V30 28 1 13 7
M  V30 29 1 27 16
M  V30 30 1 1 28
M  V30 31 1 1 29
M  V30 32 1 1 30
M  V30 33 1 8 31
M  V30 34 1 9 32
M  V30 35 1 12 33
M  V30 36 1 15 34
M  V30 37 1 17 35
M  V30 38 1 20 36
M  V30 39 1 21 37
M  V30 40 1 21 38
M  V30 41 1 23 39
M  V30 42 1 23 40
M  V30 43 1 23 41
M  V30 44 1 24 42
M  V30 45 1 24 43
M  V30 46 1 24 44
M  V30 47 1 25 45
M  V30 END BOND
M  V30 END CTAB
M  END
>  <Dataset>  (977) 
ChEMBL_Kinases

>  <Ligand_Instance>  (977) 
nan

>  <PDB_ID>  (977) 
nan

>  <Standardized_SMILES>  (977) 
Cn1c(=O)c(Oc2ccc(F)cc2F)cc2cnc(NCC(C)(C)O)nc21

>  <Name>  (977) 
nan

>  <Pocket>  (977) 
nan

>  <ATP_Site>  (977) 
nan

>  <Peripheral>  (977) 
nan

>  <Num_H_Atoms_ProtBoundConf>  (977) 
nan

>  <Num_Resolved_Atoms>  (977) 
nan

>  <Num_Not_Resolved_Atoms>  (977) 
nan

$$$$
CHEMBL1766574
     RDKit          3D

  0  0  0  0  0  0  0  0  0  0999 V3000
M  V30 BEGIN CTAB
M  V30 COUNTS 43 46 0 0 0
M  V30 BEGIN ATOM
M  V30 1 C 1.866334 -3.322718 0.029521 0
M  V30 2 N 1.661106 -1.927022 0.422018 0
M  V30 3 C 2.651527 -1.094595 0.134561 0
M  V30 4 O 3.699769 -1.445116 -0.430124 0
M  V30 5 C 2.594715 0.246669 0.445695 0
M  V30 6 O 3.519858 1.251070 0.225724 0
M  V30 7 C 3.949467 1.621975 -1.033957 0
M  V30 8 C 3.623607 1.178233 -2.296725 0
M  V30 9 C 4.205256 1.723130 -3.398785 0
M  V30 10 C 5.139980 2.735906 -3.311785 0
M  V30 11 F 5.617390 3.162513 -4.496253 0
M  V30 12 C 5.489671 3.205849 -2.045360 0
M  V30 13 C 4.886592 2.638191 -0.937242 0
M  V30 14 F 5.349706 3.221771 0.213809 0
M  V30 15 C 1.439384 0.710040 1.085732 0
M  V30 16 C 0.428307 -0.180880 1.370581 0
M  V30 17 C -0.754721 0.151376 1.995654 0
M  V30 18 N -1.721095 -0.739113 2.259547 0
M  V30 19 C -1.577284 -2.029793 1.918084 0
M  V30 20 N -2.589368 -2.987924 2.188962 0
M  V30 21 C -3.848387 -2.698997 2.842599 0 CFG=1
M  V30 22 C -3.699231 -2.157254 4.236281 0
M  V30 23 C -4.033145 -0.716467 4.108386 0
M  V30 24 O -4.314052 -0.420478 2.786795 0
M  V30 25 C -4.635930 -1.611713 2.168560 0
M  V30 26 N -0.438462 -2.397060 1.306304 0
M  V30 27 C 0.532196 -1.514879 1.038643 0
M  V30 28 H 2.830319 -3.625316 0.533918 0
M  V30 29 H 1.098110 -3.969700 0.458842 0
M  V30 30 H 2.032766 -3.422311 -1.044804 0
M  V30 31 H 2.886131 0.391690 -2.269573 0
M  V30 32 H 3.847700 1.269559 -4.328645 0
M  V30 33 H 6.216981 3.988301 -2.054934 0
M  V30 34 H 1.261635 1.736721 1.387057 0
M  V30 35 H -0.913963 1.179482 2.288605 0
M  V30 36 H -2.394770 -3.990381 1.883113 0
M  V30 37 H -4.430579 -3.650192 2.913560 0
M  V30 38 H -2.685483 -2.344192 4.656118 0
M  V30 39 H -4.491008 -2.614792 4.880133 0
M  V30 40 H -3.194818 -0.118786 4.539135 0
M  V30 41 H -4.917980 -0.415745 4.737265 0
M  V30 42 H -4.496223 -1.588795 1.073216 0
M  V30 43 H -5.717042 -1.807637 2.408558 0
M  V30 END ATOM
M  V30 BEGIN BOND
M  V30 1 1 1 2
M  V30 2 1 2 3
M  V30 3 2 3 4
M  V30 4 1 3 5
M  V30 5 1 5 6
M  V30 6 1 6 7
M  V30 7 2 7 8
M  V30 8 1 8 9
M  V30 9 2 9 10
M  V30 10 1 10 11
M  V30 11 1 10 12
M  V30 12 2 12 13
M  V30 13 1 13 14
M  V30 14 2 5 15
M  V30 15 1 15 16
M  V30 16 2 16 17
M  V30 17 1 17 18
M  V30 18 2 18 19
M  V30 19 1 19 20
M  V30 20 1 20 21
M  V30 21 1 21 22
M  V30 22 1 22 23
M  V30 23 1 23 24
M  V30 24 1 24 25
M  V30 25 1 19 26
M  V30 26 2 26 27
M  V30 27 1 27 2
M  V30 28 1 13 7
M  V30 29 1 27 16
M  V30 30 1 25 21
M  V30 31 1 1 28
M  V30 32 1 1 29
M  V30 33 1 1 30
M  V30 34 1 8 31
M  V30 35 1 9 32
M  V30 36 1 12 33
M  V30 37 1 15 34
M  V30 38 1 17 35
M  V30 39 1 20 36
M  V30 40 1 21 37 CFG=1
M  V30 41 1 22 38
M  V30 42 1 22 39
M  V30 43 1 23 40
M  V30 44 1 23 41
M  V30 45 1 25 42
M  V30 46 1 25 43
M  V30 END BOND
M  V30 END CTAB
M  END
>  <Dataset>  (978) 
ChEMBL_Kinases

>  <Ligand_Instance>  (978) 
nan

>  <PDB_ID>  (978) 
nan

>  <Standardized_SMILES>  (978) 
Cn1c(=O)c(Oc2ccc(F)cc2F)cc2cnc(N[C@H]3CCOC3)nc21

>  <Name>  (978) 
nan

>  <Pocket>  (978) 
nan

>  <ATP_Site>  (978) 
nan

>  <Peripheral>  (978) 
nan

>  <Num_H_Atoms_ProtBoundConf>  (978) 
nan

>  <Num_Resolved_Atoms>  (978) 
nan

>  <Num_Not_Resolved_Atoms>  (978) 
nan

$$$$
CHEMBL1766573
     RDKit          3D

  0  0  0  0  0  0  0  0  0  0999 V3000
M  V30 BEGIN CTAB
M  V30 COUNTS 35 37 0 0 0
M  V30 BEGIN ATOM
M  V30 1 C -1.548374 -6.001037 2.332540 0
M  V30 2 N -0.830851 -4.904978 2.919861 0
M  V30 3 C -0.178095 -3.920787 2.096101 0
M  V30 4 N 1.106467 -4.061799 1.680055 0
M  V30 5 C 1.700267 -3.127121 0.907747 0
M  V30 6 C 0.983738 -2.008891 0.536932 0
M  V30 7 C 1.620969 -1.073690 -0.252462 0
M  V30 8 C 0.895262 0.052481 -0.624396 0
M  V30 9 O 1.355838 1.099603 -1.410351 0
M  V30 10 C 1.381978 2.392071 -0.899045 0
M  V30 11 C 0.584727 3.224996 -1.672311 0
M  V30 12 C 0.449876 4.577978 -1.356874 0
M  V30 13 C 1.142561 5.028671 -0.252709 0
M  V30 14 F 1.060574 6.331547 0.116185 0
M  V30 15 C 1.939555 4.218628 0.528718 0
M  V30 16 C 2.051994 2.882881 0.189178 0
M  V30 17 F 2.788001 1.956250 0.845806 0
M  V30 18 C -0.426718 0.211390 -0.204158 0
M  V30 19 O -1.130422 1.207469 -0.508945 0
M  V30 20 N -0.993537 -0.746287 0.571036 0
M  V30 21 C -2.375368 -0.609894 1.027654 0
M  V30 22 C -0.326754 -1.850098 0.952810 0
M  V30 23 N -0.850829 -2.823889 1.720642 0
M  V30 24 H -2.574193 -6.074043 2.788562 0
M  V30 25 H -1.013407 -6.971698 2.369351 0
M  V30 26 H -1.721583 -5.795732 1.245991 0
M  V30 27 H -0.745447 -4.763935 3.942760 0
M  V30 28 H 2.741649 -3.278409 0.591978 0
M  V30 29 H 2.638022 -1.126950 -0.615609 0
M  V30 30 H 0.001679 2.951301 -2.561715 0
M  V30 31 H -0.154258 5.286358 -1.914415 0
M  V30 32 H 2.491001 4.545771 1.396584 0
M  V30 33 H -2.819261 0.341818 0.636889 0
M  V30 34 H -2.370458 -0.535751 2.136373 0
M  V30 35 H -2.980440 -1.505676 0.768526 0
M  V30 END ATOM
M  V30 BEGIN BOND
M  V30 1 1 1 2
M  V30 2 1 2 3
M  V30 3 2 3 4
M  V30 4 1 4 5
M  V30 5 2 5 6
M  V30 6 1 6 7
M  V30 7 2 7 8
M  V30 8 1 8 9
M  V30 9 1 9 10
M  V30 10 2 10 11
M  V30 11 1 11 12
M  V30 12 2 12 13
M  V30 13 1 13 14
M  V30 14 1 13 15
M  V30 15 2 15 16
M  V30 16 1 16 17
M  V30 17 1 8 18
M  V30 18 2 18 19
M  V30 19 1 18 20
M  V30 20 1 20 21
M  V30 21 1 20 22
M  V30 22 2 22 23
M  V30 23 1 23 3
M  V30 24 1 22 6
M  V30 25 1 16 10
M  V30 26 1 1 24
M  V30 27 1 1 25
M  V30 28 1 1 26
M  V30 29 1 2 27
M  V30 30 1 5 28
M  V30 31 1 7 29
M  V30 32 1 11 30
M  V30 33 1 12 31
M  V30 34 1 15 32
M  V30 35 1 21 33
M  V30 36 1 21 34
M  V30 37 1 21 35
M  V30 END BOND
M  V30 END CTAB
M  END
>  <Dataset>  (979) 
ChEMBL_Kinases

>  <Ligand_Instance>  (979) 
nan

>  <PDB_ID>  (979) 
nan

>  <Standardized_SMILES>  (979) 
CNc1ncc2cc(Oc3ccc(F)cc3F)c(=O)n(C)c2n1

>  <Name>  (979) 
nan

>  <Pocket>  (979) 
nan

>  <ATP_Site>  (979) 
nan

>  <Peripheral>  (979) 
nan

>  <Num_H_Atoms_ProtBoundConf>  (979) 
nan

>  <Num_Resolved_Atoms>  (979) 
nan

>  <Num_Not_Resolved_Atoms>  (979) 
nan

$$$$
CHEMBL1766572
     RDKit          3D

  0  0  0  0  0  0  0  0  0  0999 V3000
M  V30 BEGIN CTAB
M  V30 COUNTS 64 68 0 0 0
M  V30 BEGIN ATOM
M  V30 1 C 2.807200 -0.299514 5.438144 0
M  V30 2 S 1.995527 -1.824235 5.001308 0
M  V30 3 O 0.832213 -2.001630 5.918924 0
M  V30 4 O 2.946747 -2.961851 5.240235 0
M  V30 5 N 1.498114 -1.812132 3.423132 0
M  V30 6 C 2.436245 -1.687403 2.390971 0
M  V30 7 C 2.157322 -0.431331 1.634580 0
M  V30 8 C 0.846774 0.226058 1.878844 0
M  V30 9 N 0.401371 0.793516 0.617031 0
M  V30 10 C 0.306636 2.110613 0.394517 0
M  V30 11 O 0.619403 2.911677 1.326162 0
M  V30 12 C -0.111532 2.682897 -0.788191 0
M  V30 13 O -0.198036 4.056661 -0.984753 0
M  V30 14 C -1.028817 4.849982 -0.188614 0
M  V30 15 C -0.563502 5.886854 0.593155 0
M  V30 16 C -1.472663 6.621178 1.353480 0
M  V30 17 C -2.832758 6.360675 1.364469 0
M  V30 18 F -3.711179 7.071580 2.100220 0
M  V30 19 C -3.291072 5.312920 0.572488 0
M  V30 20 C -2.401569 4.576981 -0.185870 0
M  V30 21 F -2.950279 3.587836 -0.914095 0
M  V30 22 C -0.463966 1.857082 -1.835068 0
M  V30 23 C -0.364755 0.500968 -1.601120 0
M  V30 24 C -0.704953 -0.370940 -2.614457 0
M  V30 25 N -0.612013 -1.695589 -2.397302 0
M  V30 26 C -0.202635 -2.241029 -1.238814 0
M  V30 27 N -0.113177 -3.641197 -1.034409 0
M  V30 28 C -0.461594 -4.570287 -2.068502 0
M  V30 29 C -1.897087 -4.430271 -2.497535 0
M  V30 30 C -2.125905 -5.376258 -3.680536 0
M  V30 31 O -1.942711 -6.665653 -3.240945 0
M  V30 32 C -0.637560 -6.887342 -2.833942 0
M  V30 33 C -0.248548 -5.998970 -1.669376 0
M  V30 34 N 0.122127 -1.366167 -0.269877 0
M  V30 35 C 0.058537 -0.034674 -0.402213 0
M  V30 36 C -0.257565 -0.570049 2.458123 0
M  V30 37 C 0.143840 -1.881158 3.078432 0
M  V30 38 H 2.088257 0.453123 5.824282 0
M  V30 39 H 3.494324 -0.539524 6.296743 0
M  V30 40 H 3.390598 0.137483 4.602557 0
M  V30 41 H 3.466431 -1.698318 2.842131 0
M  V30 42 H 2.437939 -2.594982 1.718893 0
M  V30 43 H 3.003776 0.264154 1.833861 0
M  V30 44 H 2.293694 -0.677952 0.540006 0
M  V30 45 H 1.035160 1.094759 2.553596 0
M  V30 46 H 0.495053 6.088164 0.583431 0
M  V30 47 H -1.092401 7.443229 1.971437 0
M  V30 48 H -4.361224 5.103122 0.577084 0
M  V30 49 H -0.795212 2.276715 -2.773174 0
M  V30 50 H -1.039186 0.027668 -3.562115 0
M  V30 51 H 0.214811 -3.985363 -0.106319 0
M  V30 52 H 0.165150 -4.349750 -2.960770 0
M  V30 53 H -2.506283 -4.777014 -1.612762 0
M  V30 54 H -2.215992 -3.415123 -2.734132 0
M  V30 55 H -3.158272 -5.285711 -4.074166 0
M  V30 56 H -1.368722 -5.063029 -4.449775 0
M  V30 57 H -0.505108 -7.966342 -2.594874 0
M  V30 58 H 0.025808 -6.586746 -3.681115 0
M  V30 59 H 0.809669 -6.239674 -1.448430 0
M  V30 60 H -0.942473 -6.257880 -0.844788 0
M  V30 61 H -1.055532 -0.798050 1.718558 0
M  V30 62 H -0.792570 -0.018004 3.262043 0
M  V30 63 H -0.000722 -2.717805 2.342925 0
M  V30 64 H -0.454691 -2.162327 3.969992 0
M  V30 END ATOM
M  V30 BEGIN BOND
M  V30 1 1 1 2
M  V30 2 2 2 3
M  V30 3 2 2 4
M  V30 4 1 2 5
M  V30 5 1 5 6
M  V30 6 1 6 7
M  V30 7 1 7 8
M  V30 8 1 8 9
M  V30 9 1 9 10
M  V30 10 2 10 11
M  V30 11 1 10 12
M  V30 12 1 12 13
M  V30 13 1 13 14
M  V30 14 2 14 15
M  V30 15 1 15 16
M  V30 16 2 16 17
M  V30 17 1 17 18
M  V30 18 1 17 19
M  V30 19 2 19 20
M  V30 20 1 20 21
M  V30 21 2 12 22
M  V30 22 1 22 23
M  V30 23 2 23 24
M  V30 24 1 24 25
M  V30 25 2 25 26
M  V30 26 1 26 27
M  V30 27 1 27 28
M  V30 28 1 28 29
M  V30 29 1 29 30
M  V30 30 1 30 31
M  V30 31 1 31 32
M  V30 32 1 32 33
M  V30 33 1 26 34
M  V30 34 2 34 35
M  V30 35 1 8 36
M  V30 36 1 36 37
M  V30 37 1 37 5
M  V30 38 1 35 9
M  V30 39 1 20 14
M  V30 40 1 35 23
M  V30 41 1 33 28
M  V30 42 1 1 38
M  V30 43 1 1 39
M  V30 44 1 1 40
M  V30 45 1 6 41
M  V30 46 1 6 42
M  V30 47 1 7 43
M  V30 48 1 7 44
M  V30 49 1 8 45
M  V30 50 1 15 46
M  V30 51 1 16 47
M  V30 52 1 19 48
M  V30 53 1 22 49
M  V30 54 1 24 50
M  V30 55 1 27 51
M  V30 56 1 28 52
M  V30 57 1 29 53
M  V30 58 1 29 54
M  V30 59 1 30 55
M  V30 60 1 30 56
M  V30 61 1 32 57
M  V30 62 1 32 58
M  V30 63 1 33 59
M  V30 64 1 33 60
M  V30 65 1 36 61
M  V30 66 1 36 62
M  V30 67 1 37 63
M  V30 68 1 37 64
M  V30 END BOND
M  V30 END CTAB
M  END
>  <Dataset>  (980) 
ChEMBL_Kinases

>  <Ligand_Instance>  (980) 
nan

>  <PDB_ID>  (980) 
nan

>  <Standardized_SMILES>  (980) 
CS(=O)(=O)N1CCC(n2c(=O)c(Oc3ccc(F)cc3F)cc3cnc(NC4CCOCC4)nc32)CC1

>  <Name>  (980) 
nan

>  <Pocket>  (980) 
nan

>  <ATP_Site>  (980) 
nan

>  <Peripheral>  (980) 
nan

>  <Num_H_Atoms_ProtBoundConf>  (980) 
nan

>  <Num_Resolved_Atoms>  (980) 
nan

>  <Num_Not_Resolved_Atoms>  (980) 
nan

$$$$
CHEMBL189010
     RDKit          3D

  0  0  0  0  0  0  0  0  0  0999 V3000
M  V30 BEGIN CTAB
M  V30 COUNTS 25 26 0 0 0
M  V30 BEGIN ATOM
M  V30 1 O 1.257566 -2.379915 3.684499 0
M  V30 2 C 1.472964 -3.265068 2.786294 0
M  V30 3 O 0.888034 -4.510760 3.077785 0
M  V30 4 C 2.199261 -3.342714 1.468272 0
M  V30 5 S 2.971349 -1.798257 1.000487 0
M  V30 6 C 1.761475 -0.533272 0.644195 0
M  V30 7 C 2.358855 0.608465 0.331157 0
M  V30 8 C 1.567105 1.799410 -0.002160 0
M  V30 9 O 2.021738 2.930730 -0.313177 0
M  V30 10 C 0.097032 1.701122 0.018225 0
M  V30 11 C -0.714752 2.783343 -0.284912 0
M  V30 12 C -2.082283 2.606137 -0.242418 0
M  V30 13 C -2.668963 1.401350 0.088102 0
M  V30 14 C -1.877754 0.288960 0.399570 0
M  V30 15 C -0.517884 0.512412 0.344158 0
M  V30 16 C 0.307569 -0.649502 0.669345 0
M  V30 17 O -0.109759 -1.789277 0.981909 0
M  V30 18 H 0.356347 -4.675857 3.922999 0
M  V30 19 H 1.406319 -3.628267 0.724220 0
M  V30 20 H 2.946038 -4.141546 1.515276 0
M  V30 21 H 3.413931 0.828295 0.275591 0
M  V30 22 H -0.256834 3.719471 -0.541384 0
M  V30 23 H -2.662159 3.494663 -0.490904 0
M  V30 24 H -3.748760 1.305528 0.109765 0
M  V30 25 H -2.300988 -0.670087 0.663069 0
M  V30 END ATOM
M  V30 BEGIN BOND
M  V30 1 2 1 2
M  V30 2 1 2 3
M  V30 3 1 2 4
M  V30 4 1 4 5
M  V30 5 1 5 6
M  V30 6 2 6 7
M  V30 7 1 7 8
M  V30 8 2 8 9
M  V30 9 1 8 10
M  V30 10 2 10 11
M  V30 11 1 11 12
M  V30 12 2 12 13
M  V30 13 1 13 14
M  V30 14 2 14 15
M  V30 15 1 15 16
M  V30 16 2 16 17
M  V30 17 1 16 6
M  V30 18 1 15 10
M  V30 19 1 3 18
M  V30 20 1 4 19
M  V30 21 1 4 20
M  V30 22 1 7 21
M  V30 23 1 11 22
M  V30 24 1 12 23
M  V30 25 1 13 24
M  V30 26 1 14 25
M  V30 END BOND
M  V30 END CTAB
M  END
>  <Dataset>  (981) 
ChEMBL_Kinases

>  <Ligand_Instance>  (981) 
nan

>  <PDB_ID>  (981) 
nan

>  <Standardized_SMILES>  (981) 
O=C(O)CSC1=CC(=O)c2ccccc2C1=O

>  <Name>  (981) 
nan

>  <Pocket>  (981) 
nan

>  <ATP_Site>  (981) 
nan

>  <Peripheral>  (981) 
nan

>  <Num_H_Atoms_ProtBoundConf>  (981) 
nan

>  <Num_Resolved_Atoms>  (981) 
nan

>  <Num_Not_Resolved_Atoms>  (981) 
nan

$$$$
CHEMBL1766505
     RDKit          3D

  0  0  0  0  0  0  0  0  0  0999 V3000
M  V30 BEGIN CTAB
M  V30 COUNTS 54 57 0 0 0
M  V30 BEGIN ATOM
M  V30 1 O 2.073932 -2.856575 -1.927739 0
M  V30 2 C 1.732738 -2.294726 -0.874510 0
M  V30 3 C 2.788786 -1.686156 -0.244759 0
M  V30 4 O 4.122841 -1.495950 -0.408751 0
M  V30 5 C 4.851967 -0.870813 -1.368967 0
M  V30 6 C 5.508518 0.170630 -0.680849 0
M  V30 7 C 6.376160 1.070171 -1.316280 0
M  V30 8 C 6.613940 0.947404 -2.686975 0
M  V30 9 F 7.419608 1.739359 -3.418729 0
M  V30 10 C 5.981317 -0.061561 -3.366299 0
M  V30 11 C 5.140022 -0.921782 -2.710022 0
M  V30 12 F 4.499967 -1.934052 -3.295261 0
M  V30 13 C 2.423395 -1.043311 0.955844 0
M  V30 14 C 1.108335 -1.044484 1.428440 0
M  V30 15 C 0.690458 -0.435216 2.591902 0
M  V30 16 N -0.581564 -0.455928 3.016274 0
M  V30 17 C -1.523012 -1.091362 2.299605 0
M  V30 18 N -2.877387 -1.124849 2.732443 0
M  V30 19 C -3.182569 -0.440897 3.979338 0
M  V30 20 C -2.857468 1.017754 3.924763 0
M  V30 21 C -3.952992 1.948837 4.246047 0
M  V30 22 O -5.236229 1.557453 4.038140 0
M  V30 23 C -5.352194 0.367822 3.337507 0
M  V30 24 C -4.675233 -0.683241 4.226330 0
M  V30 25 N -1.153798 -1.709291 1.139303 0
M  V30 26 C 0.121210 -1.685612 0.718797 0
M  V30 27 N 0.473542 -2.295709 -0.422156 0
M  V30 28 C -0.478052 -3.003018 -1.254553 0
M  V30 29 C -1.060203 -2.019632 -2.266156 0 CFG=2
M  V30 30 O -1.691678 -0.993203 -1.565720 0
M  V30 31 C -2.178523 -2.776263 -2.975574 0
M  V30 32 O -2.813630 -1.861638 -3.820579 0
M  V30 33 H 5.498986 0.485475 0.378345 0
M  V30 34 H 6.929454 1.897698 -0.898863 0
M  V30 35 H 6.069632 -0.273063 -4.412702 0
M  V30 36 H 3.051847 -0.490771 1.647677 0
M  V30 37 H 1.436245 0.080782 3.180611 0
M  V30 38 H -3.580753 -1.628956 2.148231 0
M  V30 39 H -2.647767 -0.990122 4.780755 0
M  V30 40 H -2.041274 1.179907 4.669573 0
M  V30 41 H -2.386397 1.242786 2.943527 0
M  V30 42 H -3.787728 2.907691 3.674969 0
M  V30 43 H -3.892956 2.295861 5.319284 0
M  V30 44 H -6.388146 0.117461 3.126018 0
M  V30 45 H -4.777924 0.457712 2.397057 0
M  V30 46 H -4.969366 -1.673637 3.853421 0
M  V30 47 H -4.926985 -0.524257 5.302497 0
M  V30 48 H -1.327963 -3.337909 -0.632668 0
M  V30 49 H -0.048183 -3.869609 -1.786172 0
M  V30 50 H -0.308369 -1.630424 -2.960020 0
M  V30 51 H -1.257946 -0.135596 -1.794723 0
M  V30 52 H -1.776522 -3.611203 -3.552021 0
M  V30 53 H -2.895639 -3.084157 -2.189045 0
M  V30 54 H -2.393491 -0.973279 -3.817908 0
M  V30 END ATOM
M  V30 BEGIN BOND
M  V30 1 2 1 2
M  V30 2 1 2 3
M  V30 3 1 3 4
M  V30 4 1 4 5
M  V30 5 2 5 6
M  V30 6 1 6 7
M  V30 7 2 7 8
M  V30 8 1 8 9
M  V30 9 1 8 10
M  V30 10 2 10 11
M  V30 11 1 11 12
M  V30 12 2 3 13
M  V30 13 1 13 14
M  V30 14 2 14 15
M  V30 15 1 15 16
M  V30 16 2 16 17
M  V30 17 1 17 18
M  V30 18 1 18 19
M  V30 19 1 19 20
M  V30 20 1 20 21
M  V30 21 1 21 22
M  V30 22 1 22 23
M  V30 23 1 23 24
M  V30 24 1 17 25
M  V30 25 2 25 26
M  V30 26 1 26 27
M  V30 27 1 27 28
M  V30 28 1 28 29
M  V30 29 1 29 30
M  V30 30 1 29 31
M  V30 31 1 31 32
M  V30 32 1 27 2
M  V30 33 1 11 5
M  V30 34 1 26 14
M  V30 35 1 24 19
M  V30 36 1 6 33
M  V30 37 1 7 34
M  V30 38 1 10 35
M  V30 39 1 13 36
M  V30 40 1 15 37
M  V30 41 1 18 38
M  V30 42 1 19 39
M  V30 43 1 20 40
M  V30 44 1 20 41
M  V30 45 1 21 42
M  V30 46 1 21 43
M  V30 47 1 23 44
M  V30 48 1 23 45
M  V30 49 1 24 46
M  V30 50 1 24 47
M  V30 51 1 28 48
M  V30 52 1 28 49
M  V30 53 1 29 50 CFG=3
M  V30 54 1 30 51
M  V30 55 1 31 52
M  V30 56 1 31 53
M  V30 57 1 32 54
M  V30 END BOND
M  V30 END CTAB
M  END
>  <Dataset>  (982) 
ChEMBL_Kinases

>  <Ligand_Instance>  (982) 
nan

>  <PDB_ID>  (982) 
nan

>  <Standardized_SMILES>  (982) 
O=c1c(Oc2ccc(F)cc2F)cc2cnc(NC3CCOCC3)nc2n1C[C@H](O)CO

>  <Name>  (982) 
nan

>  <Pocket>  (982) 
nan

>  <ATP_Site>  (982) 
nan

>  <Peripheral>  (982) 
nan

>  <Num_H_Atoms_ProtBoundConf>  (982) 
nan

>  <Num_Resolved_Atoms>  (982) 
nan

>  <Num_Not_Resolved_Atoms>  (982) 
nan

$$$$
CHEMBL1766504
     RDKit          3D

  0  0  0  0  0  0  0  0  0  0999 V3000
M  V30 BEGIN CTAB
M  V30 COUNTS 56 59 0 0 0
M  V30 BEGIN ATOM
M  V30 1 C 2.002973 0.187190 3.454115 0
M  V30 2 C 1.770945 -1.168098 2.867199 0
M  V30 3 C 2.694148 -2.133857 3.582297 0
M  V30 4 O 0.478894 -1.615444 3.135124 0
M  V30 5 C 2.051394 -1.270012 1.410200 0
M  V30 6 N 1.295743 -0.428283 0.546660 0
M  V30 7 C 1.827515 0.773577 0.294725 0
M  V30 8 O 2.920912 1.138487 0.781919 0
M  V30 9 C 1.290663 1.753119 -0.500283 0
M  V30 10 O 1.513728 3.003589 -0.964042 0
M  V30 11 C 1.612995 4.129356 -0.219764 0
M  V30 12 C 0.522763 4.901282 -0.679942 0
M  V30 13 C 0.223912 6.180834 -0.179629 0
M  V30 14 C 1.029192 6.732571 0.818343 0
M  V30 15 F 0.857044 7.945054 1.385947 0
M  V30 16 C 2.097829 6.002525 1.284417 0
M  V30 17 C 2.339952 4.760112 0.757898 0
M  V30 18 F 3.372557 3.981804 1.134298 0
M  V30 19 C 0.056854 1.354106 -1.060607 0
M  V30 20 C -0.528561 0.102680 -0.817995 0
M  V30 21 C -1.726219 -0.337488 -1.336405 0
M  V30 22 N -2.203464 -1.558516 -1.042314 0
M  V30 23 C -1.549268 -2.412425 -0.235154 0
M  V30 24 N -2.062238 -3.703092 0.070527 0
M  V30 25 C -3.319047 -4.104686 -0.502382 0
M  V30 26 C -3.650119 -5.520686 -0.025945 0
M  V30 27 C -2.449857 -6.359404 -0.354704 0
M  V30 28 O -1.597092 -5.794811 -1.285220 0
M  V30 29 C -2.224742 -5.234965 -2.378955 0
M  V30 30 C -3.259798 -4.190360 -2.014850 0
M  V30 31 N -0.357464 -2.011097 0.298287 0
M  V30 32 C 0.123367 -0.789541 0.006120 0
M  V30 33 H 3.072550 0.479489 3.447359 0
M  V30 34 H 1.390619 0.997799 3.060436 0
M  V30 35 H 1.757460 0.103440 4.553796 0
M  V30 36 H 2.272328 -2.476588 4.550789 0
M  V30 37 H 2.752644 -3.059700 2.943124 0
M  V30 38 H 3.729690 -1.739785 3.671704 0
M  V30 39 H 0.453485 -2.596455 2.997434 0
M  V30 40 H 3.147975 -1.115674 1.240668 0
M  V30 41 H 1.880095 -2.327130 1.090631 0
M  V30 42 H -0.263967 4.733781 -1.437020 0
M  V30 43 H -0.565069 6.871478 -0.435164 0
M  V30 44 H 2.799666 6.283253 2.036710 0
M  V30 45 H -0.613532 1.913750 -1.736777 0
M  V30 46 H -2.256075 0.345337 -1.985947 0
M  V30 47 H -1.534822 -4.328755 0.691209 0
M  V30 48 H -4.144686 -3.409271 -0.247375 0
M  V30 49 H -3.839327 -5.561847 1.062211 0
M  V30 50 H -4.552680 -5.830964 -0.601559 0
M  V30 51 H -1.855965 -6.511913 0.569733 0
M  V30 52 H -2.798235 -7.366962 -0.700524 0
M  V30 53 H -1.416013 -4.676499 -2.931626 0
M  V30 54 H -2.604899 -5.997663 -3.091151 0
M  V30 55 H -3.097277 -3.233920 -2.511661 0
M  V30 56 H -4.245971 -4.614582 -2.344039 0
M  V30 END ATOM
M  V30 BEGIN BOND
M  V30 1 1 1 2
M  V30 2 1 2 3
M  V30 3 1 2 4
M  V30 4 1 2 5
M  V30 5 1 5 6
M  V30 6 1 6 7
M  V30 7 2 7 8
M  V30 8 1 7 9
M  V30 9 1 9 10
M  V30 10 1 10 11
M  V30 11 2 11 12
M  V30 12 1 12 13
M  V30 13 2 13 14
M  V30 14 1 14 15
M  V30 15 1 14 16
M  V30 16 2 16 17
M  V30 17 1 17 18
M  V30 18 2 9 19
M  V30 19 1 19 20
M  V30 20 2 20 21
M  V30 21 1 21 22
M  V30 22 2 22 23
M  V30 23 1 23 24
M  V30 24 1 24 25
M  V30 25 1 25 26
M  V30 26 1 26 27
M  V30 27 1 27 28
M  V30 28 1 28 29
M  V30 29 1 29 30
M  V30 30 1 23 31
M  V30 31 2 31 32
M  V30 32 1 32 6
M  V30 33 1 17 11
M  V30 34 1 32 20
M  V30 35 1 30 25
M  V30 36 1 1 33
M  V30 37 1 1 34
M  V30 38 1 1 35
M  V30 39 1 3 36
M  V30 40 1 3 37
M  V30 41 1 3 38
M  V30 42 1 4 39
M  V30 43 1 5 40
M  V30 44 1 5 41
M  V30 45 1 12 42
M  V30 46 1 13 43
M  V30 47 1 16 44
M  V30 48 1 19 45
M  V30 49 1 21 46
M  V30 50 1 24 47
M  V30 51 1 25 48
M  V30 52 1 26 49
M  V30 53 1 26 50
M  V30 54 1 27 51
M  V30 55 1 27 52
M  V30 56 1 29 53
M  V30 57 1 29 54
M  V30 58 1 30 55
M  V30 59 1 30 56
M  V30 END BOND
M  V30 END CTAB
M  END
>  <Dataset>  (983) 
ChEMBL_Kinases

>  <Ligand_Instance>  (983) 
nan

>  <PDB_ID>  (983) 
nan

>  <Standardized_SMILES>  (983) 
CC(C)(O)Cn1c(=O)c(Oc2ccc(F)cc2F)cc2cnc(NC3CCOCC3)nc21

>  <Name>  (983) 
nan

>  <Pocket>  (983) 
nan

>  <ATP_Site>  (983) 
nan

>  <Peripheral>  (983) 
nan

>  <Num_H_Atoms_ProtBoundConf>  (983) 
nan

>  <Num_Resolved_Atoms>  (983) 
nan

>  <Num_Not_Resolved_Atoms>  (983) 
nan

$$$$
CHEMBL1766503
     RDKit          3D

  0  0  0  0  0  0  0  0  0  0999 V3000
M  V30 BEGIN CTAB
M  V30 COUNTS 59 63 0 0 0
M  V30 BEGIN ATOM
M  V30 1 O 3.321900 -1.121933 1.192612 0
M  V30 2 C 2.184371 -0.804641 1.626511 0
M  V30 3 C 2.393957 0.027297 2.706819 0
M  V30 4 O 3.630075 0.447113 3.226475 0
M  V30 5 C 4.472932 1.157088 2.387477 0
M  V30 6 C 5.749293 0.755654 2.028434 0
M  V30 7 C 6.536304 1.507229 1.190359 0
M  V30 8 C 6.038575 2.698335 0.691818 0
M  V30 9 F 6.781641 3.474450 -0.140474 0
M  V30 10 C 4.766070 3.103099 1.046964 0
M  V30 11 C 3.971114 2.357297 1.885229 0
M  V30 12 F 2.724151 2.796021 2.207355 0
M  V30 13 C 1.294411 0.545318 3.407132 0
M  V30 14 C 0.060858 0.145629 2.914776 0
M  V30 15 C -1.013896 0.640386 3.609987 0
M  V30 16 N -2.214982 0.266253 3.176308 0
M  V30 17 C -2.416993 -0.560720 2.105710 0
M  V30 18 N -3.789424 -0.863749 1.797848 0
M  V30 19 C -4.432639 -1.661243 0.828441 0
M  V30 20 C -4.202753 -1.325312 -0.609147 0
M  V30 21 C -5.447023 -1.831575 -1.371184 0
M  V30 22 O -5.885524 -3.027976 -0.753729 0
M  V30 23 C -4.797634 -3.779554 -0.274555 0
M  V30 24 C -4.157000 -3.159694 0.949702 0
M  V30 25 N -1.336627 -1.015696 1.459733 0
M  V30 26 C -0.109109 -0.695070 1.821822 0
M  V30 27 N 0.974190 -1.175010 1.169103 0
M  V30 28 C 0.922903 -2.020460 0.041610 0
M  V30 29 C -0.336755 -2.038701 -0.769317 0
M  V30 30 C -0.607337 -0.766256 -1.497924 0
M  V30 31 S 0.628182 -0.729917 -2.815032 0
M  V30 32 O 1.327553 0.598675 -2.821332 0
M  V30 33 O 0.009523 -0.970148 -4.152102 0
M  V30 34 C 1.801428 -1.952965 -2.338321 0
M  V30 35 C 2.097565 -1.749384 -0.862391 0
M  V30 36 H 6.057809 -0.178313 2.458306 0
M  V30 37 H 7.538328 1.155413 0.931069 0
M  V30 38 H 4.354100 4.027389 0.672357 0
M  V30 39 H 1.387377 1.201917 4.260511 0
M  V30 40 H -0.951521 1.287996 4.452909 0
M  V30 41 H -4.504003 -0.386377 2.436013 0
M  V30 42 H -5.554111 -1.594732 0.973376 0
M  V30 43 H -4.062808 -0.273376 -0.846661 0
M  V30 44 H -3.388805 -1.995754 -1.019937 0
M  V30 45 H -6.277128 -1.105437 -1.253183 0
M  V30 46 H -5.226404 -2.045878 -2.416551 0
M  V30 47 H -5.259648 -4.779085 -0.022505 0
M  V30 48 H -4.108763 -3.897570 -1.127992 0
M  V30 49 H -4.648141 -3.557563 1.864558 0
M  V30 50 H -3.075717 -3.382671 0.923600 0
M  V30 51 H 1.059397 -3.075439 0.404653 0
M  V30 52 H -0.112769 -2.800671 -1.588584 0
M  V30 53 H -1.206351 -2.515203 -0.280767 0
M  V30 54 H -1.591974 -0.835509 -1.995682 0
M  V30 55 H -0.485619 0.162338 -0.918753 0
M  V30 56 H 1.597239 -2.968026 -2.640673 0
M  V30 57 H 2.765779 -1.667332 -2.849751 0
M  V30 58 H 2.986992 -2.376172 -0.649113 0
M  V30 59 H 2.436310 -0.684720 -0.824370 0
M  V30 END ATOM
M  V30 BEGIN BOND
M  V30 1 2 1 2
M  V30 2 1 2 3
M  V30 3 1 3 4
M  V30 4 1 4 5
M  V30 5 2 5 6
M  V30 6 1 6 7
M  V30 7 2 7 8
M  V30 8 1 8 9
M  V30 9 1 8 10
M  V30 10 2 10 11
M  V30 11 1 11 12
M  V30 12 2 3 13
M  V30 13 1 13 14
M  V30 14 2 14 15
M  V30 15 1 15 16
M  V30 16 2 16 17
M  V30 17 1 17 18
M  V30 18 1 18 19
M  V30 19 1 19 20
M  V30 20 1 20 21
M  V30 21 1 21 22
M  V30 22 1 22 23
M  V30 23 1 23 24
M  V30 24 1 17 25
M  V30 25 2 25 26
M  V30 26 1 26 27
M  V30 27 1 27 28
M  V30 28 1 28 29
M  V30 29 1 29 30
M  V30 30 1 30 31
M  V30 31 2 31 32
M  V30 32 2 31 33
M  V30 33 1 31 34
M  V30 34 1 34 35
M  V30 35 1 27 2
M  V30 36 1 35 28
M  V30 37 1 11 5
M  V30 38 1 26 14
M  V30 39 1 24 19
M  V30 40 1 6 36
M  V30 41 1 7 37
M  V30 42 1 10 38
M  V30 43 1 13 39
M  V30 44 1 15 40
M  V30 45 1 18 41
M  V30 46 1 19 42
M  V30 47 1 20 43
M  V30 48 1 20 44
M  V30 49 1 21 45
M  V30 50 1 21 46
M  V30 51 1 23 47
M  V30 52 1 23 48
M  V30 53 1 24 49
M  V30 54 1 24 50
M  V30 55 1 28 51
M  V30 56 1 29 52
M  V30 57 1 29 53
M  V30 58 1 30 54
M  V30 59 1 30 55
M  V30 60 1 34 56
M  V30 61 1 34 57
M  V30 62 1 35 58
M  V30 63 1 35 59
M  V30 END BOND
M  V30 END CTAB
M  END
>  <Dataset>  (984) 
ChEMBL_Kinases

>  <Ligand_Instance>  (984) 
nan

>  <PDB_ID>  (984) 
nan

>  <Standardized_SMILES>  (984) 
O=c1c(Oc2ccc(F)cc2F)cc2cnc(NC3CCOCC3)nc2n1C1CCS(=O)(=O)CC1

>  <Name>  (984) 
nan

>  <Pocket>  (984) 
nan

>  <ATP_Site>  (984) 
nan

>  <Peripheral>  (984) 
nan

>  <Num_H_Atoms_ProtBoundConf>  (984) 
nan

>  <Num_Resolved_Atoms>  (984) 
nan

>  <Num_Not_Resolved_Atoms>  (984) 
nan

$$$$
CHEMBL1766502
     RDKit          3D

  0  0  0  0  0  0  0  0  0  0999 V3000
M  V30 BEGIN CTAB
M  V30 COUNTS 58 61 0 0 0
M  V30 BEGIN ATOM
M  V30 1 C 4.432048 -1.847521 1.707531 0
M  V30 2 S 2.674635 -2.171818 1.572254 0
M  V30 3 O 2.373141 -3.431634 2.309944 0
M  V30 4 O 2.367864 -2.339361 0.138695 0
M  V30 5 C 1.745134 -0.845104 2.292104 0
M  V30 6 C 1.959888 0.450879 1.614845 0
M  V30 7 C 1.447684 0.616971 0.226003 0
M  V30 8 N 0.012304 0.601798 0.140737 0
M  V30 9 C -0.461502 1.873707 0.365973 0
M  V30 10 O 0.258520 2.902721 0.617219 0
M  V30 11 C -1.792331 2.244398 0.357002 0
M  V30 12 O -2.285470 3.520909 0.582184 0
M  V30 13 C -2.044054 4.186781 1.799736 0
M  V30 14 C -1.358345 5.374289 1.645615 0
M  V30 15 C -1.079215 6.096110 2.806712 0
M  V30 16 C -1.475811 5.633549 4.046925 0
M  V30 17 F -1.193269 6.352603 5.162807 0
M  V30 18 C -2.156901 4.435938 4.107101 0
M  V30 19 C -2.467200 3.671947 3.013655 0
M  V30 20 F -3.134748 2.495093 3.056803 0
M  V30 21 C -2.745426 1.275684 0.103003 0
M  V30 22 C -2.283770 0.001950 -0.124160 0
M  V30 23 C -3.188296 -0.988306 -0.392293 0
M  V30 24 N -2.694993 -2.207651 -0.619663 0
M  V30 25 C -1.365824 -2.511348 -0.599170 0
M  V30 26 N -1.067029 -3.871585 -0.874816 0
M  V30 27 C 0.161502 -4.603887 -0.970177 0
M  V30 28 C -0.020926 -6.083748 -1.264982 0
M  V30 29 C -0.961542 -6.182816 -2.450679 0
M  V30 30 O -0.718262 -5.163552 -3.372358 0
M  V30 31 C 0.614465 -4.814901 -3.430439 0
M  V30 32 C 0.976373 -4.075492 -2.161025 0
M  V30 33 N -0.515016 -1.506157 -0.330275 0
M  V30 34 C -0.953682 -0.263129 -0.094074 0
M  V30 35 H 4.700058 -1.285514 2.600832 0
M  V30 36 H 4.822684 -1.391932 0.755080 0
M  V30 37 H 4.923595 -2.841186 1.762774 0
M  V30 38 H 0.665687 -1.091612 2.249022 0
M  V30 39 H 2.002927 -0.746932 3.353749 0
M  V30 40 H 1.411214 1.224772 2.238027 0
M  V30 41 H 3.028432 0.772314 1.712645 0
M  V30 42 H 1.891022 1.568091 -0.169696 0
M  V30 43 H 1.875360 -0.166107 -0.449201 0
M  V30 44 H -1.036249 5.762577 0.703046 0
M  V30 45 H -0.550513 7.021491 2.738200 0
M  V30 46 H -2.463263 4.081660 5.080792 0
M  V30 47 H -3.809605 1.452287 0.072196 0
M  V30 48 H -4.236671 -0.772009 -0.413414 0
M  V30 49 H -1.837907 -4.520212 -1.051522 0
M  V30 50 H 0.717510 -4.459628 -0.025286 0
M  V30 51 H -0.386139 -6.663122 -0.417330 0
M  V30 52 H 0.973677 -6.452444 -1.651332 0
M  V30 53 H -0.728630 -7.132722 -2.983698 0
M  V30 54 H -2.006514 -6.237095 -2.139581 0
M  V30 55 H 0.721888 -4.087639 -4.271430 0
M  V30 56 H 1.267927 -5.696472 -3.588248 0
M  V30 57 H 0.677593 -3.033308 -2.279020 0
M  V30 58 H 2.060575 -4.170430 -1.922075 0
M  V30 END ATOM
M  V30 BEGIN BOND
M  V30 1 1 1 2
M  V30 2 2 2 3
M  V30 3 2 2 4
M  V30 4 1 2 5
M  V30 5 1 5 6
M  V30 6 1 6 7
M  V30 7 1 7 8
M  V30 8 1 8 9
M  V30 9 2 9 10
M  V30 10 1 9 11
M  V30 11 1 11 12
M  V30 12 1 12 13
M  V30 13 2 13 14
M  V30 14 1 14 15
M  V30 15 2 15 16
M  V30 16 1 16 17
M  V30 17 1 16 18
M  V30 18 2 18 19
M  V30 19 1 19 20
M  V30 20 2 11 21
M  V30 21 1 21 22
M  V30 22 2 22 23
M  V30 23 1 23 24
M  V30 24 2 24 25
M  V30 25 1 25 26
M  V30 26 1 26 27
M  V30 27 1 27 28
M  V30 28 1 28 29
M  V30 29 1 29 30
M  V30 30 1 30 31
M  V30 31 1 31 32
M  V30 32 1 25 33
M  V30 33 2 33 34
M  V30 34 1 34 8
M  V30 35 1 19 13
M  V30 36 1 34 22
M  V30 37 1 32 27
M  V30 38 1 1 35
M  V30 39 1 1 36
M  V30 40 1 1 37
M  V30 41 1 5 38
M  V30 42 1 5 39
M  V30 43 1 6 40
M  V30 44 1 6 41
M  V30 45 1 7 42
M  V30 46 1 7 43
M  V30 47 1 14 44
M  V30 48 1 15 45
M  V30 49 1 18 46
M  V30 50 1 21 47
M  V30 51 1 23 48
M  V30 52 1 26 49
M  V30 53 1 27 50
M  V30 54 1 28 51
M  V30 55 1 28 52
M  V30 56 1 29 53
M  V30 57 1 29 54
M  V30 58 1 31 55
M  V30 59 1 31 56
M  V30 60 1 32 57
M  V30 61 1 32 58
M  V30 END BOND
M  V30 END CTAB
M  END
>  <Dataset>  (985) 
ChEMBL_Kinases

>  <Ligand_Instance>  (985) 
nan

>  <PDB_ID>  (985) 
nan

>  <Standardized_SMILES>  (985) 
CS(=O)(=O)CCCn1c(=O)c(Oc2ccc(F)cc2F)cc2cnc(NC3CCOCC3)nc21

>  <Name>  (985) 
nan

>  <Pocket>  (985) 
nan

>  <ATP_Site>  (985) 
nan

>  <Peripheral>  (985) 
nan

>  <Num_H_Atoms_ProtBoundConf>  (985) 
nan

>  <Num_Resolved_Atoms>  (985) 
nan

>  <Num_Not_Resolved_Atoms>  (985) 
nan

$$$$
CHEMBL1766501
     RDKit          3D

  0  0  0  0  0  0  0  0  0  0999 V3000
M  V30 BEGIN CTAB
M  V30 COUNTS 55 58 0 0 0
M  V30 BEGIN ATOM
M  V30 1 C 4.157480 -2.231067 3.121895 0
M  V30 2 S 2.447282 -2.593399 3.303652 0
M  V30 3 O 2.137702 -2.750954 4.775965 0
M  V30 4 O 2.133362 -3.874393 2.587884 0
M  V30 5 C 1.431804 -1.243161 2.695064 0
M  V30 6 C 1.773998 -1.072734 1.238226 0
M  V30 7 N 1.049773 -0.030154 0.590730 0
M  V30 8 C 1.533611 1.228668 0.562332 0
M  V30 9 O 2.635145 1.551010 1.097089 0
M  V30 10 C 0.806809 2.215532 -0.073152 0
M  V30 11 O 1.208431 3.552812 -0.165616 0
M  V30 12 C 1.415134 4.305364 0.993904 0
M  V30 13 C 2.657144 4.854531 1.250597 0
M  V30 14 C 2.848783 5.597384 2.401737 0
M  V30 15 C 1.849869 5.825441 3.326410 0
M  V30 16 F 2.026954 6.550027 4.454708 0
M  V30 17 C 0.599253 5.269492 3.062888 0
M  V30 18 C 0.400129 4.522604 1.909004 0
M  V30 19 F -0.835392 3.997646 1.689753 0
M  V30 20 C -0.414262 1.950560 -0.687724 0
M  V30 21 C -0.894107 0.655073 -0.648502 0
M  V30 22 C -2.098692 0.255252 -1.222362 0
M  V30 23 N -2.516202 -1.022400 -1.153015 0
M  V30 24 C -1.771014 -1.949641 -0.521452 0
M  V30 25 N -2.204783 -3.293047 -0.445963 0
M  V30 26 C -3.451119 -3.690437 -1.043290 0
M  V30 27 C -3.697733 -5.166809 -0.833114 0
M  V30 28 C -2.713924 -6.025252 -1.553129 0
M  V30 29 O -2.150569 -5.573987 -2.684315 0
M  V30 30 C -2.451610 -4.380081 -3.222021 0
M  V30 31 C -3.462238 -3.520701 -2.545731 0
M  V30 32 N -0.601100 -1.570196 0.038024 0
M  V30 33 C -0.136071 -0.307947 -0.001298 0
M  V30 34 H 4.277517 -1.192137 2.707485 0
M  V30 35 H 4.712346 -2.351297 4.080902 0
M  V30 36 H 4.596560 -2.893798 2.352350 0
M  V30 37 H 0.381077 -1.402924 2.920541 0
M  V30 38 H 1.780244 -0.355825 3.263280 0
M  V30 39 H 2.868612 -0.833037 1.215854 0
M  V30 40 H 1.689738 -2.019317 0.671505 0
M  V30 41 H 3.497136 4.712010 0.556343 0
M  V30 42 H 3.829785 6.029382 2.601401 0
M  V30 43 H -0.225525 5.408971 3.743735 0
M  V30 44 H -1.012216 2.684206 -1.192025 0
M  V30 45 H -2.683028 1.029888 -1.728678 0
M  V30 46 H -1.623261 -3.999320 0.042433 0
M  V30 47 H -4.278974 -3.136819 -0.587657 0
M  V30 48 H -3.652160 -5.332094 0.262974 0
M  V30 49 H -4.722279 -5.435812 -1.155168 0
M  V30 50 H -1.893315 -6.269269 -0.819280 0
M  V30 51 H -3.213492 -7.005264 -1.751041 0
M  V30 52 H -1.515614 -3.773421 -3.332930 0
M  V30 53 H -2.791709 -4.536401 -4.280803 0
M  V30 54 H -3.325533 -2.466538 -2.864282 0
M  V30 55 H -4.464671 -3.837154 -2.898871 0
M  V30 END ATOM
M  V30 BEGIN BOND
M  V30 1 1 1 2
M  V30 2 2 2 3
M  V30 3 2 2 4
M  V30 4 1 2 5
M  V30 5 1 5 6
M  V30 6 1 6 7
M  V30 7 1 7 8
M  V30 8 2 8 9
M  V30 9 1 8 10
M  V30 10 1 10 11
M  V30 11 1 11 12
M  V30 12 2 12 13
M  V30 13 1 13 14
M  V30 14 2 14 15
M  V30 15 1 15 16
M  V30 16 1 15 17
M  V30 17 2 17 18
M  V30 18 1 18 19
M  V30 19 2 10 20
M  V30 20 1 20 21
M  V30 21 2 21 22
M  V30 22 1 22 23
M  V30 23 2 23 24
M  V30 24 1 24 25
M  V30 25 1 25 26
M  V30 26 1 26 27
M  V30 27 1 27 28
M  V30 28 1 28 29
M  V30 29 1 29 30
M  V30 30 1 30 31
M  V30 31 1 24 32
M  V30 32 2 32 33
M  V30 33 1 33 7
M  V30 34 1 18 12
M  V30 35 1 33 21
M  V30 36 1 31 26
M  V30 37 1 1 34
M  V30 38 1 1 35
M  V30 39 1 1 36
M  V30 40 1 5 37
M  V30 41 1 5 38
M  V30 42 1 6 39
M  V30 43 1 6 40
M  V30 44 1 13 41
M  V30 45 1 14 42
M  V30 46 1 17 43
M  V30 47 1 20 44
M  V30 48 1 22 45
M  V30 49 1 25 46
M  V30 50 1 26 47
M  V30 51 1 27 48
M  V30 52 1 27 49
M  V30 53 1 28 50
M  V30 54 1 28 51
M  V30 55 1 30 52
M  V30 56 1 30 53
M  V30 57 1 31 54
M  V30 58 1 31 55
M  V30 END BOND
M  V30 END CTAB
M  END
>  <Dataset>  (986) 
ChEMBL_Kinases

>  <Ligand_Instance>  (986) 
nan

>  <PDB_ID>  (986) 
nan

>  <Standardized_SMILES>  (986) 
CS(=O)(=O)CCn1c(=O)c(Oc2ccc(F)cc2F)cc2cnc(NC3CCOCC3)nc21

>  <Name>  (986) 
nan

>  <Pocket>  (986) 
nan

>  <ATP_Site>  (986) 
nan

>  <Peripheral>  (986) 
nan

>  <Num_H_Atoms_ProtBoundConf>  (986) 
nan

>  <Num_Resolved_Atoms>  (986) 
nan

>  <Num_Not_Resolved_Atoms>  (986) 
nan

$$$$
CHEMBL1766500
     RDKit          3D

  0  0  0  0  0  0  0  0  0  0999 V3000
M  V30 BEGIN CTAB
M  V30 COUNTS 53 56 0 0 0
M  V30 BEGIN ATOM
M  V30 1 O 2.142210 -3.317812 -1.571017 0
M  V30 2 C 1.684439 -2.319859 -0.928145 0
M  V30 3 C 2.127237 -0.991435 -0.990584 0
M  V30 4 O 3.182014 -0.910539 -1.890230 0
M  V30 5 C 3.808153 0.308140 -2.116718 0
M  V30 6 C 3.683867 0.685510 -3.457097 0
M  V30 7 C 4.229879 1.866882 -3.921518 0
M  V30 8 C 4.910855 2.691751 -3.049656 0
M  V30 9 F 5.472637 3.874388 -3.453430 0
M  V30 10 C 5.030330 2.313721 -1.727592 0
M  V30 11 C 4.490598 1.137424 -1.250059 0
M  V30 12 F 4.550460 0.667061 0.011155 0
M  V30 13 C 1.494635 -0.052782 -0.209854 0
M  V30 14 C 0.457182 -0.449399 0.598900 0
M  V30 15 C -0.133903 0.544314 1.357100 0
M  V30 16 N -1.152559 0.175449 2.156243 0
M  V30 17 C -1.599606 -1.100789 2.235244 0
M  V30 18 N -2.681941 -1.429302 3.099891 0
M  V30 19 C -3.276531 -0.355457 3.880847 0
M  V30 20 C -2.248645 0.251420 4.765990 0
M  V30 21 C -2.228884 1.747908 4.779399 0
M  V30 22 O -3.461587 2.324665 4.470291 0
M  V30 23 C -3.670013 2.029555 3.128003 0
M  V30 24 C -3.929548 0.574060 2.914127 0
M  V30 25 N -0.996076 -2.039838 1.479512 0
M  V30 26 C 0.027418 -1.759241 0.654621 0
M  V30 27 N 0.649415 -2.662439 -0.108455 0
M  V30 28 C 0.140643 -4.016306 0.005411 0
M  V30 29 C -0.969838 -4.197128 -1.037947 0
M  V30 30 C -1.534974 -5.609597 -0.953500 0
M  V30 31 O -2.555301 -5.781532 -1.909453 0
M  V30 32 H 3.172552 0.125153 -4.243802 0
M  V30 33 H 4.157789 2.197752 -4.949517 0
M  V30 34 H 5.545814 2.896327 -0.974089 0
M  V30 35 H 1.909515 0.913118 -0.340973 0
M  V30 36 H 0.217185 1.577017 1.302477 0
M  V30 37 H -3.001477 -2.419540 3.137275 0
M  V30 38 H -4.037198 -0.856097 4.548419 0
M  V30 39 H -2.372848 -0.059806 5.845143 0
M  V30 40 H -1.214867 -0.072929 4.522365 0
M  V30 41 H -1.441270 2.170000 4.100238 0
M  V30 42 H -1.961927 2.156428 5.785058 0
M  V30 43 H -4.573956 2.627006 2.829139 0
M  V30 44 H -2.864883 2.388981 2.467844 0
M  V30 45 H -5.039421 0.426507 2.987932 0
M  V30 46 H -3.682859 0.348168 1.850352 0
M  V30 47 H 0.937794 -4.753665 -0.289794 0
M  V30 48 H -0.197460 -4.280634 1.003938 0
M  V30 49 H -0.575117 -4.047940 -2.058748 0
M  V30 50 H -1.797570 -3.482216 -0.869484 0
M  V30 51 H -1.966412 -5.786459 0.062462 0
M  V30 52 H -0.693875 -6.308203 -1.130793 0
M  V30 53 H -2.576010 -4.971744 -2.479316 0
M  V30 END ATOM
M  V30 BEGIN BOND
M  V30 1 2 1 2
M  V30 2 1 2 3
M  V30 3 1 3 4
M  V30 4 1 4 5
M  V30 5 2 5 6
M  V30 6 1 6 7
M  V30 7 2 7 8
M  V30 8 1 8 9
M  V30 9 1 8 10
M  V30 10 2 10 11
M  V30 11 1 11 12
M  V30 12 2 3 13
M  V30 13 1 13 14
M  V30 14 2 14 15
M  V30 15 1 15 16
M  V30 16 2 16 17
M  V30 17 1 17 18
M  V30 18 1 18 19
M  V30 19 1 19 20
M  V30 20 1 20 21
M  V30 21 1 21 22
M  V30 22 1 22 23
M  V30 23 1 23 24
M  V30 24 1 17 25
M  V30 25 2 25 26
M  V30 26 1 26 27
M  V30 27 1 27 28
M  V30 28 1 28 29
M  V30 29 1 29 30
M  V30 30 1 30 31
M  V30 31 1 27 2
M  V30 32 1 11 5
M  V30 33 1 26 14
M  V30 34 1 24 19
M  V30 35 1 6 32
M  V30 36 1 7 33
M  V30 37 1 10 34
M  V30 38 1 13 35
M  V30 39 1 15 36
M  V30 40 1 18 37
M  V30 41 1 19 38
M  V30 42 1 20 39
M  V30 43 1 20 40
M  V30 44 1 21 41
M  V30 45 1 21 42
M  V30 46 1 23 43
M  V30 47 1 23 44
M  V30 48 1 24 45
M  V30 49 1 24 46
M  V30 50 1 28 47
M  V30 51 1 28 48
M  V30 52 1 29 49
M  V30 53 1 29 50
M  V30 54 1 30 51
M  V30 55 1 30 52
M  V30 56 1 31 53
M  V30 END BOND
M  V30 END CTAB
M  END
>  <Dataset>  (987) 
ChEMBL_Kinases

>  <Ligand_Instance>  (987) 
nan

>  <PDB_ID>  (987) 
nan

>  <Standardized_SMILES>  (987) 
O=c1c(Oc2ccc(F)cc2F)cc2cnc(NC3CCOCC3)nc2n1CCCO

>  <Name>  (987) 
nan

>  <Pocket>  (987) 
nan

>  <ATP_Site>  (987) 
nan

>  <Peripheral>  (987) 
nan

>  <Num_H_Atoms_ProtBoundConf>  (987) 
nan

>  <Num_Resolved_Atoms>  (987) 
nan

>  <Num_Not_Resolved_Atoms>  (987) 
nan

$$$$
CHEMBL1766499
     RDKit          3D

  0  0  0  0  0  0  0  0  0  0999 V3000
M  V30 BEGIN CTAB
M  V30 COUNTS 50 54 0 0 0
M  V30 BEGIN ATOM
M  V30 1 O 3.550145 -2.099385 -0.295806 0
M  V30 2 C 2.565010 -1.473232 0.196141 0
M  V30 3 C 2.787758 -0.122995 0.369241 0
M  V30 4 O 3.965276 0.541309 0.050472 0
M  V30 5 C 4.428694 0.536453 -1.258653 0
M  V30 6 C 5.675296 -0.004519 -1.527968 0
M  V30 7 C 6.051344 0.033402 -2.848156 0
M  V30 8 C 5.300887 0.551295 -3.870253 0
M  V30 9 F 5.767222 0.542130 -5.161366 0
M  V30 10 C 4.058970 1.084099 -3.564168 0
M  V30 11 C 3.635513 1.070340 -2.255837 0
M  V30 12 F 2.421445 1.589548 -1.946467 0
M  V30 13 C 1.794640 0.701476 0.902010 0
M  V30 14 C 0.598342 0.101219 1.240080 0
M  V30 15 C -0.448087 0.811480 1.771222 0
M  V30 16 N -1.578160 0.144841 2.071568 0
M  V30 17 C -1.764895 -1.159599 1.893568 0
M  V30 18 N -2.983788 -1.792991 2.233791 0
M  V30 19 C -4.050880 -0.963168 2.795279 0
M  V30 20 C -3.640490 -0.294394 4.066146 0
M  V30 21 C -3.894900 1.166451 4.150893 0
M  V30 22 O -4.014124 1.892260 3.038707 0
M  V30 23 C -4.441700 1.372857 1.873869 0
M  V30 24 C -4.686850 -0.082770 1.779893 0
M  V30 25 N -0.732072 -1.846645 1.372004 0
M  V30 26 C 0.430395 -1.250873 1.045897 0
M  V30 27 N 1.378225 -2.038343 0.537311 0
M  V30 28 C 1.310971 -3.438293 0.295932 0
M  V30 29 C 0.110897 -4.191516 -0.000467 0
M  V30 30 C 0.996404 -3.789814 -1.153718 0
M  V30 31 H 6.307547 -0.427934 -0.746351 0
M  V30 32 H 7.016714 -0.374449 -3.125006 0
M  V30 33 H 3.478711 1.487889 -4.375049 0
M  V30 34 H 1.842379 1.759098 1.085527 0
M  V30 35 H -0.377715 1.874207 1.947162 0
M  V30 36 H -3.064396 -2.841358 2.064619 0
M  V30 37 H -4.842266 -1.715440 3.100444 0
M  V30 38 H -4.040211 -0.781395 4.987023 0
M  V30 39 H -2.526668 -0.465786 4.167107 0
M  V30 40 H -4.850918 1.310466 4.731876 0
M  V30 41 H -3.119003 1.625594 4.813556 0
M  V30 42 H -5.347318 1.966692 1.601138 0
M  V30 43 H -3.712494 1.663078 1.083803 0
M  V30 44 H -5.802290 -0.238028 1.699489 0
M  V30 45 H -4.345179 -0.478334 0.774870 0
M  V30 46 H 2.163261 -3.993783 0.770683 0
M  V30 47 H -0.928832 -3.810384 0.042136 0
M  V30 48 H 0.117590 -5.284819 0.197007 0
M  V30 49 H 1.690882 -4.517865 -1.613674 0
M  V30 50 H 0.650238 -2.989510 -1.838259 0
M  V30 END ATOM
M  V30 BEGIN BOND
M  V30 1 2 1 2
M  V30 2 1 2 3
M  V30 3 1 3 4
M  V30 4 1 4 5
M  V30 5 2 5 6
M  V30 6 1 6 7
M  V30 7 2 7 8
M  V30 8 1 8 9
M  V30 9 1 8 10
M  V30 10 2 10 11
M  V30 11 1 11 12
M  V30 12 2 3 13
M  V30 13 1 13 14
M  V30 14 2 14 15
M  V30 15 1 15 16
M  V30 16 2 16 17
M  V30 17 1 17 18
M  V30 18 1 18 19
M  V30 19 1 19 20
M  V30 20 1 20 21
M  V30 21 1 21 22
M  V30 22 1 22 23
M  V30 23 1 23 24
M  V30 24 1 17 25
M  V30 25 2 25 26
M  V30 26 1 26 27
M  V30 27 1 27 28
M  V30 28 1 28 29
M  V30 29 1 29 30
M  V30 30 1 27 2
M  V30 31 1 30 28
M  V30 32 1 11 5
M  V30 33 1 26 14
M  V30 34 1 24 19
M  V30 35 1 6 31
M  V30 36 1 7 32
M  V30 37 1 10 33
M  V30 38 1 13 34
M  V30 39 1 15 35
M  V30 40 1 18 36
M  V30 41 1 19 37
M  V30 42 1 20 38
M  V30 43 1 20 39
M  V30 44 1 21 40
M  V30 45 1 21 41
M  V30 46 1 23 42
M  V30 47 1 23 43
M  V30 48 1 24 44
M  V30 49 1 24 45
M  V30 50 1 28 46
M  V30 51 1 29 47
M  V30 52 1 29 48
M  V30 53 1 30 49
M  V30 54 1 30 50
M  V30 END BOND
M  V30 END CTAB
M  END
>  <Dataset>  (988) 
ChEMBL_Kinases

>  <Ligand_Instance>  (988) 
nan

>  <PDB_ID>  (988) 
nan

>  <Standardized_SMILES>  (988) 
O=c1c(Oc2ccc(F)cc2F)cc2cnc(NC3CCOCC3)nc2n1C1CC1

>  <Name>  (988) 
nan

>  <Pocket>  (988) 
nan

>  <ATP_Site>  (988) 
nan

>  <Peripheral>  (988) 
nan

>  <Num_H_Atoms_ProtBoundConf>  (988) 
nan

>  <Num_Resolved_Atoms>  (988) 
nan

>  <Num_Not_Resolved_Atoms>  (988) 
nan

$$$$
CHEMBL1766498
     RDKit          3D

  0  0  0  0  0  0  0  0  0  0999 V3000
M  V30 BEGIN CTAB
M  V30 COUNTS 49 52 0 0 0
M  V30 BEGIN ATOM
M  V30 1 C -2.702222 1.693228 2.658701 0
M  V30 2 C -2.083157 1.595730 1.278763 0
M  V30 3 N -0.734695 1.078279 1.388736 0
M  V30 4 C 0.247552 1.973436 1.546167 0
M  V30 5 O 0.007844 3.201228 1.597398 0
M  V30 6 C 1.574169 1.694202 1.667895 0
M  V30 7 O 2.754363 2.339854 1.831332 0
M  V30 8 C 3.442078 3.238746 1.107089 0
M  V30 9 C 4.659277 2.602425 0.788538 0
M  V30 10 C 5.666912 3.217168 0.031597 0
M  V30 11 C 5.480613 4.512665 -0.437318 0
M  V30 12 F 6.356177 5.226592 -1.172981 0
M  V30 13 C 4.301576 5.161284 -0.142380 0
M  V30 14 C 3.348833 4.511514 0.603184 0
M  V30 15 F 2.174557 5.078318 0.947428 0
M  V30 16 C 1.848271 0.314642 1.612999 0
M  V30 17 C 0.839159 -0.643429 1.449119 0
M  V30 18 C 1.053049 -2.002206 1.389045 0
M  V30 19 N 0.049627 -2.876181 1.230757 0
M  V30 20 C -1.225483 -2.464635 1.122035 0
M  V30 21 N -2.292928 -3.388582 0.953998 0
M  V30 22 C -2.022274 -4.791864 0.897107 0
M  V30 23 C -1.107141 -5.192271 -0.237599 0
M  V30 24 C -1.711020 -4.798893 -1.571751 0
M  V30 25 O -2.951617 -4.210380 -1.335392 0
M  V30 26 C -3.777490 -5.190532 -0.783119 0
M  V30 27 C -3.330296 -5.543363 0.615479 0
M  V30 28 N -1.468461 -1.127708 1.177734 0
M  V30 29 C -0.473698 -0.237679 1.336092 0
M  V30 30 H -1.918986 1.651167 3.439519 0
M  V30 31 H -3.186792 2.679655 2.711206 0
M  V30 32 H -3.491522 0.922841 2.794691 0
M  V30 33 H -2.704201 0.942290 0.627593 0
M  V30 34 H -2.027407 2.583036 0.778556 0
M  V30 35 H 5.047758 1.600401 1.032085 0
M  V30 36 H 6.624078 2.829933 -0.267796 0
M  V30 37 H 4.014130 6.161787 -0.434467 0
M  V30 38 H 2.810159 -0.186610 1.683459 0
M  V30 39 H 2.061316 -2.353141 1.473463 0
M  V30 40 H -3.263477 -3.024895 0.874352 0
M  V30 41 H -1.612419 -5.201027 1.840644 0
M  V30 42 H -1.029070 -6.314428 -0.170994 0
M  V30 43 H -0.100710 -4.783011 -0.186151 0
M  V30 44 H -1.069472 -4.039343 -2.087121 0
M  V30 45 H -1.830650 -5.721065 -2.200349 0
M  V30 46 H -4.818778 -4.792511 -0.740974 0
M  V30 47 H -3.713711 -6.059542 -1.469673 0
M  V30 48 H -3.034766 -6.615131 0.607421 0
M  V30 49 H -4.086152 -5.359446 1.389484 0
M  V30 END ATOM
M  V30 BEGIN BOND
M  V30 1 1 1 2
M  V30 2 1 2 3
M  V30 3 1 3 4
M  V30 4 2 4 5
M  V30 5 1 4 6
M  V30 6 1 6 7
M  V30 7 1 7 8
M  V30 8 2 8 9
M  V30 9 1 9 10
M  V30 10 2 10 11
M  V30 11 1 11 12
M  V30 12 1 11 13
M  V30 13 2 13 14
M  V30 14 1 14 15
M  V30 15 2 6 16
M  V30 16 1 16 17
M  V30 17 2 17 18
M  V30 18 1 18 19
M  V30 19 2 19 20
M  V30 20 1 20 21
M  V30 21 1 21 22
M  V30 22 1 22 23
M  V30 23 1 23 24
M  V30 24 1 24 25
M  V30 25 1 25 26
M  V30 26 1 26 27
M  V30 27 1 20 28
M  V30 28 2 28 29
M  V30 29 1 29 3
M  V30 30 1 14 8
M  V30 31 1 29 17
M  V30 32 1 27 22
M  V30 33 1 1 30
M  V30 34 1 1 31
M  V30 35 1 1 32
M  V30 36 1 2 33
M  V30 37 1 2 34
M  V30 38 1 9 35
M  V30 39 1 10 36
M  V30 40 1 13 37
M  V30 41 1 16 38
M  V30 42 1 18 39
M  V30 43 1 21 40
M  V30 44 1 22 41
M  V30 45 1 23 42
M  V30 46 1 23 43
M  V30 47 1 24 44
M  V30 48 1 24 45
M  V30 49 1 26 46
M  V30 50 1 26 47
M  V30 51 1 27 48
M  V30 52 1 27 49
M  V30 END BOND
M  V30 END CTAB
M  END
>  <Dataset>  (989) 
ChEMBL_Kinases

>  <Ligand_Instance>  (989) 
nan

>  <PDB_ID>  (989) 
nan

>  <Standardized_SMILES>  (989) 
CCn1c(=O)c(Oc2ccc(F)cc2F)cc2cnc(NC3CCOCC3)nc21

>  <Name>  (989) 
nan

>  <Pocket>  (989) 
nan

>  <ATP_Site>  (989) 
nan

>  <Peripheral>  (989) 
nan

>  <Num_H_Atoms_ProtBoundConf>  (989) 
nan

>  <Num_Resolved_Atoms>  (989) 
nan

>  <Num_Not_Resolved_Atoms>  (989) 
nan

$$$$
CHEMBL1766497
     RDKit          3D

  0  0  0  0  0  0  0  0  0  0999 V3000
M  V30 BEGIN CTAB
M  V30 COUNTS 43 46 0 0 0
M  V30 BEGIN ATOM
M  V30 1 O 1.609950 -4.624618 1.698170 0
M  V30 2 C 1.295124 -3.433532 1.710340 0
M  V30 3 N 1.932838 -2.478205 1.020028 0
M  V30 4 C 1.563506 -1.186645 1.057218 0
M  V30 5 N 2.254867 -0.285336 0.335299 0
M  V30 6 C 1.891833 1.033016 0.362334 0
M  V30 7 N 2.618754 1.990163 -0.397267 0
M  V30 8 C 2.252807 3.389102 -0.385887 0
M  V30 9 C 0.876180 3.679082 -0.878471 0
M  V30 10 C 0.819362 3.927206 -2.371069 0
M  V30 11 O 1.841803 4.714779 -2.849311 0
M  V30 12 C 3.102509 4.165031 -2.551940 0
M  V30 13 C 3.256386 4.264009 -1.056360 0
M  V30 14 N 0.838792 1.383444 1.123360 0
M  V30 15 C 0.138989 0.492894 1.849822 0
M  V30 16 C 0.480769 -0.842829 1.842907 0
M  V30 17 C -0.186127 -1.843950 2.565000 0
M  V30 18 C 0.207937 -3.199284 2.520583 0
M  V30 19 O -0.645210 -3.882689 3.327700 0
M  V30 20 C -1.533608 -4.871469 3.156038 0
M  V30 21 C -2.788359 -4.334036 3.514080 0
M  V30 22 C -3.981779 -5.073639 3.466623 0
M  V30 23 C -3.947292 -6.393452 3.051948 0
M  V30 24 F -5.023626 -7.181020 2.971512 0
M  V30 25 C -2.752863 -6.947817 2.698113 0
M  V30 26 C -1.610256 -6.186708 2.760209 0
M  V30 27 F -0.387347 -6.662133 2.439617 0
M  V30 28 H 2.733294 -2.844153 0.461099 0
M  V30 29 H 3.426719 1.670860 -0.968806 0
M  V30 30 H 2.272940 3.677826 0.706510 0
M  V30 31 H 0.217627 2.824057 -0.660308 0
M  V30 32 H 0.525752 4.617288 -0.364820 0
M  V30 33 H -0.130556 4.456403 -2.581345 0
M  V30 34 H 0.800645 2.914560 -2.863579 0
M  V30 35 H 3.850278 4.827163 -3.030919 0
M  V30 36 H 3.210966 3.120543 -2.852276 0
M  V30 37 H 2.995511 5.321159 -0.757821 0
M  V30 38 H 4.267407 4.055107 -0.704637 0
M  V30 39 H -0.702757 0.785471 2.455744 0
M  V30 40 H -1.008686 -1.387728 3.123577 0
M  V30 41 H -3.063354 -3.324183 3.869220 0
M  V30 42 H -4.970200 -4.746207 3.718886 0
M  V30 43 H -2.576561 -7.958911 2.357669 0
M  V30 END ATOM
M  V30 BEGIN BOND
M  V30 1 2 1 2
M  V30 2 1 2 3
M  V30 3 1 3 4
M  V30 4 2 4 5
M  V30 5 1 5 6
M  V30 6 1 6 7
M  V30 7 1 7 8
M  V30 8 1 8 9
M  V30 9 1 9 10
M  V30 10 1 10 11
M  V30 11 1 11 12
M  V30 12 1 12 13
M  V30 13 2 6 14
M  V30 14 1 14 15
M  V30 15 2 15 16
M  V30 16 1 16 17
M  V30 17 2 17 18
M  V30 18 1 18 19
M  V30 19 1 19 20
M  V30 20 2 20 21
M  V30 21 1 21 22
M  V30 22 2 22 23
M  V30 23 1 23 24
M  V30 24 1 23 25
M  V30 25 2 25 26
M  V30 26 1 26 27
M  V30 27 1 18 2
M  V30 28 1 26 20
M  V30 29 1 16 4
M  V30 30 1 13 8
M  V30 31 1 3 28
M  V30 32 1 7 29
M  V30 33 1 8 30
M  V30 34 1 9 31
M  V30 35 1 9 32
M  V30 36 1 10 33
M  V30 37 1 10 34
M  V30 38 1 12 35
M  V30 39 1 12 36
M  V30 40 1 13 37
M  V30 41 1 13 38
M  V30 42 1 15 39
M  V30 43 1 17 40
M  V30 44 1 21 41
M  V30 45 1 22 42
M  V30 46 1 25 43
M  V30 END BOND
M  V30 END CTAB
M  END
>  <Dataset>  (990) 
ChEMBL_Kinases

>  <Ligand_Instance>  (990) 
nan

>  <PDB_ID>  (990) 
nan

>  <Standardized_SMILES>  (990) 
O=c1[nH]c2nc(NC3CCOCC3)ncc2cc1Oc1ccc(F)cc1F

>  <Name>  (990) 
nan

>  <Pocket>  (990) 
nan

>  <ATP_Site>  (990) 
nan

>  <Peripheral>  (990) 
nan

>  <Num_H_Atoms_ProtBoundConf>  (990) 
nan

>  <Num_Resolved_Atoms>  (990) 
nan

>  <Num_Not_Resolved_Atoms>  (990) 
nan

$$$$
CHEMBL1766496
     RDKit          3D

  0  0  0  0  0  0  0  0  0  0999 V3000
M  V30 BEGIN CTAB
M  V30 COUNTS 48 51 0 0 0
M  V30 BEGIN ATOM
M  V30 1 C 1.723563 -3.441098 1.801097 0
M  V30 2 N 1.441875 -2.041225 1.792635 0
M  V30 3 C 2.345001 -1.172396 2.262631 0
M  V30 4 O 3.413970 -1.633849 2.698808 0
M  V30 5 C 2.228024 0.194634 2.323234 0
M  V30 6 C 3.102533 1.261416 2.778447 0
M  V30 7 C 4.169226 1.689590 1.851692 0
M  V30 8 C 3.876438 2.848528 1.113446 0
M  V30 9 C 4.684717 3.449661 0.171416 0
M  V30 10 C 5.906177 2.864474 -0.080933 0
M  V30 11 F 6.776846 3.362107 -0.977618 0
M  V30 12 C 6.251318 1.725578 0.611910 0
M  V30 13 C 5.398819 1.179682 1.536839 0
M  V30 14 F 5.761242 0.077986 2.217000 0
M  V30 15 C 0.985660 0.605135 1.809142 0
M  V30 16 C 0.027001 -0.254973 1.315431 0
M  V30 17 C -1.187055 0.154116 0.814515 0
M  V30 18 N -2.021477 -0.792256 0.369795 0
M  V30 19 C -1.803842 -2.111687 0.357462 0
M  V30 20 N -2.756385 -3.059308 -0.136862 0
M  V30 21 C -4.077173 -2.844884 -0.677976 0
M  V30 22 C -4.179228 -1.888413 -1.799221 0
M  V30 23 C -4.741738 -0.541561 -1.543971 0
M  V30 24 O -5.534495 -0.373094 -0.453635 0
M  V30 25 C -5.316798 -1.161941 0.633225 0
M  V30 26 C -5.085406 -2.604948 0.372012 0
M  V30 27 N -0.616352 -2.499681 0.848241 0
M  V30 28 C 0.269568 -1.610899 1.310911 0
M  V30 29 H 0.782292 -4.021194 1.790435 0
M  V30 30 H 2.233894 -3.691926 2.763382 0
M  V30 31 H 2.433948 -3.690092 1.007593 0
M  V30 32 H 2.476248 2.146531 3.077785 0
M  V30 33 H 3.602101 0.866591 3.726907 0
M  V30 34 H 2.918902 3.375470 1.259375 0
M  V30 35 H 4.383636 4.343862 -0.355667 0
M  V30 36 H 7.195934 1.221478 0.458035 0
M  V30 37 H 0.682670 1.641397 1.759302 0
M  V30 38 H -1.404828 1.203479 0.804503 0
M  V30 39 H -2.387809 -4.053710 -0.071969 0
M  V30 40 H -4.344665 -3.895791 -1.105075 0
M  V30 41 H -4.845629 -2.350822 -2.600709 0
M  V30 42 H -3.218639 -1.746761 -2.345855 0
M  V30 43 H -3.878448 0.180635 -1.417071 0
M  V30 44 H -5.229030 -0.155650 -2.487458 0
M  V30 45 H -4.578412 -0.686313 1.335102 0
M  V30 46 H -6.303577 -1.127371 1.220875 0
M  V30 47 H -4.758998 -3.074981 1.328265 0
M  V30 48 H -6.057594 -3.032741 0.027301 0
M  V30 END ATOM
M  V30 BEGIN BOND
M  V30 1 1 1 2
M  V30 2 1 2 3
M  V30 3 2 3 4
M  V30 4 1 3 5
M  V30 5 1 5 6
M  V30 6 1 6 7
M  V30 7 2 7 8
M  V30 8 1 8 9
M  V30 9 2 9 10
M  V30 10 1 10 11
M  V30 11 1 10 12
M  V30 12 2 12 13
M  V30 13 1 13 14
M  V30 14 2 5 15
M  V30 15 1 15 16
M  V30 16 2 16 17
M  V30 17 1 17 18
M  V30 18 2 18 19
M  V30 19 1 19 20
M  V30 20 1 20 21
M  V30 21 1 21 22
M  V30 22 1 22 23
M  V30 23 1 23 24
M  V30 24 1 24 25
M  V30 25 1 25 26
M  V30 26 1 19 27
M  V30 27 2 27 28
M  V30 28 1 28 2
M  V30 29 1 13 7
M  V30 30 1 28 16
M  V30 31 1 26 21
M  V30 32 1 1 29
M  V30 33 1 1 30
M  V30 34 1 1 31
M  V30 35 1 6 32
M  V30 36 1 6 33
M  V30 37 1 8 34
M  V30 38 1 9 35
M  V30 39 1 12 36
M  V30 40 1 15 37
M  V30 41 1 17 38
M  V30 42 1 20 39
M  V30 43 1 21 40
M  V30 44 1 22 41
M  V30 45 1 22 42
M  V30 46 1 23 43
M  V30 47 1 23 44
M  V30 48 1 25 45
M  V30 49 1 25 46
M  V30 50 1 26 47
M  V30 51 1 26 48
M  V30 END BOND
M  V30 END CTAB
M  END
>  <Dataset>  (991) 
ChEMBL_Kinases

>  <Ligand_Instance>  (991) 
nan

>  <PDB_ID>  (991) 
nan

>  <Standardized_SMILES>  (991) 
Cn1c(=O)c(Cc2ccc(F)cc2F)cc2cnc(NC3CCOCC3)nc21

>  <Name>  (991) 
nan

>  <Pocket>  (991) 
nan

>  <ATP_Site>  (991) 
nan

>  <Peripheral>  (991) 
nan

>  <Num_H_Atoms_ProtBoundConf>  (991) 
nan

>  <Num_Resolved_Atoms>  (991) 
nan

>  <Num_Not_Resolved_Atoms>  (991) 
nan

$$$$
CHEMBL1766495
     RDKit          3D

  0  0  0  0  0  0  0  0  0  0999 V3000
M  V30 BEGIN CTAB
M  V30 COUNTS 48 51 0 0 0
M  V30 BEGIN ATOM
M  V30 1 C 1.002176 -3.467086 0.175215 0
M  V30 2 N 1.380593 -2.097967 0.469574 0
M  V30 3 C 2.669773 -1.746671 0.310629 0
M  V30 4 O 3.583649 -2.512047 -0.074947 0
M  V30 5 C 3.014891 -0.422578 0.599273 0
M  V30 6 C 4.424130 -0.001338 0.435578 0
M  V30 7 C 4.841667 0.205799 -0.952984 0
M  V30 8 C 5.627076 -0.696700 -1.642971 0
M  V30 9 C 6.023939 -0.497415 -2.965210 0
M  V30 10 C 5.606877 0.650571 -3.592608 0
M  V30 11 C 4.811603 1.573197 -2.907552 0
M  V30 12 C 4.418737 1.373919 -1.595044 0
M  V30 13 F 3.642342 2.289949 -0.947773 0
M  V30 14 C 2.043383 0.488488 1.035743 0
M  V30 15 C 0.731479 0.085888 1.185351 0
M  V30 16 C -0.290190 0.911292 1.609653 0
M  V30 17 N -1.523506 0.382089 1.710776 0
M  V30 18 C -1.840451 -0.892591 1.430002 0
M  V30 19 N -3.149468 -1.426451 1.546193 0
M  V30 20 C -4.301920 -0.703959 1.976613 0
M  V30 21 C -4.075179 -0.221743 3.391407 0
M  V30 22 C -5.334325 0.564347 3.760957 0
M  V30 23 O -6.399970 -0.330510 3.831478 0
M  V30 24 C -6.711100 -0.751592 2.541010 0
M  V30 25 C -5.558617 -1.542872 1.981823 0
M  V30 26 N -0.825504 -1.675654 1.018261 0
M  V30 27 C 0.438458 -1.231496 0.888219 0
M  V30 28 H 1.727279 -4.133243 0.713438 0
M  V30 29 H -0.016455 -3.705917 0.514217 0
M  V30 30 H 1.161489 -3.650279 -0.907139 0
M  V30 31 H 4.577081 0.890874 1.095661 0
M  V30 32 H 5.116869 -0.786969 0.854645 0
M  V30 33 H 5.966353 -1.610724 -1.161648 0
M  V30 34 H 6.641398 -1.232814 -3.468569 0
M  V30 35 H 5.885897 0.861613 -4.628499 0
M  V30 36 H 4.500139 2.474452 -3.444243 0
M  V30 37 H 2.285332 1.509190 1.263025 0
M  V30 38 H -0.058170 1.942031 1.841788 0
M  V30 39 H -3.303397 -2.432331 1.300603 0
M  V30 40 H -4.466216 0.177913 1.321727 0
M  V30 41 H -3.932643 -1.049474 4.099309 0
M  V30 42 H -3.186865 0.426541 3.387851 0
M  V30 43 H -5.151212 1.110430 4.690228 0
M  V30 44 H -5.483243 1.259850 2.893829 0
M  V30 45 H -7.628150 -1.376020 2.571235 0
M  V30 46 H -6.924027 0.132448 1.933415 0
M  V30 47 H -5.421477 -2.509506 2.483629 0
M  V30 48 H -5.796497 -1.772149 0.921557 0
M  V30 END ATOM
M  V30 BEGIN BOND
M  V30 1 1 1 2
M  V30 2 1 2 3
M  V30 3 2 3 4
M  V30 4 1 3 5
M  V30 5 1 5 6
M  V30 6 1 6 7
M  V30 7 2 7 8
M  V30 8 1 8 9
M  V30 9 2 9 10
M  V30 10 1 10 11
M  V30 11 2 11 12
M  V30 12 1 12 13
M  V30 13 2 5 14
M  V30 14 1 14 15
M  V30 15 2 15 16
M  V30 16 1 16 17
M  V30 17 2 17 18
M  V30 18 1 18 19
M  V30 19 1 19 20
M  V30 20 1 20 21
M  V30 21 1 21 22
M  V30 22 1 22 23
M  V30 23 1 23 24
M  V30 24 1 24 25
M  V30 25 1 18 26
M  V30 26 2 26 27
M  V30 27 1 27 2
M  V30 28 1 12 7
M  V30 29 1 27 15
M  V30 30 1 25 20
M  V30 31 1 1 28
M  V30 32 1 1 29
M  V30 33 1 1 30
M  V30 34 1 6 31
M  V30 35 1 6 32
M  V30 36 1 8 33
M  V30 37 1 9 34
M  V30 38 1 10 35
M  V30 39 1 11 36
M  V30 40 1 14 37
M  V30 41 1 16 38
M  V30 42 1 19 39
M  V30 43 1 20 40
M  V30 44 1 21 41
M  V30 45 1 21 42
M  V30 46 1 22 43
M  V30 47 1 22 44
M  V30 48 1 24 45
M  V30 49 1 24 46
M  V30 50 1 25 47
M  V30 51 1 25 48
M  V30 END BOND
M  V30 END CTAB
M  END
>  <Dataset>  (992) 
ChEMBL_Kinases

>  <Ligand_Instance>  (992) 
nan

>  <PDB_ID>  (992) 
nan

>  <Standardized_SMILES>  (992) 
Cn1c(=O)c(Cc2ccccc2F)cc2cnc(NC3CCOCC3)nc21

>  <Name>  (992) 
nan

>  <Pocket>  (992) 
nan

>  <ATP_Site>  (992) 
nan

>  <Peripheral>  (992) 
nan

>  <Num_H_Atoms_ProtBoundConf>  (992) 
nan

>  <Num_Resolved_Atoms>  (992) 
nan

>  <Num_Not_Resolved_Atoms>  (992) 
nan

$$$$
CHEMBL1766494
     RDKit          3D

  0  0  0  0  0  0  0  0  0  0999 V3000
M  V30 BEGIN CTAB
M  V30 COUNTS 46 49 0 0 0
M  V30 BEGIN ATOM
M  V30 1 C 2.286010 -3.072422 1.435663 0
M  V30 2 N 2.231508 -1.626679 1.468468 0
M  V30 3 C 3.340132 -0.896210 1.256673 0
M  V30 4 O 4.447454 -1.433956 1.025975 0
M  V30 5 C 3.178300 0.470418 1.309852 0
M  V30 6 S 4.609115 1.536924 1.038389 0
M  V30 7 C 4.756715 1.921598 -0.718472 0
M  V30 8 C 4.116886 3.038495 -1.224974 0
M  V30 9 C 4.219252 3.347663 -2.567027 0
M  V30 10 C 4.956308 2.560810 -3.441368 0
M  V30 11 C 5.583669 1.449472 -2.897467 0
M  V30 12 C 5.503762 1.108892 -1.560373 0
M  V30 13 F 6.131219 0.014353 -1.065882 0
M  V30 14 C 1.986401 1.127755 1.559354 0
M  V30 15 C 0.888262 0.327185 1.767983 0
M  V30 16 C -0.378145 0.809536 2.029822 0
M  V30 17 N -1.455647 0.026723 2.234573 0
M  V30 18 C -1.265165 -1.304616 2.176169 0
M  V30 19 N -2.370309 -2.186917 2.384987 0
M  V30 20 C -3.674837 -1.658227 2.655206 0
M  V30 21 C -4.194084 -0.775856 1.541713 0
M  V30 22 C -4.154890 -1.603559 0.285273 0
M  V30 23 O -5.129205 -2.568367 0.354525 0
M  V30 24 C -5.654332 -2.806727 1.598362 0
M  V30 25 C -4.666853 -2.819570 2.719652 0
M  V30 26 N -0.033953 -1.786915 1.921406 0
M  V30 27 C 1.047497 -1.042359 1.715282 0
M  V30 28 H 3.217359 -3.389890 1.967076 0
M  V30 29 H 1.444139 -3.547311 1.947915 0
M  V30 30 H 2.382827 -3.476178 0.415390 0
M  V30 31 H 3.533287 3.668901 -0.554150 0
M  V30 32 H 3.731520 4.216919 -3.005238 0
M  V30 33 H 5.052137 2.781607 -4.497529 0
M  V30 34 H 6.160068 0.838390 -3.593647 0
M  V30 35 H 1.880316 2.187993 1.596697 0
M  V30 36 H -0.501874 1.872453 2.070754 0
M  V30 37 H -2.197244 -3.223379 2.334536 0
M  V30 38 H -3.741390 -1.051805 3.587526 0
M  V30 39 H -3.700172 0.192140 1.460611 0
M  V30 40 H -5.259255 -0.561264 1.771495 0
M  V30 41 H -4.308534 -0.956660 -0.611436 0
M  V30 42 H -3.168575 -2.119987 0.238741 0
M  V30 43 H -6.518340 -2.163683 1.863647 0
M  V30 44 H -6.080988 -3.847846 1.557728 0
M  V30 45 H -4.115525 -3.796528 2.661256 0
M  V30 46 H -5.226529 -2.827785 3.672768 0
M  V30 END ATOM
M  V30 BEGIN BOND
M  V30 1 1 1 2
M  V30 2 1 2 3
M  V30 3 2 3 4
M  V30 4 1 3 5
M  V30 5 1 5 6
M  V30 6 1 6 7
M  V30 7 2 7 8
M  V30 8 1 8 9
M  V30 9 2 9 10
M  V30 10 1 10 11
M  V30 11 2 11 12
M  V30 12 1 12 13
M  V30 13 2 5 14
M  V30 14 1 14 15
M  V30 15 2 15 16
M  V30 16 1 16 17
M  V30 17 2 17 18
M  V30 18 1 18 19
M  V30 19 1 19 20
M  V30 20 1 20 21
M  V30 21 1 21 22
M  V30 22 1 22 23
M  V30 23 1 23 24
M  V30 24 1 24 25
M  V30 25 1 18 26
M  V30 26 2 26 27
M  V30 27 1 27 2
M  V30 28 1 12 7
M  V30 29 1 27 15
M  V30 30 1 25 20
M  V30 31 1 1 28
M  V30 32 1 1 29
M  V30 33 1 1 30
M  V30 34 1 8 31
M  V30 35 1 9 32
M  V30 36 1 10 33
M  V30 37 1 11 34
M  V30 38 1 14 35
M  V30 39 1 16 36
M  V30 40 1 19 37
M  V30 41 1 20 38
M  V30 42 1 21 39
M  V30 43 1 21 40
M  V30 44 1 22 41
M  V30 45 1 22 42
M  V30 46 1 24 43
M  V30 47 1 24 44
M  V30 48 1 25 45
M  V30 49 1 25 46
M  V30 END BOND
M  V30 END CTAB
M  END
>  <Dataset>  (993) 
ChEMBL_Kinases

>  <Ligand_Instance>  (993) 
nan

>  <PDB_ID>  (993) 
nan

>  <Standardized_SMILES>  (993) 
Cn1c(=O)c(Sc2ccccc2F)cc2cnc(NC3CCOCC3)nc21

>  <Name>  (993) 
nan

>  <Pocket>  (993) 
nan

>  <ATP_Site>  (993) 
nan

>  <Peripheral>  (993) 
nan

>  <Num_H_Atoms_ProtBoundConf>  (993) 
nan

>  <Num_Resolved_Atoms>  (993) 
nan

>  <Num_Not_Resolved_Atoms>  (993) 
nan

$$$$
CHEMBL1766493
     RDKit          3D

  0  0  0  0  0  0  0  0  0  0999 V3000
M  V30 BEGIN CTAB
M  V30 COUNTS 46 49 0 0 0
M  V30 BEGIN ATOM
M  V30 1 C 0.937065 -2.964194 -1.005013 0
M  V30 2 N 1.428277 -1.870499 -0.204166 0
M  V30 3 C 2.656443 -1.344658 -0.389683 0
M  V30 4 O 3.329681 -1.873290 -1.300150 0
M  V30 5 C 3.198845 -0.301395 0.331583 0
M  V30 6 O 4.446933 0.218430 0.128788 0
M  V30 7 C 4.942297 0.795304 -1.004124 0
M  V30 8 C 4.366973 1.025078 -2.233749 0
M  V30 9 C 5.077244 1.636099 -3.247386 0
M  V30 10 C 6.396953 2.039336 -3.059160 0
M  V30 11 C 6.993762 1.820156 -1.837760 0
M  V30 12 C 6.268681 1.200165 -0.813702 0
M  V30 13 F 6.995861 1.052620 0.336235 0
M  V30 14 C 2.386056 0.236012 1.331342 0
M  V30 15 C 1.110268 -0.287874 1.546222 0
M  V30 16 C 0.237735 0.176978 2.508424 0
M  V30 17 N -0.983394 -0.367740 2.671184 0
M  V30 18 C -1.394229 -1.388510 1.896451 0
M  V30 19 N -2.661440 -1.952234 2.066840 0
M  V30 20 C -3.548240 -1.457533 3.066648 0
M  V30 21 C -3.929833 -0.012895 2.934555 0
M  V30 22 C -4.942907 0.081349 1.823085 0
M  V30 23 O -6.143744 -0.416175 2.288004 0
M  V30 24 C -6.036599 -1.326153 3.314867 0
M  V30 25 C -4.830330 -2.256037 3.170073 0
M  V30 26 N -0.574559 -1.873736 0.944477 0
M  V30 27 C 0.648403 -1.334840 0.774893 0
M  V30 28 H 0.307817 -2.653319 -1.845991 0
M  V30 29 H 0.474895 -3.785302 -0.399977 0
M  V30 30 H 1.829124 -3.466337 -1.481048 0
M  V30 31 H 3.356439 0.685953 -2.289258 0
M  V30 32 H 4.490696 1.750166 -4.161070 0
M  V30 33 H 6.878117 2.509500 -3.904978 0
M  V30 34 H 8.012004 2.144157 -1.728892 0
M  V30 35 H 2.686106 1.056162 1.971081 0
M  V30 36 H 0.561382 0.991721 3.129279 0
M  V30 37 H -3.000443 -2.741909 1.479780 0
M  V30 38 H -2.988858 -1.531697 4.044484 0
M  V30 39 H -3.107744 0.692889 2.846705 0
M  V30 40 H -4.461126 0.249662 3.881905 0
M  V30 41 H -5.052298 1.087006 1.399661 0
M  V30 42 H -4.619262 -0.615742 0.995990 0
M  V30 43 H -6.097048 -0.892647 4.328782 0
M  V30 44 H -6.936312 -2.001172 3.213676 0
M  V30 45 H -4.810082 -2.879267 4.084757 0
M  V30 46 H -5.011312 -2.900054 2.284237 0
M  V30 END ATOM
M  V30 BEGIN BOND
M  V30 1 1 1 2
M  V30 2 1 2 3
M  V30 3 2 3 4
M  V30 4 1 3 5
M  V30 5 1 5 6
M  V30 6 1 6 7
M  V30 7 2 7 8
M  V30 8 1 8 9
M  V30 9 2 9 10
M  V30 10 1 10 11
M  V30 11 2 11 12
M  V30 12 1 12 13
M  V30 13 2 5 14
M  V30 14 1 14 15
M  V30 15 2 15 16
M  V30 16 1 16 17
M  V30 17 2 17 18
M  V30 18 1 18 19
M  V30 19 1 19 20
M  V30 20 1 20 21
M  V30 21 1 21 22
M  V30 22 1 22 23
M  V30 23 1 23 24
M  V30 24 1 24 25
M  V30 25 1 18 26
M  V30 26 2 26 27
M  V30 27 1 27 2
M  V30 28 1 12 7
M  V30 29 1 27 15
M  V30 30 1 25 20
M  V30 31 1 1 28
M  V30 32 1 1 29
M  V30 33 1 1 30
M  V30 34 1 8 31
M  V30 35 1 9 32
M  V30 36 1 10 33
M  V30 37 1 11 34
M  V30 38 1 14 35
M  V30 39 1 16 36
M  V30 40 1 19 37
M  V30 41 1 20 38
M  V30 42 1 21 39
M  V30 43 1 21 40
M  V30 44 1 22 41
M  V30 45 1 22 42
M  V30 46 1 24 43
M  V30 47 1 24 44
M  V30 48 1 25 45
M  V30 49 1 25 46
M  V30 END BOND
M  V30 END CTAB
M  END
>  <Dataset>  (994) 
ChEMBL_Kinases

>  <Ligand_Instance>  (994) 
nan

>  <PDB_ID>  (994) 
nan

>  <Standardized_SMILES>  (994) 
Cn1c(=O)c(Oc2ccccc2F)cc2cnc(NC3CCOCC3)nc21

>  <Name>  (994) 
nan

>  <Pocket>  (994) 
nan

>  <ATP_Site>  (994) 
nan

>  <Peripheral>  (994) 
nan

>  <Num_H_Atoms_ProtBoundConf>  (994) 
nan

>  <Num_Resolved_Atoms>  (994) 
nan

>  <Num_Not_Resolved_Atoms>  (994) 
nan

$$$$
CHEMBL1766492
     RDKit          3D

  0  0  0  0  0  0  0  0  0  0999 V3000
M  V30 BEGIN CTAB
M  V30 COUNTS 46 49 0 0 0
M  V30 BEGIN ATOM
M  V30 1 C 0.892459 -3.384879 -1.117719 0
M  V30 2 N 1.211139 -2.129699 -0.501382 0
M  V30 3 C 2.333862 -1.496847 -0.888853 0
M  V30 4 O 3.143132 -1.909559 -1.754335 0
M  V30 5 C 2.681928 -0.286603 -0.324429 0
M  V30 6 O 3.775039 0.517693 -0.574477 0
M  V30 7 C 4.096001 1.089589 -1.774724 0
M  V30 8 C 3.461534 1.053531 -2.998760 0
M  V30 9 C 3.992443 1.725069 -4.083848 0
M  V30 10 C 5.157325 2.447017 -3.992863 0
M  V30 11 C 5.807168 2.496381 -2.779742 0
M  V30 12 F 6.952023 3.217901 -2.729522 0
M  V30 13 C 5.274990 1.818817 -1.677626 0
M  V30 14 C 1.848252 0.262945 0.651729 0
M  V30 15 C 0.695388 -0.388708 1.048459 0
M  V30 16 C -0.182542 0.081512 2.003197 0
M  V30 17 N -1.296645 -0.639182 2.325189 0
M  V30 18 C -1.558363 -1.809580 1.724850 0
M  V30 19 N -2.725356 -2.554040 2.069319 0
M  V30 20 C -3.601589 -1.980483 3.092528 0
M  V30 21 C -4.149478 -0.650045 2.734457 0
M  V30 22 C -4.119118 0.419334 3.755051 0
M  V30 23 O -3.230606 0.291550 4.780915 0
M  V30 24 C -3.271343 -0.947056 5.360801 0
M  V30 25 C -2.922821 -2.060356 4.424613 0
M  V30 26 N -0.700124 -2.268631 0.791949 0
M  V30 27 C 0.412100 -1.594832 0.439652 0
M  V30 28 H -0.187896 -3.471183 -1.353885 0
M  V30 29 H 1.150666 -4.193242 -0.385551 0
M  V30 30 H 1.465939 -3.549779 -2.047106 0
M  V30 31 H 2.558810 0.469153 -2.981863 0
M  V30 32 H 3.351725 1.579620 -4.961554 0
M  V30 33 H 5.478365 2.928670 -4.897675 0
M  V30 34 H 5.895028 1.948193 -0.790805 0
M  V30 35 H 2.021197 1.213236 1.167900 0
M  V30 36 H 0.037187 1.015334 2.474280 0
M  V30 37 H -2.903080 -3.466336 1.582403 0
M  V30 38 H -4.465751 -2.684780 3.153702 0
M  V30 39 H -5.214365 -0.703748 2.381084 0
M  V30 40 H -3.608854 -0.322655 1.797132 0
M  V30 41 H -5.126867 0.593889 4.234971 0
M  V30 42 H -3.890074 1.399602 3.251743 0
M  V30 43 H -2.523889 -0.934040 6.186043 0
M  V30 44 H -4.237019 -1.183291 5.861294 0
M  V30 45 H -3.073187 -3.018332 4.965483 0
M  V30 46 H -1.816435 -1.987617 4.245878 0
M  V30 END ATOM
M  V30 BEGIN BOND
M  V30 1 1 1 2
M  V30 2 1 2 3
M  V30 3 2 3 4
M  V30 4 1 3 5
M  V30 5 1 5 6
M  V30 6 1 6 7
M  V30 7 2 7 8
M  V30 8 1 8 9
M  V30 9 2 9 10
M  V30 10 1 10 11
M  V30 11 1 11 12
M  V30 12 2 11 13
M  V30 13 2 5 14
M  V30 14 1 14 15
M  V30 15 2 15 16
M  V30 16 1 16 17
M  V30 17 2 17 18
M  V30 18 1 18 19
M  V30 19 1 19 20
M  V30 20 1 20 21
M  V30 21 1 21 22
M  V30 22 1 22 23
M  V30 23 1 23 24
M  V30 24 1 24 25
M  V30 25 1 18 26
M  V30 26 2 26 27
M  V30 27 1 27 2
M  V30 28 1 13 7
M  V30 29 1 27 15
M  V30 30 1 25 20
M  V30 31 1 1 28
M  V30 32 1 1 29
M  V30 33 1 1 30
M  V30 34 1 8 31
M  V30 35 1 9 32
M  V30 36 1 10 33
M  V30 37 1 13 34
M  V30 38 1 14 35
M  V30 39 1 16 36
M  V30 40 1 19 37
M  V30 41 1 20 38
M  V30 42 1 21 39
M  V30 43 1 21 40
M  V30 44 1 22 41
M  V30 45 1 22 42
M  V30 46 1 24 43
M  V30 47 1 24 44
M  V30 48 1 25 45
M  V30 49 1 25 46
M  V30 END BOND
M  V30 END CTAB
M  END
>  <Dataset>  (995) 
ChEMBL_Kinases

>  <Ligand_Instance>  (995) 
nan

>  <PDB_ID>  (995) 
nan

>  <Standardized_SMILES>  (995) 
Cn1c(=O)c(Oc2cccc(F)c2)cc2cnc(NC3CCOCC3)nc21

>  <Name>  (995) 
nan

>  <Pocket>  (995) 
nan

>  <ATP_Site>  (995) 
nan

>  <Peripheral>  (995) 
nan

>  <Num_H_Atoms_ProtBoundConf>  (995) 
nan

>  <Num_Resolved_Atoms>  (995) 
nan

>  <Num_Not_Resolved_Atoms>  (995) 
nan

$$$$
CHEMBL1766491
     RDKit          3D

  0  0  0  0  0  0  0  0  0  0999 V3000
M  V30 BEGIN CTAB
M  V30 COUNTS 46 49 0 0 0
M  V30 BEGIN ATOM
M  V30 1 C 2.139857 -3.537151 1.839196 0
M  V30 2 N 2.224752 -2.188405 1.309103 0
M  V30 3 C 3.396792 -1.737621 0.825728 0
M  V30 4 O 4.444330 -2.434677 0.807486 0
M  V30 5 C 3.377244 -0.437932 0.342040 0
M  V30 6 O 4.586911 0.055532 -0.167460 0
M  V30 7 C 4.695113 1.337997 -0.678864 0
M  V30 8 C 4.420204 1.374990 -2.048700 0
M  V30 9 C 4.487566 2.597931 -2.710932 0
M  V30 10 C 4.814263 3.740878 -2.044401 0
M  V30 11 F 4.890238 4.948451 -2.652220 0
M  V30 12 C 5.087273 3.701202 -0.681647 0
M  V30 13 C 5.029855 2.501620 0.010129 0
M  V30 14 C 2.266802 0.383488 0.330340 0
M  V30 15 C 1.084817 -0.119020 0.835837 0
M  V30 16 C -0.116645 0.570511 0.898124 0
M  V30 17 N -1.219797 -0.031098 1.419794 0
M  V30 18 C -1.196048 -1.280685 1.883508 0
M  V30 19 N -2.358655 -1.906873 2.430341 0
M  V30 20 C -3.593023 -1.189739 2.491039 0
M  V30 21 C -4.115117 -0.738827 1.149981 0
M  V30 22 C -4.258581 -1.884292 0.172708 0
M  V30 23 O -4.991763 -2.902765 0.746259 0
M  V30 24 C -5.628022 -2.551010 1.926384 0
M  V30 25 C -4.659780 -2.153019 3.028789 0
M  V30 26 N -0.013613 -1.918077 1.806701 0
M  V30 27 C 1.110652 -1.411001 1.314940 0
M  V30 28 H 2.901245 -3.590529 2.657255 0
M  V30 29 H 1.121900 -3.742965 2.205924 0
M  V30 30 H 2.471202 -4.245885 1.061113 0
M  V30 31 H 4.155596 0.532944 -2.656358 0
M  V30 32 H 4.274877 2.647118 -3.787399 0
M  V30 33 H 5.354414 4.561578 -0.076507 0
M  V30 34 H 5.219697 2.346934 1.060660 0
M  V30 35 H 2.261446 1.379196 -0.042796 0
M  V30 36 H -0.116742 1.588855 0.515072 0
M  V30 37 H -2.253311 -2.898102 2.775030 0
M  V30 38 H -3.530424 -0.316191 3.144832 0
M  V30 39 H -3.559272 0.102368 0.709205 0
M  V30 40 H -5.144891 -0.363603 1.349541 0
M  V30 41 H -4.856845 -1.495409 -0.690850 0
M  V30 42 H -3.302850 -2.207878 -0.253523 0
M  V30 43 H -6.465605 -1.848823 1.809586 0
M  V30 44 H -6.106492 -3.506006 2.290723 0
M  V30 45 H -4.185073 -3.103768 3.402634 0
M  V30 46 H -5.256203 -1.676710 3.829553 0
M  V30 END ATOM
M  V30 BEGIN BOND
M  V30 1 1 1 2
M  V30 2 1 2 3
M  V30 3 2 3 4
M  V30 4 1 3 5
M  V30 5 1 5 6
M  V30 6 1 6 7
M  V30 7 2 7 8
M  V30 8 1 8 9
M  V30 9 2 9 10
M  V30 10 1 10 11
M  V30 11 1 10 12
M  V30 12 2 12 13
M  V30 13 2 5 14
M  V30 14 1 14 15
M  V30 15 2 15 16
M  V30 16 1 16 17
M  V30 17 2 17 18
M  V30 18 1 18 19
M  V30 19 1 19 20
M  V30 20 1 20 21
M  V30 21 1 21 22
M  V30 22 1 22 23
M  V30 23 1 23 24
M  V30 24 1 24 25
M  V30 25 1 18 26
M  V30 26 2 26 27
M  V30 27 1 27 2
M  V30 28 1 13 7
M  V30 29 1 27 15
M  V30 30 1 25 20
M  V30 31 1 1 28
M  V30 32 1 1 29
M  V30 33 1 1 30
M  V30 34 1 8 31
M  V30 35 1 9 32
M  V30 36 1 12 33
M  V30 37 1 13 34
M  V30 38 1 14 35
M  V30 39 1 16 36
M  V30 40 1 19 37
M  V30 41 1 20 38
M  V30 42 1 21 39
M  V30 43 1 21 40
M  V30 44 1 22 41
M  V30 45 1 22 42
M  V30 46 1 24 43
M  V30 47 1 24 44
M  V30 48 1 25 45
M  V30 49 1 25 46
M  V30 END BOND
M  V30 END CTAB
M  END
>  <Dataset>  (996) 
ChEMBL_Kinases

>  <Ligand_Instance>  (996) 
nan

>  <PDB_ID>  (996) 
nan

>  <Standardized_SMILES>  (996) 
Cn1c(=O)c(Oc2ccc(F)cc2)cc2cnc(NC3CCOCC3)nc21

>  <Name>  (996) 
nan

>  <Pocket>  (996) 
nan

>  <ATP_Site>  (996) 
nan

>  <Peripheral>  (996) 
nan

>  <Num_H_Atoms_ProtBoundConf>  (996) 
nan

>  <Num_Resolved_Atoms>  (996) 
nan

>  <Num_Not_Resolved_Atoms>  (996) 
nan

$$$$
CHEMBL1766506
     RDKit          3D

  0  0  0  0  0  0  0  0  0  0999 V3000
M  V30 BEGIN CTAB
M  V30 COUNTS 47 50 0 0 0
M  V30 BEGIN ATOM
M  V30 1 N 1.782347 -4.195383 1.594358 0
M  V30 2 C 1.666472 -3.167190 2.121797 0
M  V30 3 C 1.508711 -1.860181 2.773570 0
M  V30 4 N 1.532106 -0.790759 1.800103 0
M  V30 5 C 2.676437 -0.155596 1.409348 0
M  V30 6 O 3.703926 -0.614833 1.999653 0
M  V30 7 C 2.638276 0.874612 0.461247 0
M  V30 8 O 3.924551 1.345066 0.245757 0
M  V30 9 C 4.168759 2.384171 -0.640493 0
M  V30 10 C 4.946859 2.350728 -1.777886 0
M  V30 11 C 5.101588 3.469006 -2.569860 0
M  V30 12 C 4.488663 4.671521 -2.265481 0
M  V30 13 F 4.667342 5.731617 -3.063905 0
M  V30 14 C 3.711099 4.696326 -1.124333 0
M  V30 15 C 3.541875 3.588753 -0.316054 0
M  V30 16 F 2.734236 3.850293 0.761897 0
M  V30 17 C 1.419070 1.235928 -0.071610 0
M  V30 18 C 0.281554 0.574992 0.343963 0
M  V30 19 C -0.891875 1.004041 -0.242965 0
M  V30 20 N -2.029106 0.385417 0.133981 0
M  V30 21 C -2.002170 -0.618840 1.056622 0
M  V30 22 N -3.217315 -1.262713 1.443742 0
M  V30 23 C -3.199213 -2.331355 2.423766 0
M  V30 24 C -2.349375 -3.468785 1.947160 0
M  V30 25 C -3.073818 -4.799869 2.042654 0
M  V30 26 O -4.249522 -4.842365 1.325934 0
M  V30 27 C -4.950994 -3.639643 1.368540 0
M  V30 28 C -4.605101 -2.845652 2.620430 0
M  V30 29 N -0.835798 -1.004669 1.602863 0
M  V30 30 C 0.341220 -0.437409 1.279481 0
M  V30 31 H 0.545730 -1.867197 3.311272 0
M  V30 32 H 2.314739 -1.734032 3.532408 0
M  V30 33 H 5.412054 1.402460 -1.990996 0
M  V30 34 H 5.732119 3.362466 -3.451589 0
M  V30 35 H 3.253342 5.675789 -0.937945 0
M  V30 36 H 1.523956 2.031628 -0.786475 0
M  V30 37 H -0.909175 1.813134 -0.985579 0
M  V30 38 H -4.115856 -0.952655 1.011230 0
M  V30 39 H -2.855092 -1.932389 3.412616 0
M  V30 40 H -2.014541 -3.351110 0.902467 0
M  V30 41 H -1.477715 -3.557438 2.645247 0
M  V30 42 H -3.211174 -5.058967 3.124359 0
M  V30 43 H -2.381223 -5.566625 1.643655 0
M  V30 44 H -4.579415 -3.038882 0.506485 0
M  V30 45 H -6.022025 -3.866019 1.315753 0
M  V30 46 H -4.728381 -3.439820 3.541880 0
M  V30 47 H -5.328060 -1.991844 2.642529 0
M  V30 END ATOM
M  V30 BEGIN BOND
M  V30 1 3 1 2
M  V30 2 1 2 3
M  V30 3 1 3 4
M  V30 4 1 4 5
M  V30 5 2 5 6
M  V30 6 1 5 7
M  V30 7 1 7 8
M  V30 8 1 8 9
M  V30 9 2 9 10
M  V30 10 1 10 11
M  V30 11 2 11 12
M  V30 12 1 12 13
M  V30 13 1 12 14
M  V30 14 2 14 15
M  V30 15 1 15 16
M  V30 16 2 7 17
M  V30 17 1 17 18
M  V30 18 2 18 19
M  V30 19 1 19 20
M  V30 20 2 20 21
M  V30 21 1 21 22
M  V30 22 1 22 23
M  V30 23 1 23 24
M  V30 24 1 24 25
M  V30 25 1 25 26
M  V30 26 1 26 27
M  V30 27 1 27 28
M  V30 28 1 21 29
M  V30 29 2 29 30
M  V30 30 1 30 4
M  V30 31 1 15 9
M  V30 32 1 30 18
M  V30 33 1 28 23
M  V30 34 1 3 31
M  V30 35 1 3 32
M  V30 36 1 10 33
M  V30 37 1 11 34
M  V30 38 1 14 35
M  V30 39 1 17 36
M  V30 40 1 19 37
M  V30 41 1 22 38
M  V30 42 1 23 39
M  V30 43 1 24 40
M  V30 44 1 24 41
M  V30 45 1 25 42
M  V30 46 1 25 43
M  V30 47 1 27 44
M  V30 48 1 27 45
M  V30 49 1 28 46
M  V30 50 1 28 47
M  V30 END BOND
M  V30 END CTAB
M  END
>  <Dataset>  (997) 
ChEMBL_Kinases

>  <Ligand_Instance>  (997) 
nan

>  <PDB_ID>  (997) 
nan

>  <Standardized_SMILES>  (997) 
N#CCn1c(=O)c(Oc2ccc(F)cc2F)cc2cnc(NC3CCOCC3)nc21

>  <Name>  (997) 
nan

>  <Pocket>  (997) 
nan

>  <ATP_Site>  (997) 
nan

>  <Peripheral>  (997) 
nan

>  <Num_H_Atoms_ProtBoundConf>  (997) 
nan

>  <Num_Resolved_Atoms>  (997) 
nan

>  <Num_Not_Resolved_Atoms>  (997) 
nan

$$$$
CHEMBL1773513
     RDKit          3D

  0  0  0  0  0  0  0  0  0  0999 V3000
M  V30 BEGIN CTAB
M  V30 COUNTS 50 52 0 0 0
M  V30 BEGIN ATOM
M  V30 1 C 1.082503 -2.669518 4.275551 0
M  V30 2 C 1.407529 -1.399944 3.505925 0
M  V30 3 C 1.356475 -0.180481 4.389622 0
M  V30 4 C 2.725078 -1.529909 2.770073 0 CFG=1
M  V30 5 C 3.889877 -1.793572 3.652706 0
M  V30 6 N 2.591066 -2.428005 1.646602 0
M  V30 7 C 1.844267 -2.243386 0.459270 0
M  V30 8 C 1.162871 -1.107096 0.107501 0
M  V30 9 C 0.434630 -0.970020 -1.057011 0
M  V30 10 C -0.274297 0.262829 -1.388659 0
M  V30 11 N 0.495382 1.375359 -1.551679 0
M  V30 12 C -0.356513 2.385846 -1.851940 0
M  V30 13 S 0.080813 4.058198 -2.166923 0 CHG=1 VAL=3
M  V30 14 C 0.065140 4.995417 -0.634051 0
M  V30 15 O -1.087261 4.763622 -3.170051 0 CHG=-1 VAL=1
M  V30 16 N -1.620713 1.903657 -1.872631 0
M  V30 17 C -1.596016 0.578951 -1.586108 0
M  V30 18 C -2.620667 -0.452055 -1.463985 0
M  V30 19 C -2.676488 -0.977867 -0.169324 0
M  V30 20 C -3.575838 -1.970944 0.179518 0
M  V30 21 C -4.429624 -2.434473 -0.803715 0
M  V30 22 F -5.327444 -3.408694 -0.502682 0
M  V30 23 C -4.390416 -1.928549 -2.087996 0
M  V30 24 C -3.491865 -0.939555 -2.427434 0
M  V30 25 C 0.376324 -2.013594 -1.922878 0
M  V30 26 C 1.065548 -3.152199 -1.560123 0
M  V30 27 N 1.767164 -3.257306 -0.418100 0
M  V30 28 H 1.500061 -3.529003 3.719691 0
M  V30 29 H 1.443628 -2.616675 5.321408 0
M  V30 30 H -0.016172 -2.815997 4.322455 0
M  V30 31 H 0.593832 -1.312923 2.760512 0
M  V30 32 H 0.776606 -0.429997 5.302122 0
M  V30 33 H 0.915036 0.711400 3.903641 0
M  V30 34 H 2.369396 0.135127 4.741683 0
M  V30 35 H 2.865360 -0.507152 2.290194 0
M  V30 36 H 3.605213 -2.233379 4.644847 0
M  V30 37 H 4.683336 -2.388353 3.168327 0
M  V30 38 H 4.381578 -0.814903 3.929827 0
M  V30 39 H 3.131476 -3.294341 1.790361 0
M  V30 40 H 1.183112 -0.254830 0.749505 0
M  V30 41 H 1.534294 1.541350 -1.485236 0
M  V30 42 H -0.946665 5.189485 -0.270834 0
M  V30 43 H 0.674699 5.896447 -0.705239 0
M  V30 44 H 0.542951 4.330738 0.137049 0
M  V30 45 H -2.045715 -0.671676 0.657900 0
M  V30 46 H -3.637602 -2.392944 1.173780 0
M  V30 47 H -5.041026 -2.266124 -2.880096 0
M  V30 48 H -3.360252 -0.461595 -3.389282 0
M  V30 49 H -0.193706 -1.912536 -2.839256 0
M  V30 50 H 1.044556 -4.010270 -2.225570 0
M  V30 END ATOM
M  V30 BEGIN BOND
M  V30 1 1 1 2
M  V30 2 1 2 3
M  V30 3 1 2 4
M  V30 4 1 4 5
M  V30 5 1 4 6
M  V30 6 1 6 7
M  V30 7 2 7 8
M  V30 8 1 8 9
M  V30 9 1 9 10
M  V30 10 1 10 11
M  V30 11 1 11 12
M  V30 12 1 12 13
M  V30 13 1 13 14
M  V30 14 1 13 15
M  V30 15 2 12 16
M  V30 16 1 16 17
M  V30 17 1 17 18
M  V30 18 2 18 19
M  V30 19 1 19 20
M  V30 20 2 20 21
M  V30 21 1 21 22
M  V30 22 1 21 23
M  V30 23 2 23 24
M  V30 24 2 9 25
M  V30 25 1 25 26
M  V30 26 2 26 27
M  V30 27 1 27 7
M  V30 28 2 17 10
M  V30 29 1 24 18
M  V30 30 1 1 28
M  V30 31 1 1 29
M  V30 32 1 1 30
M  V30 33 1 2 31
M  V30 34 1 3 32
M  V30 35 1 3 33
M  V30 36 1 3 34
M  V30 37 1 4 35 CFG=3
M  V30 38 1 5 36
M  V30 39 1 5 37
M  V30 40 1 5 38
M  V30 41 1 6 39
M  V30 42 1 8 40
M  V30 43 1 11 41
M  V30 44 1 14 42
M  V30 45 1 14 43
M  V30 46 1 14 44
M  V30 47 1 19 45
M  V30 48 1 20 46
M  V30 49 1 23 47
M  V30 50 1 24 48
M  V30 51 1 25 49
M  V30 52 1 26 50
M  V30 END BOND
M  V30 END CTAB
M  END
>  <Dataset>  (998) 
ChEMBL_Kinases

>  <Ligand_Instance>  (998) 
nan

>  <PDB_ID>  (998) 
nan

>  <Standardized_SMILES>  (998) 
CC(C)[C@@H](C)Nc1cc(-c2[nH]c([S+](C)[O-])nc2-c2ccc(F)cc2)ccn1

>  <Name>  (998) 
nan

>  <Pocket>  (998) 
nan

>  <ATP_Site>  (998) 
nan

>  <Peripheral>  (998) 
nan

>  <Num_H_Atoms_ProtBoundConf>  (998) 
nan

>  <Num_Resolved_Atoms>  (998) 
nan

>  <Num_Not_Resolved_Atoms>  (998) 
nan

$$$$
CHEMBL1773512
     RDKit          3D

  0  0  0  0  0  0  0  0  0  0999 V3000
M  V30 BEGIN CTAB
M  V30 COUNTS 49 51 0 0 0
M  V30 BEGIN ATOM
M  V30 1 C 4.800399 -4.944504 1.450006 0
M  V30 2 S 4.856053 -3.985798 -0.088561 0
M  V30 3 C 3.278386 -3.194074 -0.361984 0
M  V30 4 N 2.967013 -2.409237 -1.410629 0
M  V30 5 C 1.677569 -2.011560 -1.241932 0
M  V30 6 C 1.041954 -1.143662 -2.221097 0
M  V30 7 C -0.073915 -1.561919 -2.950888 0
M  V30 8 C -0.678770 -0.725025 -3.887900 0
M  V30 9 C -0.182282 0.559483 -4.122532 0
M  V30 10 F -0.720861 1.421044 -5.016640 0
M  V30 11 C 0.934213 1.008656 -3.408066 0
M  V30 12 C 1.494676 0.141747 -2.493063 0
M  V30 13 C 1.250413 -2.591081 -0.061133 0
M  V30 14 C -0.138383 -2.299858 0.336393 0
M  V30 15 C -1.184090 -3.123206 -0.037647 0
M  V30 16 C -2.448052 -2.746965 0.393598 0
M  V30 17 N -2.680128 -1.650447 1.134425 0
M  V30 18 C -1.676609 -0.815561 1.521991 0
M  V30 19 N -1.927057 0.347879 2.302798 0
M  V30 20 C -0.892013 1.256170 2.759239 0 CFG=2
M  V30 21 C 0.111918 0.625132 3.664153 0
M  V30 22 C -1.550096 2.474046 3.370750 0
M  V30 23 C -2.403221 3.124026 2.278160 0
M  V30 24 C -2.457174 2.151509 4.513435 0
M  V30 25 C -0.406872 -1.161741 1.109356 0
M  V30 26 N 2.241696 -3.323921 0.484438 0
M  V30 27 H 5.806689 -4.987892 1.929771 0
M  V30 28 H 4.421736 -5.974808 1.199667 0
M  V30 29 H 4.081426 -4.545265 2.188262 0
M  V30 30 H -0.487186 -2.559101 -2.793253 0
M  V30 31 H -1.552000 -1.041043 -4.465109 0
M  V30 32 H 1.383133 1.979040 -3.523259 0
M  V30 33 H 2.356513 0.462935 -1.927496 0
M  V30 34 H -0.994263 -4.007100 -0.634595 0
M  V30 35 H -3.294022 -3.371914 0.118594 0
M  V30 36 H -2.934566 0.535855 2.549895 0
M  V30 37 H -0.347933 1.633104 1.844896 0
M  V30 38 H -0.014206 0.951643 4.722770 0
M  V30 39 H 1.119047 0.795721 3.290432 0
M  V30 40 H -0.075980 -0.477949 3.690837 0
M  V30 41 H -0.809158 3.232150 3.689107 0
M  V30 42 H -1.766280 3.235561 1.373395 0
M  V30 43 H -3.332335 2.575335 2.106221 0
M  V30 44 H -2.653134 4.142570 2.670722 0
M  V30 45 H -2.810682 1.100869 4.507079 0
M  V30 46 H -3.359304 2.796964 4.483698 0
M  V30 47 H -1.919981 2.389326 5.469036 0
M  V30 48 H 0.447001 -0.564894 1.363413 0
M  V30 49 H 2.093618 -3.829692 1.374846 0
M  V30 END ATOM
M  V30 BEGIN BOND
M  V30 1 1 1 2
M  V30 2 1 2 3
M  V30 3 2 3 4
M  V30 4 1 4 5
M  V30 5 1 5 6
M  V30 6 2 6 7
M  V30 7 1 7 8
M  V30 8 2 8 9
M  V30 9 1 9 10
M  V30 10 1 9 11
M  V30 11 2 11 12
M  V30 12 2 5 13
M  V30 13 1 13 14
M  V30 14 2 14 15
M  V30 15 1 15 16
M  V30 16 2 16 17
M  V30 17 1 17 18
M  V30 18 1 18 19
M  V30 19 1 19 20
M  V30 20 1 20 21
M  V30 21 1 20 22
M  V30 22 1 22 23
M  V30 23 1 22 24
M  V30 24 2 18 25
M  V30 25 1 13 26
M  V30 26 1 26 3
M  V30 27 1 12 6
M  V30 28 1 25 14
M  V30 29 1 1 27
M  V30 30 1 1 28
M  V30 31 1 1 29
M  V30 32 1 7 30
M  V30 33 1 8 31
M  V30 34 1 11 32
M  V30 35 1 12 33
M  V30 36 1 15 34
M  V30 37 1 16 35
M  V30 38 1 19 36
M  V30 39 1 20 37 CFG=3
M  V30 40 1 21 38
M  V30 41 1 21 39
M  V30 42 1 21 40
M  V30 43 1 22 41
M  V30 44 1 23 42
M  V30 45 1 23 43
M  V30 46 1 23 44
M  V30 47 1 24 45
M  V30 48 1 24 46
M  V30 49 1 24 47
M  V30 50 1 25 48
M  V30 51 1 26 49
M  V30 END BOND
M  V30 END CTAB
M  END
>  <Dataset>  (999) 
ChEMBL_Kinases

>  <Ligand_Instance>  (999) 
nan

>  <PDB_ID>  (999) 
nan

>  <Standardized_SMILES>  (999) 
CSc1nc(-c2ccc(F)cc2)c(-c2ccnc(N[C@H](C)C(C)C)c2)[nH]1

>  <Name>  (999) 
nan

>  <Pocket>  (999) 
nan

>  <ATP_Site>  (999) 
nan

>  <Peripheral>  (999) 
nan

>  <Num_H_Atoms_ProtBoundConf>  (999) 
nan

>  <Num_Resolved_Atoms>  (999) 
nan

>  <Num_Not_Resolved_Atoms>  (999) 
nan

$$$$
